data_image0
_cell_length_a       12.997
_cell_length_b       14.139
_cell_length_c       16.072
_cell_angle_alpha    90
_cell_angle_beta     90
_cell_angle_gamma    90

_symmetry_space_group_name_H-M    "P 1"
_symmetry_int_tables_number       1

loop_
  _symmetry_equiv_pos_as_xyz
  'x, y, z'

loop_
  _atom_site_label
  _atom_site_occupancy
  _atom_site_fract_x
  _atom_site_fract_y
  _atom_site_fract_z
  _atom_site_thermal_displace_type
  _atom_site_B_iso_or_equiv
  _atom_site_type_symbol
  C1       1.0000 0.49350  0.54261  0.53677  Biso   1.000  C
  C2       1.0000 0.44518  0.47988  0.59912  Biso   1.000  C
  O1       1.0000 0.59998  0.54092  0.55009  Biso   1.000  O
  O2       1.0000 0.33862  0.47457  0.58033  Biso   1.000  O
  C3       1.0000 0.65531  0.59410  0.48992  Biso   1.000  C
  C4       1.0000 0.28122  0.41531  0.63489  Biso   1.000  C
  C5       1.0000 0.76687  0.58151  0.50560  Biso   1.000  C
  C6       1.0000 0.25837  0.46057  0.71727  Biso   1.000  C
  O3       1.0000 0.79434  0.63208  0.57728  Biso   1.000  O
  C7       1.0000 0.17712  0.52338  0.72443  Biso   1.000  C
  C8       1.0000 0.31530  0.44183  0.78858  Biso   1.000  C
  C9       1.0000 0.89921  0.61737  0.60061  Biso   1.000  C
  C10      1.0000 0.15350  0.56602  0.79890  Biso   1.000  C
  C11      1.0000 0.29261  0.48433  0.86442  Biso   1.000  C
  O4       1.0000 0.39971  0.38327  0.78223  Biso   1.000  O
  C12      1.0000 0.91967  0.67720  0.67453  Biso   1.000  C
  C13      1.0000 0.20989  0.54587  0.86747  Biso   1.000  C
  C14      1.0000 0.35647  0.46870  0.94170  Biso   1.000  C
  C15      1.0000 0.38247  0.28672  0.80612  Biso   1.000  C
  C16      1.0000 0.96230  0.76660  0.66401  Biso   1.000  C
  C17      1.0000 0.89590  0.64757  0.75473  Biso   1.000  C
  O5       1.0000 0.41379  0.55138  0.96248  Biso   1.000  O
  C18      1.0000 0.47973  0.23509  0.79443  Biso   1.000  C
  C19      1.0000 0.98153  0.82467  0.73090  Biso   1.000  C
  C20      1.0000 0.91498  0.70677  0.82280  Biso   1.000  C
  O6       1.0000 0.86058  0.55690  0.76742  Biso   1.000  O
  C21      1.0000 0.49781  0.56468  0.90847  Biso   1.000  C
  O7       1.0000 0.55551  0.26678  0.84893  Biso   1.000  O
  C22      1.0000 0.95730  0.79504  0.80930  Biso   1.000  C
  C23      1.0000 0.89144  0.67572  0.90978  Biso   1.000  C
  C24      1.0000 0.75133  0.54509  0.76101  Biso   1.000  C
  C25      1.0000 0.55367  0.65231  0.93112  Biso   1.000  C
  C26      1.0000 0.65577  0.23538  0.83238  Biso   1.000  C
  O8       1.0000 0.78949  0.69977  0.93013  Biso   1.000  O
  C27      1.0000 0.72540  0.44770  0.73382  Biso   1.000  C
  O9       1.0000 0.59791  0.64311  0.01108  Biso   1.000  O
  C28      1.0000 0.71663  0.28779  0.77383  Biso   1.000  C
  C29      1.0000 0.77249  0.70189  0.01748  Biso   1.000  C
  O10      1.0000 0.73263  0.38390  0.79878  Biso   1.000  O
  C30      1.0000 0.66169  0.71971  0.03379  Biso   1.000  C
  C31      1.0000 0.60860  0.32428  0.40978  Biso   1.000  C
  C32      1.0000 0.58498  0.29323  0.32280  Biso   1.000  C
  O11      1.0000 0.71047  0.30023  0.43013  Biso   1.000  O
  C33      1.0000 0.54266  0.20496  0.30930  Biso   1.000  C
  C34      1.0000 0.60406  0.35243  0.25473  Biso   1.000  C
  C35      1.0000 0.72748  0.29811  0.51748  Biso   1.000  C
  C36      1.0000 0.51850  0.17533  0.23090  Biso   1.000  C
  C37      1.0000 0.58029  0.32280  0.17453  Biso   1.000  C
  O12      1.0000 0.63938  0.44310  0.26742  Biso   1.000  O
  C38      1.0000 0.83827  0.28029  0.53379  Biso   1.000  C
  C39      1.0000 0.53766  0.23340  0.16401  Biso   1.000  C
  C40      1.0000 0.60083  0.38263  0.10061  Biso   1.000  C
  C41      1.0000 0.74871  0.45491  0.26101  Biso   1.000  C
  O13      1.0000 0.90213  0.35689  0.51108  Biso   1.000  O
  O14      1.0000 0.70570  0.36792  0.07728  Biso   1.000  O
  C42      1.0000 0.77456  0.55230  0.23382  Biso   1.000  C
  C43      1.0000 0.94630  0.34769  0.43112  Biso   1.000  C
  C44      1.0000 0.73309  0.41849  0.00560  Biso   1.000  C
  O15      1.0000 0.76741  0.61610  0.29878  Biso   1.000  O
  C45      1.0000 0.00223  0.43532  0.40847  Biso   1.000  C
  C46      1.0000 0.84473  0.40590  0.98992  Biso   1.000  C
  C47      1.0000 0.78341  0.71221  0.27383  Biso   1.000  C
  O16      1.0000 0.08617  0.44862  0.46248  Biso   1.000  O
  O17      1.0000 0.89998  0.45908  0.05009  Biso   1.000  O
  C48      1.0000 0.84419  0.76462  0.33238  Biso   1.000  C
  C49      1.0000 0.14349  0.53130  0.44170  Biso   1.000  C
  C50      1.0000 0.00646  0.45739  0.03677  Biso   1.000  C
  O18      1.0000 0.94453  0.73322  0.34893  Biso   1.000  O
  C51      1.0000 0.20743  0.51567  0.36442  Biso   1.000  C
  C52      1.0000 0.05478  0.52012  0.09912  Biso   1.000  C
  C53      1.0000 0.02031  0.76491  0.29443  Biso   1.000  C
  C54      1.0000 0.29007  0.45413  0.36747  Biso   1.000  C
  C55      1.0000 0.18473  0.55817  0.28858  Biso   1.000  C
  O19      1.0000 0.16142  0.52543  0.08033  Biso   1.000  O
  C56      1.0000 0.11749  0.71328  0.30612  Biso   1.000  C
  C57      1.0000 0.34646  0.43398  0.29890  Biso   1.000  C
  C58      1.0000 0.24159  0.53943  0.21727  Biso   1.000  C
  O20      1.0000 0.10033  0.61673  0.28223  Biso   1.000  O
  C59      1.0000 0.21882  0.58469  0.13489  Biso   1.000  C
  C60      1.0000 0.32292  0.47662  0.22443  Biso   1.000  C
  C61      1.0000 0.46234  0.73343  0.33599  Biso   1.000  C
  C62      1.0000 0.48150  0.67530  0.26910  Biso   1.000  C
  C63      1.0000 0.41971  0.82283  0.32547  Biso   1.000  C
  C64      1.0000 0.45734  0.70500  0.19070  Biso   1.000  C
  C65      1.0000 0.39594  0.85239  0.24527  Biso   1.000  C
  C66      1.0000 0.39917  0.88259  0.39939  Biso   1.000  C
  C67      1.0000 0.41502  0.79320  0.17720  Biso   1.000  C
  O21      1.0000 0.36062  0.94307  0.23258  Biso   1.000  O
  O22      1.0000 0.29430  0.86788  0.42272  Biso   1.000  O
  C68      1.0000 0.39140  0.82432  0.09022  Biso   1.000  C
  C69      1.0000 0.25129  0.95488  0.23899  Biso   1.000  C
  C70      1.0000 0.26691  0.91852  0.49440  Biso   1.000  C
  O23      1.0000 0.28953  0.80020  0.06987  Biso   1.000  O
  C71      1.0000 0.22544  0.05227  0.26618  Biso   1.000  C
  C72      1.0000 0.15527  0.90593  0.51008  Biso   1.000  C
  C73      1.0000 0.27252  0.79808  0.98252  Biso   1.000  C
  O24      1.0000 0.23259  0.11613  0.20122  Biso   1.000  O
  O25      1.0000 0.10002  0.95912  0.44991  Biso   1.000  O
  C74      1.0000 0.16173  0.78032  0.96621  Biso   1.000  C
  C75      1.0000 0.21659  0.21218  0.22617  Biso   1.000  C
  C76      1.0000 0.99354  0.95742  0.46323  Biso   1.000  C
  O26      1.0000 0.09787  0.85692  0.98892  Biso   1.000  O
  C77      1.0000 0.15581  0.26459  0.16762  Biso   1.000  C
  C78      1.0000 0.94522  0.02009  0.40088  Biso   1.000  C
  C79      1.0000 0.05370  0.84773  0.06888  Biso   1.000  C
  O27      1.0000 0.05547  0.23318  0.15107  Biso   1.000  O
  O28      1.0000 0.83858  0.02539  0.41967  Biso   1.000  O
  C80      1.0000 0.99777  0.93529  0.09153  Biso   1.000  C
  C81      1.0000 0.97969  0.26487  0.20557  Biso   1.000  C
  C82      1.0000 0.78118  0.08473  0.36511  Biso   1.000  C
  O29      1.0000 0.91383  0.94858  0.03752  Biso   1.000  O
  C83      1.0000 0.88251  0.21331  0.19388  Biso   1.000  C
  C84      1.0000 0.75841  0.03939  0.28273  Biso   1.000  C
  C85      1.0000 0.85651  0.03133  0.05830  Biso   1.000  C
  O30      1.0000 0.89967  0.11670  0.21777  Biso   1.000  O
  C86      1.0000 0.81527  0.05821  0.21142  Biso   1.000  C
  C87      1.0000 0.67708  0.97659  0.27557  Biso   1.000  C
  C88      1.0000 0.79257  0.01570  0.13558  Biso   1.000  C
  C89      1.0000 0.65354  0.93401  0.20110  Biso   1.000  C
  C90      1.0000 0.70993  0.95410  0.13253  Biso   1.000  C
  C91      1.0000 0.33831  0.21968  0.46621  Biso   1.000  C
  O31      1.0000 0.40209  0.14308  0.48892  Biso   1.000  O
  C92      1.0000 0.22751  0.20192  0.48252  Biso   1.000  C
  C93      1.0000 0.44633  0.15227  0.56888  Biso   1.000  C
  O32      1.0000 0.21051  0.19980  0.56987  Biso   1.000  O
  C94      1.0000 0.50219  0.06471  0.59153  Biso   1.000  C
  C95      1.0000 0.10856  0.17568  0.59022  Biso   1.000  C
  O33      1.0000 0.58621  0.05142  0.53752  Biso   1.000  O
  C96      1.0000 0.08502  0.20680  0.67720  Biso   1.000  C
  C97      1.0000 0.64353  0.96867  0.55830  Biso   1.000  C
  C98      1.0000 0.04270  0.29500  0.69070  Biso   1.000  C
  C99      1.0000 0.10410  0.14761  0.74527  Biso   1.000  C
  C100     1.0000 0.70739  0.98430  0.63558  Biso   1.000  C
  C101     1.0000 0.01847  0.32470  0.76910  Biso   1.000  C
  C102     1.0000 0.08033  0.17717  0.82547  Biso   1.000  C
  O34      1.0000 0.13942  0.05693  0.73258  Biso   1.000  O
  C103     1.0000 0.79011  0.04590  0.63253  Biso   1.000  C
  C104     1.0000 0.68470  0.94179  0.71142  Biso   1.000  C
  C105     1.0000 0.03770  0.26657  0.83599  Biso   1.000  C
  C106     1.0000 0.10079  0.11741  0.89939  Biso   1.000  C
  C107     1.0000 0.24867  0.04512  0.73899  Biso   1.000  C
  C108     1.0000 0.84650  0.06599  0.70110  Biso   1.000  C
  C109     1.0000 0.74163  0.96061  0.78273  Biso   1.000  C
  O35      1.0000 0.60029  0.88330  0.71777  Biso   1.000  O
  O36      1.0000 0.20566  0.13212  0.92272  Biso   1.000  O
  C110     1.0000 0.27460  0.94773  0.76618  Biso   1.000  C
  C111     1.0000 0.82288  0.02341  0.77557  Biso   1.000  C
  C112     1.0000 0.71878  0.91527  0.86511  Biso   1.000  C
  C113     1.0000 0.61753  0.78669  0.69388  Biso   1.000  C
  C114     1.0000 0.23313  0.08148  0.99440  Biso   1.000  C
  O37      1.0000 0.26737  0.88387  0.70122  Biso   1.000  O
  O38      1.0000 0.66138  0.97461  0.91967  Biso   1.000  O
  C115     1.0000 0.52027  0.73513  0.70557  Biso   1.000  C
  C116     1.0000 0.34469  0.09407  0.01008  Biso   1.000  C
  C117     1.0000 0.28337  0.78782  0.72617  Biso   1.000  C
  C118     1.0000 0.55482  0.97991  0.90088  Biso   1.000  C
  O39      1.0000 0.44449  0.76682  0.65107  Biso   1.000  O
  O40      1.0000 0.40002  0.04088  0.94991  Biso   1.000  O
  C119     1.0000 0.34423  0.73541  0.66762  Biso   1.000  C
  C120     1.0000 0.50650  0.04258  0.96323  Biso   1.000  C
