data_image0
_cell_length_a       19.936
_cell_length_b       10.941
_cell_length_c       21.074
_cell_angle_alpha    90
_cell_angle_beta     107.33
_cell_angle_gamma    90

_symmetry_space_group_name_H-M    "P 1"
_symmetry_int_tables_number       1

loop_
  _symmetry_equiv_pos_as_xyz
  'x, y, z'

loop_
  _atom_site_label
  _atom_site_occupancy
  _atom_site_fract_x
  _atom_site_fract_y
  _atom_site_fract_z
  _atom_site_thermal_displace_type
  _atom_site_B_iso_or_equiv
  _atom_site_type_symbol
  C1       1.0000 0.42781  0.70377  0.59481  Biso   1.000  C
  C2       1.0000 0.36868  0.63066  0.56663  Biso   1.000  C
  C3       1.0000 0.43908  0.81254  0.56593  Biso   1.000  C
  H1       1.0000 0.46118  0.67800  0.63497  Biso   1.000  H
  C4       1.0000 0.32100  0.66648  0.50553  Biso   1.000  C
  C5       1.0000 0.35986  0.51577  0.60361  Biso   1.000  C
  C6       1.0000 0.38916  0.85148  0.50742  Biso   1.000  C
  O1       1.0000 0.49634  0.88721  0.58974  Biso   1.000  O
  C7       1.0000 0.25686  0.59218  0.46880  Biso   1.000  C
  C8       1.0000 0.33261  0.77744  0.47740  Biso   1.000  C
  H2       1.0000 0.33399  0.45425  0.57100  Biso   1.000  H
  H3       1.0000 0.40685  0.48177  0.62637  Biso   1.000  H
  C9       1.0000 0.32095  0.53688  0.65481  Biso   1.000  C
  O2       1.0000 0.40013  0.95750  0.47566  Biso   1.000  O
  C10      1.0000 0.55341  0.83923  0.64178  Biso   1.000  C
  C11      1.0000 0.18971  0.63120  0.48331  Biso   1.000  C
  H4       1.0000 0.24985  0.59921  0.42038  Biso   1.000  H
  H5       1.0000 0.26595  0.50507  0.48108  Biso   1.000  H
  H6       1.0000 0.30045  0.80239  0.43629  Biso   1.000  H
  C12      1.0000 0.24900  0.51174  0.64169  Biso   1.000  C
  C13      1.0000 0.35872  0.58358  0.71709  Biso   1.000  C
  C14      1.0000 0.40203  0.06791  0.51150  Biso   1.000  C
  H7       1.0000 0.56866  0.76136  0.62747  Biso   1.000  H
  H8       1.0000 0.59254  0.89727  0.65217  Biso   1.000  H
  H9       1.0000 0.53824  0.82579  0.68140  Biso   1.000  H
  C15      1.0000 0.16485  0.57554  0.53133  Biso   1.000  C
  C16      1.0000 0.15121  0.72809  0.44564  Biso   1.000  C
  C17      1.0000 0.20159  0.46979  0.57443  Biso   1.000  C
  C18      1.0000 0.21833  0.52938  0.69259  Biso   1.000  C
  H10      1.0000 0.40737  0.60122  0.72599  Biso   1.000  H
  C19      1.0000 0.32672  0.60479  0.76601  Biso   1.000  C
  O3       1.0000 0.33456  0.12449  0.48933  Biso   1.000  O
  H11      1.0000 0.41434  0.05054  0.55967  Biso   1.000  H
  H12      1.0000 0.43816  0.12339  0.50389  Biso   1.000  H
  C20      1.0000 0.10249  0.61886  0.54117  Biso   1.000  C
  H13      1.0000 0.16788  0.76547  0.41258  Biso   1.000  H
  C21      1.0000 0.08928  0.77068  0.45558  Biso   1.000  C
  H14      1.0000 0.16588  0.41294  0.58129  Biso   1.000  H
  H15      1.0000 0.23004  0.42473  0.55087  Biso   1.000  H
  H16      1.0000 0.17006  0.50983  0.68458  Biso   1.000  H
  C22      1.0000 0.25562  0.57399  0.75383  Biso   1.000  C
  O4       1.0000 0.35734  0.65588  0.82789  Biso   1.000  O
  C23      1.0000 0.29950  0.14770  0.53586  Biso   1.000  C
  H17      1.0000 0.08538  0.58139  0.57398  Biso   1.000  H
  C24      1.0000 0.06540  0.71456  0.50449  Biso   1.000  C
  O5       1.0000 0.04881  0.86318  0.42023  Biso   1.000  O
  O6       1.0000 0.22406  0.58943  0.80334  Biso   1.000  O
  C25      1.0000 0.42962  0.68092  0.85081  Biso   1.000  C
  C26      1.0000 0.22693  0.14012  0.51473  Biso   1.000  C
  C27      1.0000 0.33369  0.18362  0.60048  Biso   1.000  C
  O7       1.0000 0.00246  0.75231  0.51423  Biso   1.000  O
  C28      1.0000 0.06680  0.90732  0.36382  Biso   1.000  C
  C29      1.0000 0.24164  0.49063  0.85041  Biso   1.000  C
  O8       1.0000 0.45486  0.76282  0.81119  Biso   1.000  O
  H18      1.0000 0.44063  0.71502  0.89629  Biso   1.000  H
  H19      1.0000 0.45555  0.60278  0.85399  Biso   1.000  H
  C30      1.0000 0.18975  0.16077  0.55962  Biso   1.000  C
  H20      1.0000 0.20285  0.12083  0.46979  Biso   1.000  H
  H21      1.0000 0.38305  0.19669  0.61370  Biso   1.000  H
  C31      1.0000 0.29633  0.20071  0.64671  Biso   1.000  C
  C32      1.0000 0.00992  0.85659  0.55465  Biso   1.000  C
  H22      1.0000 0.06687  0.83923  0.33359  Biso   1.000  H
  H23      1.0000 0.03226  0.96847  0.34060  Biso   1.000  H
  H24      1.0000 0.11359  0.94461  0.37828  Biso   1.000  H
  H25      1.0000 0.29254  0.47774  0.86438  Biso   1.000  H
  H26      1.0000 0.22634  0.51092  0.88928  Biso   1.000  H
  H27      1.0000 0.21793  0.41587  0.82958  Biso   1.000  H
  C33      1.0000 0.42583  0.87807  0.79687  Biso   1.000  C
  H28      1.0000 0.13986  0.15684  0.54470  Biso   1.000  H
  C34      1.0000 0.22363  0.18737  0.62657  Biso   1.000  C
  C35      1.0000 0.33949  0.22740  0.71799  Biso   1.000  C
  O9       1.0000 0.03701  0.82141  0.62235  Biso   1.000  O
  H29      1.0000 0.04227  0.91527  0.54331  Biso   1.000  H
  H30      1.0000 0.96375  0.89699  0.54709  Biso   1.000  H
  C36      1.0000 0.46106  0.95457  0.76491  Biso   1.000  C
  C37      1.0000 0.36585  0.91948  0.81044  Biso   1.000  C
  C38      1.0000 0.17876  0.19697  0.67380  Biso   1.000  C
  H31      1.0000 0.37786  0.28517  0.71829  Biso   1.000  H
  H32      1.0000 0.30934  0.26579  0.74220  Biso   1.000  H
  C39      1.0000 0.37048  0.10904  0.75253  Biso   1.000  C
  C40      1.0000 0.09116  0.88840  0.66371  Biso   1.000  C
  H33      1.0000 0.50375  0.92862  0.75790  Biso   1.000  H
  C41      1.0000 0.43391  0.06818  0.74354  Biso   1.000  C
  H34      1.0000 0.34378  0.86966  0.83530  Biso   1.000  H
  C42      1.0000 0.33736  0.03482  0.78768  Biso   1.000  C
  C43      1.0000 0.16311  0.07038  0.69547  Biso   1.000  C
  H35      1.0000 0.13417  0.23937  0.65118  Biso   1.000  H
  H36      1.0000 0.20393  0.24568  0.71327  Biso   1.000  H
  C44      1.0000 0.13178  0.82917  0.72087  Biso   1.000  C
  C45      1.0000 0.10545  0.00877  0.65237  Biso   1.000  C
  H37      1.0000 0.45865  0.12028  0.72221  Biso   1.000  H
  C46      1.0000 0.26874  0.06983  0.80090  Biso   1.000  C
  C47      1.0000 0.20439  0.01152  0.75248  Biso   1.000  C
  C48      1.0000 0.18681  0.89160  0.76422  Biso   1.000  C
  H38      1.0000 0.12174  0.74719  0.72977  Biso   1.000  H
  H39      1.0000 0.07587  0.05054  0.61499  Biso   1.000  H
  H40      1.0000 0.26353  0.15977  0.79807  Biso   1.000  H
  H41      1.0000 0.27117  0.04488  0.84668  Biso   1.000  H
  H42      1.0000 0.21386  0.85157  0.80359  Biso   1.000  H
  C49      1.0000 0.63406  0.41952  0.68955  Biso   1.000  C
  C50      1.0000 0.57408  0.37812  0.70312  Biso   1.000  C
  C51      1.0000 0.66255  0.53478  0.71232  Biso   1.000  C
  H43      1.0000 0.65618  0.36971  0.66470  Biso   1.000  H
  O10      1.0000 0.54508  0.26277  0.68876  Biso   1.000  O
  C52      1.0000 0.53883  0.45462  0.73504  Biso   1.000  C
  C53      1.0000 0.62941  0.60899  0.74741  Biso   1.000  C
  C54      1.0000 0.73115  0.56978  0.69905  Biso   1.000  C
  C55      1.0000 0.57027  0.18088  0.64914  Biso   1.000  C
  H44      1.0000 0.49616  0.42857  0.74210  Biso   1.000  H
  C56      1.0000 0.56603  0.56823  0.75641  Biso   1.000  C
  C57      1.0000 0.66040  0.72736  0.78196  Biso   1.000  C
  C58      1.0000 0.79552  0.51147  0.74751  Biso   1.000  C
  H45      1.0000 0.73636  0.65981  0.70188  Biso   1.000  H
  H46      1.0000 0.72872  0.54492  0.65327  Biso   1.000  H
  O11      1.0000 0.64261  0.15584  0.67211  Biso   1.000  O
  H47      1.0000 0.55928  0.21497  0.60371  Biso   1.000  H
  H48      1.0000 0.54436  0.10282  0.64601  Biso   1.000  H
  H49      1.0000 0.54126  0.62033  0.77779  Biso   1.000  H
  H50      1.0000 0.62203  0.78521  0.78166  Biso   1.000  H
  H51      1.0000 0.69056  0.76583  0.75780  Biso   1.000  H
  C59      1.0000 0.70356  0.70067  0.85324  Biso   1.000  C
  C60      1.0000 0.81308  0.39155  0.73573  Biso   1.000  C
  C61      1.0000 0.83680  0.57042  0.80453  Biso   1.000  C
  C62      1.0000 0.67318  0.10484  0.73399  Biso   1.000  C
  C63      1.0000 0.77628  0.68741  0.87343  Biso   1.000  C
  C64      1.0000 0.66622  0.68358  0.89952  Biso   1.000  C
  H52      1.0000 0.78603  0.35161  0.69636  Biso   1.000  H
  C65      1.0000 0.86812  0.32922  0.77913  Biso   1.000  C
  C66      1.0000 0.89444  0.50882  0.84758  Biso   1.000  C
  C67      1.0000 0.82113  0.69701  0.82615  Biso   1.000  C
  C68      1.0000 0.64117  0.08363  0.78286  Biso   1.000  C
  C69      1.0000 0.74428  0.07403  0.74617  Biso   1.000  C
  C70      1.0000 0.81014  0.66082  0.94033  Biso   1.000  C
  C71      1.0000 0.70041  0.64766  0.96414  Biso   1.000  C
  H53      1.0000 0.61686  0.69674  0.88630  Biso   1.000  H
  H54      1.0000 0.87815  0.24724  0.77018  Biso   1.000  H
  C72      1.0000 0.90875  0.38836  0.83629  Biso   1.000  C
  H55      1.0000 0.92403  0.55050  0.88501  Biso   1.000  H
  H56      1.0000 0.86572  0.73942  0.84877  Biso   1.000  H
  H57      1.0000 0.79596  0.74573  0.78668  Biso   1.000  H
  H58      1.0000 0.59253  0.10118  0.77401  Biso   1.000  H
  C73      1.0000 0.67900  0.03693  0.84519  Biso   1.000  C
  O12      1.0000 0.77584  0.08939  0.69666  Biso   1.000  O
  C74      1.0000 0.78156  0.02943  0.80736  Biso   1.000  C
  H59      1.0000 0.86004  0.65680  0.95530  Biso   1.000  H
  C75      1.0000 0.77297  0.64007  0.98527  Biso   1.000  C
  O13      1.0000 0.66540  0.62453  0.01067  Biso   1.000  O
  O14      1.0000 0.96290  0.32145  0.87765  Biso   1.000  O
  C76      1.0000 0.64003  0.01581  0.89634  Biso   1.000  C
  C77      1.0000 0.75089  0.01170  0.85826  Biso   1.000  C
  C78      1.0000 0.75826  0.99059  0.64959  Biso   1.000  C
  H60      1.0000 0.82982  0.00978  0.81537  Biso   1.000  H
  H61      1.0000 0.79710  0.62078  0.03021  Biso   1.000  H
  C79      1.0000 0.59787  0.56786  0.98850  Biso   1.000  C
  C80      1.0000 0.98997  0.35664  0.94530  Biso   1.000  C
  C81      1.0000 0.63123  0.13070  0.93337  Biso   1.000  C
  H62      1.0000 0.66597  0.95430  0.92900  Biso   1.000  H
  H63      1.0000 0.59304  0.98181  0.87357  Biso   1.000  H
  C82      1.0000 0.79831  0.96984  0.92557  Biso   1.000  C
  H64      1.0000 0.77355  0.01088  0.61067  Biso   1.000  H
  H65      1.0000 0.70735  0.97770  0.63557  Biso   1.000  H
  H66      1.0000 0.78196  0.91591  0.67037  Biso   1.000  H
  O15      1.0000 0.59986  0.45755  0.02429  Biso   1.000  O
  H67      1.0000 0.58555  0.55050  0.94028  Biso   1.000  H
  H68      1.0000 0.56175  0.62343  0.99611  Biso   1.000  H
  O16      1.0000 0.99744  0.25235  0.98577  Biso   1.000  O
  H69      1.0000 0.95764  0.41532  0.95669  Biso   1.000  H
  H70      1.0000 0.03616  0.39704  0.95291  Biso   1.000  H
  C83      1.0000 0.67891  0.16653  0.99447  Biso   1.000  C
  C84      1.0000 0.57213  0.20382  0.90514  Biso   1.000  C
  C85      1.0000 0.83506  0.07550  0.96867  Biso   1.000  C
  H71      1.0000 0.83402  0.91290  0.91871  Biso   1.000  H
  H72      1.0000 0.76985  0.92469  0.94908  Biso   1.000  H
  C86      1.0000 0.61073  0.35152  0.99253  Biso   1.000  C
  C87      1.0000 0.93449  0.21461  0.99546  Biso   1.000  C
  C88      1.0000 0.66740  0.27740  0.02260  Biso   1.000  C
  C89      1.0000 0.74308  0.09222  0.03115  Biso   1.000  C
  C90      1.0000 0.56082  0.31249  0.93407  Biso   1.000  C
  H73      1.0000 0.53876  0.17795  0.86497  Biso   1.000  H
  C91      1.0000 0.89740  0.11891  0.95877  Biso   1.000  C
  C92      1.0000 0.81025  0.13116  0.01668  Biso   1.000  C
  C93      1.0000 0.91066  0.27072  0.04437  Biso   1.000  C
  H74      1.0000 0.69949  0.30244  0.06366  Biso   1.000  H
  H75      1.0000 0.75009  0.09917  0.07957  Biso   1.000  H
  H76      1.0000 0.73399  0.00512  0.01887  Biso   1.000  H
  O17      1.0000 0.50357  0.38717  0.91026  Biso   1.000  O
  H77      1.0000 0.91451  0.08144  0.92597  Biso   1.000  H
  C94      1.0000 0.84875  0.22813  0.05436  Biso   1.000  C
  O18      1.0000 0.95113  0.36313  0.07972  Biso   1.000  O
  C95      1.0000 0.44650  0.33918  0.85821  Biso   1.000  C
  H78      1.0000 0.83206  0.26552  0.08737  Biso   1.000  H
  C96      1.0000 0.93315  0.40728  0.13618  Biso   1.000  C
  H79      1.0000 0.43123  0.26140  0.87248  Biso   1.000  H
  H80      1.0000 0.40735  0.39731  0.84778  Biso   1.000  H
  H81      1.0000 0.46166  0.32584  0.81860  Biso   1.000  H
  H82      1.0000 0.93307  0.33918  0.16636  Biso   1.000  H
  H83      1.0000 0.96770  0.46851  0.15940  Biso   1.000  H
  H84      1.0000 0.88640  0.44457  0.12167  Biso   1.000  H
  C97      1.0000 0.63124  0.36934  0.43336  Biso   1.000  C
  C98      1.0000 0.57215  0.29623  0.40517  Biso   1.000  C
  C99      1.0000 0.67892  0.33352  0.49445  Biso   1.000  C
  C100     1.0000 0.64006  0.48423  0.39637  Biso   1.000  C
  C101     1.0000 0.56088  0.18746  0.43405  Biso   1.000  C
  H85      1.0000 0.53879  0.32200  0.36501  Biso   1.000  H
  C102     1.0000 0.66736  0.22256  0.52258  Biso   1.000  C
  C103     1.0000 0.74305  0.40782  0.53118  Biso   1.000  C
  H86      1.0000 0.66598  0.54575  0.42898  Biso   1.000  H
  H87      1.0000 0.59306  0.51823  0.37361  Biso   1.000  H
  C104     1.0000 0.67901  0.46312  0.34517  Biso   1.000  C
  O19      1.0000 0.50357  0.11279  0.41024  Biso   1.000  O
  C105     1.0000 0.61075  0.14852  0.49256  Biso   1.000  C
  H88      1.0000 0.69946  0.19761  0.56369  Biso   1.000  H
  C106     1.0000 0.81021  0.36880  0.51667  Biso   1.000  C
  H89      1.0000 0.75007  0.40079  0.57960  Biso   1.000  H
  H90      1.0000 0.73397  0.49493  0.51891  Biso   1.000  H
  C107     1.0000 0.64119  0.41642  0.28289  Biso   1.000  C
  C108     1.0000 0.75091  0.48826  0.35830  Biso   1.000  C
  C109     1.0000 0.44651  0.16077  0.35820  Biso   1.000  C
  O20      1.0000 0.59984  0.04250  0.52432  Biso   1.000  O
  C110     1.0000 0.83507  0.42446  0.46865  Biso   1.000  C
  C111     1.0000 0.84871  0.27191  0.55435  Biso   1.000  C
  H91      1.0000 0.59259  0.39878  0.27399  Biso   1.000  H
  C112     1.0000 0.67319  0.39521  0.23398  Biso   1.000  C
  C113     1.0000 0.78158  0.47062  0.30740  Biso   1.000  C
  C114     1.0000 0.79832  0.53021  0.42555  Biso   1.000  C
  H92      1.0000 0.43130  0.23864  0.37251  Biso   1.000  H
  H93      1.0000 0.40737  0.10273  0.34781  Biso   1.000  H
  H94      1.0000 0.46167  0.17421  0.31858  Biso   1.000  H
  C115     1.0000 0.59788  0.93209  0.48848  Biso   1.000  C
  C116     1.0000 0.89748  0.38114  0.45881  Biso   1.000  C
  H95      1.0000 0.83208  0.23453  0.58740  Biso   1.000  H
  C117     1.0000 0.91064  0.22932  0.54441  Biso   1.000  C
  O21      1.0000 0.64262  0.34412  0.17209  Biso   1.000  O
  C118     1.0000 0.74434  0.42601  0.24616  Biso   1.000  C
  H96      1.0000 0.82985  0.49017  0.31540  Biso   1.000  H
  H97      1.0000 0.83408  0.58706  0.41869  Biso   1.000  H
  H98      1.0000 0.76988  0.57527  0.44911  Biso   1.000  H
  O22      1.0000 0.66536  0.87551  0.51065  Biso   1.000  O
  H99      1.0000 0.58558  0.94946  0.44032  Biso   1.000  H
  H100     1.0000 0.56176  0.87661  0.49609  Biso   1.000  H
  H101     1.0000 0.91459  0.41861  0.42600  Biso   1.000  H
  C119     1.0000 0.93451  0.28544  0.49549  Biso   1.000  C
  O23      1.0000 0.95111  0.13682  0.57975  Biso   1.000  O
  C120     1.0000 0.57030  0.31908  0.14917  Biso   1.000  C
  O24      1.0000 0.77585  0.41057  0.19665  Biso   1.000  O
  C121     1.0000 0.70042  0.85230  0.46413  Biso   1.000  C
  O25      1.0000 0.99750  0.24769  0.48575  Biso   1.000  O
  C122     1.0000 0.93316  0.09268  0.63617  Biso   1.000  C
  O26      1.0000 0.54510  0.23718  0.18879  Biso   1.000  O
  H102     1.0000 0.55929  0.28498  0.10369  Biso   1.000  H
  H103     1.0000 0.54437  0.39722  0.14599  Biso   1.000  H
  C123     1.0000 0.75829  0.50937  0.14962  Biso   1.000  C
  C124     1.0000 0.77298  0.85988  0.48525  Biso   1.000  C
  C125     1.0000 0.66623  0.81638  0.39951  Biso   1.000  C
  C126     1.0000 0.99000  0.14341  0.44534  Biso   1.000  C
  H104     1.0000 0.93305  0.16077  0.66639  Biso   1.000  H
  H105     1.0000 0.96766  0.03153  0.65938  Biso   1.000  H
  H106     1.0000 0.88637  0.05539  0.62170  Biso   1.000  H
  C127     1.0000 0.57409  0.12193  0.20311  Biso   1.000  C
  H107     1.0000 0.70738  0.52226  0.13560  Biso   1.000  H
  H108     1.0000 0.77357  0.48908  0.11070  Biso   1.000  H
  H109     1.0000 0.78199  0.58413  0.17040  Biso   1.000  H
  C128     1.0000 0.81021  0.83923  0.44037  Biso   1.000  C
  H110     1.0000 0.79706  0.87917  0.53019  Biso   1.000  H
  H111     1.0000 0.61687  0.80331  0.38628  Biso   1.000  H
  C129     1.0000 0.70363  0.79929  0.35328  Biso   1.000  C
  O27      1.0000 0.96291  0.17859  0.37763  Biso   1.000  O
  H112     1.0000 0.95765  0.08473  0.45667  Biso   1.000  H
  H113     1.0000 0.03617  0.10301  0.45289  Biso   1.000  H
  C130     1.0000 0.63407  0.08052  0.18954  Biso   1.000  C
  C131     1.0000 0.53891  0.04543  0.23507  Biso   1.000  C
  H114     1.0000 0.86005  0.84316  0.45528  Biso   1.000  H
  C132     1.0000 0.77629  0.81263  0.37341  Biso   1.000  C
  C133     1.0000 0.66042  0.77260  0.28200  Biso   1.000  C
  C134     1.0000 0.90876  0.11160  0.33628  Biso   1.000  C
  C135     1.0000 0.66261  0.96518  0.21230  Biso   1.000  C
  H115     1.0000 0.65619  0.13034  0.16468  Biso   1.000  H
  C136     1.0000 0.56605  0.93182  0.25645  Biso   1.000  C
  H116     1.0000 0.49617  0.07138  0.24208  Biso   1.000  H
  C137     1.0000 0.82121  0.80303  0.32619  Biso   1.000  C
  H117     1.0000 0.62206  0.71483  0.28170  Biso   1.000  H
  H118     1.0000 0.69057  0.73421  0.25779  Biso   1.000  H
  C138     1.0000 0.62943  0.89096  0.24745  Biso   1.000  C
  C139     1.0000 0.89447  0.99123  0.34761  Biso   1.000  C
  C140     1.0000 0.86813  0.17083  0.27911  Biso   1.000  C
  C141     1.0000 0.73118  0.93017  0.19908  Biso   1.000  C
  H119     1.0000 0.54128  0.87972  0.27782  Biso   1.000  H
  H120     1.0000 0.86575  0.76063  0.34880  Biso   1.000  H
  H121     1.0000 0.79599  0.75432  0.28672  Biso   1.000  H
  C142     1.0000 0.83681  0.92962  0.30451  Biso   1.000  C
  H122     1.0000 0.92404  0.94946  0.38499  Biso   1.000  H
  C143     1.0000 0.81310  0.10840  0.23577  Biso   1.000  C
  H123     1.0000 0.87817  0.25281  0.27021  Biso   1.000  H
  C144     1.0000 0.79553  0.98848  0.24750  Biso   1.000  C
  H124     1.0000 0.73638  0.84023  0.20192  Biso   1.000  H
  H125     1.0000 0.72880  0.95512  0.15330  Biso   1.000  H
  H126     1.0000 0.78606  0.14843  0.19640  Biso   1.000  H
  C145     1.0000 0.36586  0.58048  0.31043  Biso   1.000  C
  C146     1.0000 0.33737  0.46522  0.28766  Biso   1.000  C
  C147     1.0000 0.42589  0.62188  0.29686  Biso   1.000  C
  H127     1.0000 0.34379  0.63029  0.33528  Biso   1.000  H
  C148     1.0000 0.37051  0.39101  0.25257  Biso   1.000  C
  C149     1.0000 0.26881  0.43022  0.30093  Biso   1.000  C
  C150     1.0000 0.46108  0.54538  0.26495  Biso   1.000  C
  O28      1.0000 0.45489  0.73723  0.31122  Biso   1.000  O
  C151     1.0000 0.33957  0.27264  0.21802  Biso   1.000  C
  C152     1.0000 0.43394  0.43177  0.24357  Biso   1.000  C
  C153     1.0000 0.20440  0.48853  0.25247  Biso   1.000  C
  H128     1.0000 0.26356  0.34019  0.29810  Biso   1.000  H
  H129     1.0000 0.27119  0.45508  0.34672  Biso   1.000  H
  H130     1.0000 0.50376  0.57143  0.25789  Biso   1.000  H
  C154     1.0000 0.42964  0.81912  0.35084  Biso   1.000  C
  H131     1.0000 0.37788  0.21479  0.21832  Biso   1.000  H
  H132     1.0000 0.30935  0.23417  0.24218  Biso   1.000  H
  C155     1.0000 0.29636  0.29933  0.14674  Biso   1.000  C
  H133     1.0000 0.45866  0.37967  0.22220  Biso   1.000  H
  C156     1.0000 0.16312  0.42958  0.19545  Biso   1.000  C
  C157     1.0000 0.18689  0.60845  0.26425  Biso   1.000  C
  O29      1.0000 0.35735  0.84416  0.32788  Biso   1.000  O
  H134     1.0000 0.44069  0.78503  0.39627  Biso   1.000  H
  H135     1.0000 0.45556  0.89718  0.35397  Biso   1.000  H
  C158     1.0000 0.22364  0.31259  0.12656  Biso   1.000  C
  C159     1.0000 0.33375  0.31642  0.10046  Biso   1.000  C
  C160     1.0000 0.17878  0.30299  0.17383  Biso   1.000  C
  C161     1.0000 0.10547  0.49118  0.15241  Biso   1.000  C
  H136     1.0000 0.21388  0.64839  0.30362  Biso   1.000  H
  C162     1.0000 0.13184  0.67078  0.22085  Biso   1.000  C
  C163     1.0000 0.32673  0.89516  0.26599  Biso   1.000  C
  C164     1.0000 0.18978  0.33918  0.05965  Biso   1.000  C
  C165     1.0000 0.29951  0.35234  0.03584  Biso   1.000  C
  H137     1.0000 0.38311  0.30326  0.11368  Biso   1.000  H
  H138     1.0000 0.13419  0.26058  0.15121  Biso   1.000  H
  H139     1.0000 0.20400  0.25427  0.21330  Biso   1.000  H
  H140     1.0000 0.07588  0.44950  0.11498  Biso   1.000  H
  C166     1.0000 0.09122  0.61164  0.16369  Biso   1.000  C
  H141     1.0000 0.12177  0.75276  0.22980  Biso   1.000  H
  C167     1.0000 0.35875  0.91637  0.21713  Biso   1.000  C
  C168     1.0000 0.25565  0.92597  0.25386  Biso   1.000  C
  H142     1.0000 0.13987  0.34320  0.04469  Biso   1.000  H
  C169     1.0000 0.22694  0.35993  0.01471  Biso   1.000  C
  O30      1.0000 0.33457  0.37547  0.98931  Biso   1.000  O
  O31      1.0000 0.03701  0.67855  0.12233  Biso   1.000  O
  H143     1.0000 0.40738  0.89882  0.22597  Biso   1.000  H
  C170     1.0000 0.32096  0.96307  0.15479  Biso   1.000  C
  O32      1.0000 0.22407  0.91061  0.30332  Biso   1.000  O
  C171     1.0000 0.21836  0.97057  0.19262  Biso   1.000  C
  H144     1.0000 0.20286  0.37922  0.96978  Biso   1.000  H
  C172     1.0000 0.40209  0.43214  0.01148  Biso   1.000  C
  C173     1.0000 0.00994  0.64336  0.05468  Biso   1.000  C
  C174     1.0000 0.35988  0.98419  0.10364  Biso   1.000  C
  C175     1.0000 0.24903  0.98830  0.14172  Biso   1.000  C
  C176     1.0000 0.24165  0.00941  0.35039  Biso   1.000  C
  H145     1.0000 0.17009  0.99022  0.18462  Biso   1.000  H
  H146     1.0000 0.41441  0.44950  0.05970  Biso   1.000  H
  H147     1.0000 0.43817  0.37657  0.00388  Biso   1.000  H
  O33      1.0000 0.40010  0.54245  0.97569  Biso   1.000  O
  O34      1.0000 0.00247  0.74765  0.01422  Biso   1.000  O
  H148     1.0000 0.04227  0.58468  0.04330  Biso   1.000  H
  H149     1.0000 0.96382  0.60296  0.04712  Biso   1.000  H
  C177     1.0000 0.36869  0.86930  0.06661  Biso   1.000  C
  H150     1.0000 0.33400  0.04570  0.07098  Biso   1.000  H
  H151     1.0000 0.40688  0.01819  0.12641  Biso   1.000  H
  C178     1.0000 0.20165  0.03016  0.07441  Biso   1.000  C
  H152     1.0000 0.22637  0.98912  0.38932  Biso   1.000  H
  H153     1.0000 0.29256  0.02230  0.36441  Biso   1.000  H
  H154     1.0000 0.21800  0.08409  0.32962  Biso   1.000  H
  C179     1.0000 0.38919  0.64848  0.00746  Biso   1.000  C
  C180     1.0000 0.06548  0.78539  0.00452  Biso   1.000  C
  C181     1.0000 0.42784  0.79618  0.09484  Biso   1.000  C
  C182     1.0000 0.32106  0.83347  0.00552  Biso   1.000  C
  C183     1.0000 0.16491  0.92450  0.03132  Biso   1.000  C
  H155     1.0000 0.16591  0.08710  0.08132  Biso   1.000  H
  H156     1.0000 0.23011  0.07531  0.05090  Biso   1.000  H
  C184     1.0000 0.43911  0.68751  0.06596  Biso   1.000  C
  C185     1.0000 0.33257  0.72260  0.97738  Biso   1.000  C
  C186     1.0000 0.10251  0.88109  0.04121  Biso   1.000  C
  C187     1.0000 0.08930  0.72928  0.95561  Biso   1.000  C
  H157     1.0000 0.46120  0.82205  0.13501  Biso   1.000  H
  C188     1.0000 0.25689  0.90778  0.96883  Biso   1.000  C
  C189     1.0000 0.18966  0.86884  0.98330  Biso   1.000  C
  O35      1.0000 0.49640  0.61283  0.08972  Biso   1.000  O
  H158     1.0000 0.30048  0.69756  0.93632  Biso   1.000  H
  H159     1.0000 0.08540  0.91856  0.07402  Biso   1.000  H
  O36      1.0000 0.04883  0.63687  0.92027  Biso   1.000  O
  C190     1.0000 0.15117  0.77187  0.94562  Biso   1.000  C
  H160     1.0000 0.24987  0.90083  0.92042  Biso   1.000  H
  H161     1.0000 0.26597  0.99488  0.98111  Biso   1.000  H
  C191     1.0000 0.55342  0.66082  0.14177  Biso   1.000  C
  C192     1.0000 0.06676  0.59272  0.86380  Biso   1.000  C
  H162     1.0000 0.16786  0.73448  0.91261  Biso   1.000  H
  H163     1.0000 0.56869  0.73860  0.12750  Biso   1.000  H
  H164     1.0000 0.59257  0.60269  0.15221  Biso   1.000  H
  H165     1.0000 0.53830  0.67416  0.18139  Biso   1.000  H
  H166     1.0000 0.06684  0.66082  0.83363  Biso   1.000  H
  H167     1.0000 0.03227  0.53149  0.84059  Biso   1.000  H
  H168     1.0000 0.11357  0.55543  0.87831  Biso   1.000  H
