data_image0
_cell_length_a       15.419
_cell_length_b       15.464
_cell_length_c       15.612
_cell_angle_alpha    102.72
_cell_angle_beta     102.01
_cell_angle_gamma    104.31

_symmetry_space_group_name_H-M    "P 1"
_symmetry_int_tables_number       1

loop_
  _symmetry_equiv_pos_as_xyz
  'x, y, z'

loop_
  _atom_site_label
  _atom_site_occupancy
  _atom_site_fract_x
  _atom_site_fract_y
  _atom_site_fract_z
  _atom_site_thermal_displace_type
  _atom_site_B_iso_or_equiv
  _atom_site_type_symbol
  O1       1.0000 0.47028  0.59793  0.47062  Biso   1.000  O
  C1       1.0000 0.43428  0.57380  0.54177  Biso   1.000  C
  C2       1.0000 0.50546  0.69620  0.48627  Biso   1.000  C
  O2       1.0000 0.36230  0.61370  0.55613  Biso   1.000  O
  H1       1.0000 0.41007  0.50449  0.52749  Biso   1.000  H
  C3       1.0000 0.51197  0.61288  0.63056  Biso   1.000  C
  C4       1.0000 0.58049  0.74480  0.57588  Biso   1.000  C
  H2       1.0000 0.45208  0.72129  0.49058  Biso   1.000  H
  C5       1.0000 0.53690  0.71962  0.40602  Biso   1.000  C
  C6       1.0000 0.26987  0.55240  0.53248  Biso   1.000  C
  H3       1.0000 0.56447  0.58729  0.62359  Biso   1.000  H
  O3       1.0000 0.47709  0.58583  0.70063  Biso   1.000  O
  C7       1.0000 0.54720  0.71888  0.65463  Biso   1.000  C
  H4       1.0000 0.63447  0.72091  0.57178  Biso   1.000  H
  O4       1.0000 0.61531  0.84343  0.60261  Biso   1.000  O
  H5       1.0000 0.48839  0.68192  0.34847  Biso   1.000  H
  H6       1.0000 0.54418  0.78608  0.41101  Biso   1.000  H
  O5       1.0000 0.62209  0.70228  0.40288  Biso   1.000  O
  C8       1.0000 0.20881  0.56117  0.44690  Biso   1.000  C
  C9       1.0000 0.22879  0.57258  0.61231  Biso   1.000  C
  H7       1.0000 0.27252  0.48691  0.52051  Biso   1.000  H
  H8       1.0000 0.43378  0.60821  0.70733  Biso   1.000  H
  H9       1.0000 0.49556  0.74531  0.66378  Biso   1.000  H
  O6       1.0000 0.62250  0.75437  0.73569  Biso   1.000  O
  C10      1.0000 0.70803  0.88252  0.59933  Biso   1.000  C
  H10      1.0000 0.63747  0.71558  0.35770  Biso   1.000  H
  C11      1.0000 0.23886  0.52331  0.36316  Biso   1.000  C
  H11      1.0000 0.21303  0.62812  0.45401  Biso   1.000  H
  O7       1.0000 0.11391  0.50698  0.42837  Biso   1.000  O
  C12      1.0000 0.12778  0.51109  0.58388  Biso   1.000  C
  H12      1.0000 0.23119  0.63947  0.62906  Biso   1.000  H
  O8       1.0000 0.28371  0.55451  0.68709  Biso   1.000  O
  H13      1.0000 0.60859  0.78963  0.77623  Biso   1.000  H
  H14      1.0000 0.73897  0.83277  0.59078  Biso   1.000  H
  C13      1.0000 0.75693  0.95364  0.69201  Biso   1.000  C
  O9       1.0000 0.70642  0.92262  0.52571  Biso   1.000  O
  O10      1.0000 0.23843  0.42944  0.35093  Biso   1.000  O
  H15      1.0000 0.19660  0.52748  0.30821  Biso   1.000  H
  H16      1.0000 0.30248  0.56249  0.36938  Biso   1.000  H
  C14      1.0000 0.07418  0.53057  0.50138  Biso   1.000  C
  H17      1.0000 0.12447  0.44387  0.56966  Biso   1.000  H
  O11      1.0000 0.08530  0.53392  0.65428  Biso   1.000  O
  H18      1.0000 0.27029  0.57627  0.73508  Biso   1.000  H
  H19      1.0000 0.82271  0.98228  0.69229  Biso   1.000  H
  O12      1.0000 0.76020  0.91002  0.76317  Biso   1.000  O
  C15      1.0000 0.71227  0.03123  0.70521  Biso   1.000  C
  C16      1.0000 0.66908  0.99822  0.53596  Biso   1.000  C
  H20      1.0000 0.23891  0.40628  0.29700  Biso   1.000  H
  O13      1.0000 0.07967  0.62648  0.52790  Biso   1.000  O
  H21      1.0000 0.00750  0.49137  0.48347  Biso   1.000  H
  H22      1.0000 0.06356  0.57762  0.64806  Biso   1.000  H
  H23      1.0000 0.81587  0.92132  0.79250  Biso   1.000  H
  H24      1.0000 0.64641  0.00428  0.70569  Biso   1.000  H
  O14      1.0000 0.76198  0.09842  0.79038  Biso   1.000  O
  C17      1.0000 0.71216  0.07448  0.62640  Biso   1.000  C
  H25      1.0000 0.60032  0.97382  0.52646  Biso   1.000  H
  C18      1.0000 0.68725  0.03384  0.45592  Biso   1.000  C
  C19      1.0000 0.99653  0.65193  0.50719  Biso   1.000  C
  H26      1.0000 0.74247  0.08120  0.83221  Biso   1.000  H
  H27      1.0000 0.77719  0.11027  0.63009  Biso   1.000  H
  O15      1.0000 0.65906  0.13627  0.64396  Biso   1.000  O
  H28      1.0000 0.65349  0.98412  0.39789  Biso   1.000  H
  H29      1.0000 0.66321  0.08744  0.45483  Biso   1.000  H
  O16      1.0000 0.78381  0.06172  0.46248  Biso   1.000  O
  C20      1.0000 0.99177  0.71473  0.59447  Biso   1.000  C
  H30      1.0000 0.94139  0.59436  0.48559  Biso   1.000  H
  C21      1.0000 0.99628  0.70091  0.43268  Biso   1.000  C
  C22      1.0000 0.69256  0.22828  0.63747  Biso   1.000  C
  H31      1.0000 0.79153  0.04562  0.41033  Biso   1.000  H
  H32      1.0000 0.05011  0.76882  0.61997  Biso   1.000  H
  C23      1.0000 0.90787  0.75012  0.57698  Biso   1.000  C
  O17      1.0000 0.98604  0.65997  0.65606  Biso   1.000  O
  H33      1.0000 0.05778  0.74893  0.44492  Biso   1.000  H
  O18      1.0000 0.92260  0.74050  0.42270  Biso   1.000  O
  C24      1.0000 0.97061  0.63039  0.33931  Biso   1.000  C
  H34      1.0000 0.75883  0.23802  0.63610  Biso   1.000  H
  C25      1.0000 0.69549  0.29589  0.72571  Biso   1.000  C
  O19      1.0000 0.64589  0.24337  0.55640  Biso   1.000  O
  C26      1.0000 0.90946  0.79680  0.50097  Biso   1.000  C
  H35      1.0000 0.85063  0.69494  0.55551  Biso   1.000  H
  O20      1.0000 0.90401  0.80978  0.65900  Biso   1.000  O
  H36      1.0000 0.00198  0.69508  0.70979  Biso   1.000  H
  H37      1.0000 0.00540  0.58477  0.34327  Biso   1.000  H
  H38      1.0000 0.90331  0.59608  0.32099  Biso   1.000  H
  O21      1.0000 0.99141  0.67410  0.27212  Biso   1.000  O
  H39      1.0000 0.73159  0.35989  0.72729  Biso   1.000  H
  O22      1.0000 0.74102  0.27417  0.80330  Biso   1.000  O
  C27      1.0000 0.59656  0.29549  0.72640  Biso   1.000  C
  C28      1.0000 0.55081  0.22770  0.55667  Biso   1.000  C
  H40      1.0000 0.85110  0.81393  0.48422  Biso   1.000  H
  O23      1.0000 0.98860  0.87821  0.53453  Biso   1.000  O
  H41      1.0000 0.86477  0.78002  0.68046  Biso   1.000  H
  H42      1.0000 0.94998  0.64667  0.22229  Biso   1.000  H
  H43      1.0000 0.76169  0.32212  0.84841  Biso   1.000  H
  H44      1.0000 0.56449  0.23187  0.72906  Biso   1.000  H
  O24      1.0000 0.59642  0.35812  0.80808  Biso   1.000  O
  C29      1.0000 0.54581  0.30264  0.63501  Biso   1.000  C
  H45      1.0000 0.52420  0.16450  0.56351  Biso   1.000  H
  C30      1.0000 0.49987  0.23498  0.46549  Biso   1.000  C
  C31      1.0000 0.97021  0.96327  0.52940  Biso   1.000  C
  H46      1.0000 0.61837  0.34129  0.85326  Biso   1.000  H
  H47      1.0000 0.57122  0.36602  0.62810  Biso   1.000  H
  O25      1.0000 0.45108  0.28419  0.63467  Biso   1.000  O
  H48      1.0000 0.51414  0.19443  0.41532  Biso   1.000  H
  H49      1.0000 0.43193  0.21370  0.45708  Biso   1.000  H
  O26      1.0000 0.52823  0.32899  0.46269  Biso   1.000  O
  C32      1.0000 0.02122  0.99968  0.46487  Biso   1.000  C
  H50      1.0000 0.90177  0.95378  0.50787  Biso   1.000  H
  C33      1.0000 0.01260  0.02939  0.62510  Biso   1.000  C
  C34      1.0000 0.41063  0.35679  0.63029  Biso   1.000  C
  H51      1.0000 0.58647  0.35088  0.48190  Biso   1.000  H
  C35      1.0000 0.97390  0.94449  0.36617  Biso   1.000  C
  H52      1.0000 0.08770  0.00084  0.48231  Biso   1.000  H
  O27      1.0000 0.01519  0.09137  0.47308  Biso   1.000  O
  O28      1.0000 0.98140  0.99802  0.69523  Biso   1.000  O
  C36      1.0000 0.01594  0.12863  0.62763  Biso   1.000  C
  H53      1.0000 0.07957  0.03161  0.63931  Biso   1.000  H
  C37      1.0000 0.36420  0.37264  0.70651  Biso   1.000  C
  O29      1.0000 0.34461  0.33108  0.54389  Biso   1.000  O
  H54      1.0000 0.46042  0.41541  0.63726  Biso   1.000  H
  H55      1.0000 0.01191  0.96950  0.32817  Biso   1.000  H
  H56      1.0000 0.97360  0.87918  0.35940  Biso   1.000  H
  O30      1.0000 0.88173  0.94402  0.33097  Biso   1.000  O
  C38      1.0000 0.06079  0.16069  0.55777  Biso   1.000  C
  H57      1.0000 0.02709  0.01062  0.74089  Biso   1.000  H
  H58      1.0000 0.94979  0.12913  0.61013  Biso   1.000  H
  O31      1.0000 0.05822  0.19069  0.71649  Biso   1.000  O
  C39      1.0000 0.28451  0.28642  0.69441  Biso   1.000  C
  H59      1.0000 0.33749  0.42483  0.70240  Biso   1.000  H
  O32      1.0000 0.43111  0.40001  0.79270  Biso   1.000  O
  C40      1.0000 0.26782  0.25080  0.52721  Biso   1.000  C
  H60      1.0000 0.87769  0.96191  0.28367  Biso   1.000  H
  O33      1.0000 0.15709  0.17030  0.58429  Biso   1.000  O
  H61      1.0000 0.05188  0.22161  0.55339  Biso   1.000  H
  H62      1.0000 0.06201  0.24543  0.71471  Biso   1.000  H
  C41      1.0000 0.21651  0.26207  0.60008  Biso   1.000  C
  H63      1.0000 0.31031  0.23353  0.69748  Biso   1.000  H
  O34      1.0000 0.24529  0.30479  0.76830  Biso   1.000  O
  H64      1.0000 0.41300  0.43177  0.83221  Biso   1.000  H
  H65      1.0000 0.29188  0.19662  0.52817  Biso   1.000  H
  C42      1.0000 0.20838  0.23462  0.43159  Biso   1.000  C
  H66      1.0000 0.18110  0.30780  0.59557  Biso   1.000  H
  H67      1.0000 0.28817  0.33019  0.81731  Biso   1.000  H
  H68      1.0000 0.24781  0.23393  0.38900  Biso   1.000  H
  H69      1.0000 0.16000  0.17320  0.41211  Biso   1.000  H
  O35      1.0000 0.16519  0.30528  0.42790  Biso   1.000  O
  H70      1.0000 0.16793  0.33433  0.48121  Biso   1.000  H
  O36      1.0000 0.41050  0.47572  0.28203  Biso   1.000  O
  C43      1.0000 0.40752  0.38190  0.27547  Biso   1.000  C
  H71      1.0000 0.39118  0.48092  0.22946  Biso   1.000  H
  C44      1.0000 0.34523  0.32943  0.17943  Biso   1.000  C
  H72      1.0000 0.38026  0.35989  0.32188  Biso   1.000  H
  H73      1.0000 0.47040  0.37468  0.28319  Biso   1.000  H
  O37      1.0000 0.25277  0.33270  0.17417  Biso   1.000  O
  C45      1.0000 0.38472  0.36712  0.10923  Biso   1.000  C
  H74      1.0000 0.34368  0.26280  0.16767  Biso   1.000  H
  C46      1.0000 0.19058  0.29429  0.08517  Biso   1.000  C
  C47      1.0000 0.31958  0.32360  0.01347  Biso   1.000  C
  H75      1.0000 0.39027  0.43489  0.12509  Biso   1.000  H
  O38      1.0000 0.47439  0.36119  0.10561  Biso   1.000  O
  O39      1.0000 0.17663  0.19653  0.05550  Biso   1.000  O
  H76      1.0000 0.12937  0.30457  0.08701  Biso   1.000  H
  C48      1.0000 0.22302  0.33149  0.01100  Biso   1.000  C
  H77      1.0000 0.31579  0.25662  0.99207  Biso   1.000  H
  O40      1.0000 0.34930  0.37073  0.95133  Biso   1.000  O
  C49      1.0000 0.55273  0.44194  0.14512  Biso   1.000  C
  C50      1.0000 0.08760  0.13170  0.04101  Biso   1.000  C
  H78      1.0000 0.22829  0.39932  0.02638  Biso   1.000  H
  O41      1.0000 0.15510  0.28691  0.92577  Biso   1.000  O
  H79      1.0000 0.39057  0.35117  0.93349  Biso   1.000  H
  H80      1.0000 0.53109  0.49799  0.15926  Biso   1.000  H
  C51      1.0000 0.60292  0.44699  0.07170  Biso   1.000  C
  O42      1.0000 0.60858  0.43577  0.22659  Biso   1.000  O
  H81      1.0000 0.04139  0.16698  0.04183  Biso   1.000  H
  C52      1.0000 0.08351  0.08078  0.11388  Biso   1.000  C
  C53      1.0000 0.06060  0.06371  0.94668  Biso   1.000  C
  H82      1.0000 0.17015  0.31242  0.88653  Biso   1.000  H
  H83      1.0000 0.65950  0.50289  0.09720  Biso   1.000  H
  C54      1.0000 0.63539  0.36149  0.04812  Biso   1.000  C
  O43      1.0000 0.54528  0.46008  0.99542  Biso   1.000  O
  C55      1.0000 0.64381  0.35918  0.20841  Biso   1.000  C
  H84      1.0000 0.13566  0.05308  0.12188  Biso   1.000  H
  C56      1.0000 0.09040  0.14840  0.20397  Biso   1.000  C
  O44      1.0000 0.99673  0.00980  0.09023  Biso   1.000  O
  C57      1.0000 0.96894  0.98944  0.92932  Biso   1.000  C
  H85      1.0000 0.10993  0.03231  0.94381  Biso   1.000  H
  O45      1.0000 0.05582  0.11033  0.87778  Biso   1.000  O
  H86      1.0000 0.58029  0.30419  0.02057  Biso   1.000  H
  C58      1.0000 0.69599  0.35441  0.13541  Biso   1.000  C
  O46      1.0000 0.69070  0.37048  0.98612  Biso   1.000  O
  H87      1.0000 0.53087  0.41296  0.95017  Biso   1.000  H
  H88      1.0000 0.58829  0.30207  0.18538  Biso   1.000  H
  C59      1.0000 0.70212  0.35208  0.29652  Biso   1.000  C
  H89      1.0000 0.08886  0.11410  0.25059  Biso   1.000  H
  H90      1.0000 0.15163  0.19714  0.22393  Biso   1.000  H
  O47      1.0000 0.02000  0.19303  0.20301  Biso   1.000  O
  C60      1.0000 0.97313  0.94192  0.00451  Biso   1.000  C
  O48      1.0000 0.93961  0.92217  0.84251  Biso   1.000  O
  H91      1.0000 0.92026  0.02158  0.93199  Biso   1.000  H
  H92      1.0000 0.07500  0.16810  0.90239  Biso   1.000  H
  H93      1.0000 0.75672  0.40551  0.15728  Biso   1.000  H
  O49      1.0000 0.71075  0.26583  0.11203  Biso   1.000  O
  H94      1.0000 0.65662  0.36614  0.93472  Biso   1.000  H
  H95      1.0000 0.66101  0.33482  0.33500  Biso   1.000  H
  H96      1.0000 0.73059  0.30190  0.28169  Biso   1.000  H
  O50      1.0000 0.77367  0.43678  0.34683  Biso   1.000  O
  H97      1.0000 0.00378  0.20191  0.15161  Biso   1.000  H
  H98      1.0000 0.91240  0.89347  0.99398  Biso   1.000  H
  O51      1.0000 0.04520  0.90049  0.00068  Biso   1.000  O
  H99      1.0000 0.93592  0.94911  0.80130  Biso   1.000  H
  C61      1.0000 0.80379  0.26112  0.13473  Biso   1.000  C
  H100     1.0000 0.80672  0.42882  0.39269  Biso   1.000  H
  C62      1.0000 0.02362  0.80520  0.99932  Biso   1.000  C
  H101     1.0000 0.84871  0.32523  0.15181  Biso   1.000  H
  C63      1.0000 0.81170  0.20317  0.04648  Biso   1.000  C
  O52      1.0000 0.82087  0.22151  0.20821  Biso   1.000  O
  H102     1.0000 0.95629  0.78026  0.99597  Biso   1.000  H
  C64      1.0000 0.04222  0.75493  0.91312  Biso   1.000  C
  C65      1.0000 0.08352  0.79369  0.08353  Biso   1.000  C
  H103     1.0000 0.87751  0.20186  0.06118  Biso   1.000  H
  C66      1.0000 0.75340  0.10177  0.02331  Biso   1.000  C
  O53      1.0000 0.80298  0.24241  0.97218  Biso   1.000  O
  C67      1.0000 0.76160  0.12838  0.18729  Biso   1.000  C
  O54      1.0000 0.97760  0.76042  0.83663  Biso   1.000  O
  C68      1.0000 0.03330  0.65442  0.90991  Biso   1.000  C
  H104     1.0000 0.10684  0.78692  0.91251  Biso   1.000  H
  H105     1.0000 0.15082  0.82538  0.09173  Biso   1.000  H
  O55      1.0000 0.06730  0.69647  0.07170  Biso   1.000  O
  C69      1.0000 0.05455  0.83268  0.16767  Biso   1.000  C
  H106     1.0000 0.68583  0.09692  0.00690  Biso   1.000  H
  C70      1.0000 0.77681  0.06583  0.10588  Biso   1.000  C
  O56      1.0000 0.77303  0.04653  0.94908  Biso   1.000  O
  H107     1.0000 0.85511  0.25940  0.96227  Biso   1.000  H
  H108     1.0000 0.69489  0.12657  0.17540  Biso   1.000  H
  C71      1.0000 0.79345  0.10587  0.27567  Biso   1.000  C
  H109     1.0000 0.00237  0.80539  0.81879  Biso   1.000  H
  H110     1.0000 0.96687  0.62438  0.90670  Biso   1.000  H
  C72      1.0000 0.09121  0.64700  0.99740  Biso   1.000  C
  O57      1.0000 0.04902  0.60419  0.83000  Biso   1.000  O
  H111     1.0000 0.98981  0.79562  0.16008  Biso   1.000  H
  H112     1.0000 0.05471  0.89730  0.17027  Biso   1.000  H
  O58      1.0000 0.11081  0.83374  0.25243  Biso   1.000  O
  H113     1.0000 0.84161  0.06152  0.11900  Biso   1.000  H
  O59      1.0000 0.70961  0.97717  0.08271  Biso   1.000  O
  H114     1.0000 0.76160  0.06642  0.90342  Biso   1.000  H
  H115     1.0000 0.79007  0.15391  0.32748  Biso   1.000  H
  H116     1.0000 0.75219  0.04482  0.27389  Biso   1.000  H
  O60      1.0000 0.88640  0.10303  0.28832  Biso   1.000  O
  O61      1.0000 0.18458  0.68843  0.99781  Biso   1.000  O
  H117     1.0000 0.08027  0.58029  0.99658  Biso   1.000  H
  H118     1.0000 0.03509  0.54738  0.82700  Biso   1.000  H
  H119     1.0000 0.07751  0.82451  0.28777  Biso   1.000  H
  C73      1.0000 0.74832  0.90432  0.09330  Biso   1.000  C
  H120     1.0000 0.91887  0.13698  0.34061  Biso   1.000  H
  C74      1.0000 0.24778  0.63521  0.00362  Biso   1.000  C
  H121     1.0000 0.81781  0.92908  0.11203  Biso   1.000  H
  C75      1.0000 0.71476  0.82818  0.00328  Biso   1.000  C
  O62      1.0000 0.71757  0.86660  0.16043  Biso   1.000  O
  C76      1.0000 0.29091  0.62788  0.92392  Biso   1.000  C
  H122     1.0000 0.21197  0.57081  0.00089  Biso   1.000  H
  C77      1.0000 0.32262  0.67613  0.09460  Biso   1.000  C
  O63      1.0000 0.74109  0.86128  0.93199  Biso   1.000  O
  C78      1.0000 0.61021  0.78186  0.97587  Biso   1.000  C
  H123     1.0000 0.74531  0.77949  0.01162  Biso   1.000  H
  C79      1.0000 0.61932  0.83269  0.14122  Biso   1.000  C
  C80      1.0000 0.36501  0.57900  0.93821  Biso   1.000  C
  H124     1.0000 0.32062  0.69188  0.92071  Biso   1.000  H
  O64      1.0000 0.21877  0.57829  0.84210  Biso   1.000  O
  H125     1.0000 0.35296  0.74286  0.10007  Biso   1.000  H
  O65      1.0000 0.39420  0.63257  0.10451  Biso   1.000  O
  C81      1.0000 0.27850  0.67412  0.17321  Biso   1.000  C
  H126     1.0000 0.75217  0.81908  0.89603  Biso   1.000  H
  H127     1.0000 0.57937  0.82970  0.96439  Biso   1.000  H
  O66      1.0000 0.58049  0.70757  0.89357  Biso   1.000  O
  C82      1.0000 0.58246  0.75108  0.05489  Biso   1.000  C
  H128     1.0000 0.58983  0.88272  0.13541  Biso   1.000  H
  C83      1.0000 0.60947  0.80163  0.22523  Biso   1.000  C
  H129     1.0000 0.33429  0.51373  0.93752  Biso   1.000  H
  O67      1.0000 0.41500  0.57633  0.87081  Biso   1.000  O
  C84      1.0000 0.43521  0.62973  0.03103  Biso   1.000  C
  H130     1.0000 0.22472  0.60619  0.80212  Biso   1.000  H
  H131     1.0000 0.32617  0.70730  0.23240  Biso   1.000  H
  H132     1.0000 0.22951  0.70531  0.16781  Biso   1.000  H
  O68      1.0000 0.23910  0.57952  0.16897  Biso   1.000  O
  H133     1.0000 0.57828  0.72940  0.84880  Biso   1.000  H
  O69      1.0000 0.48366  0.72157  0.03288  Biso   1.000  O
  H134     1.0000 0.60706  0.69901  0.06487  Biso   1.000  H
  H135     1.0000 0.64432  0.85452  0.28039  Biso   1.000  H
  H136     1.0000 0.54298  0.78460  0.22427  Biso   1.000  H
  O70      1.0000 0.64236  0.72481  0.23158  Biso   1.000  O
  H137     1.0000 0.37744  0.54910  0.81873  Biso   1.000  H
  H138     1.0000 0.48190  0.59531  0.03978  Biso   1.000  H
  H139     1.0000 0.23010  0.57630  0.21962  Biso   1.000  H
  H140     1.0000 0.65063  0.70061  0.18141  Biso   1.000  H
