data_image0
_cell_length_a       17.098
_cell_length_b       11.459
_cell_length_c       21.096
_cell_angle_alpha    90
_cell_angle_beta     113.54
_cell_angle_gamma    90

_symmetry_space_group_name_H-M    "P 1"
_symmetry_int_tables_number       1

loop_
  _symmetry_equiv_pos_as_xyz
  'x, y, z'

loop_
  _atom_site_label
  _atom_site_occupancy
  _atom_site_fract_x
  _atom_site_fract_y
  _atom_site_fract_z
  _atom_site_thermal_displace_type
  _atom_site_B_iso_or_equiv
  _atom_site_type_symbol
  C1       1.0000 0.49294  0.40728  0.41426  Biso   1.000  C
  C2       1.0000 0.40920  0.37944  0.40170  Biso   1.000  C
  H1       1.0000 0.51491  0.48172  0.43272  Biso   1.000  H
  C3       1.0000 0.54505  0.32778  0.40025  Biso   1.000  C
  C4       1.0000 0.34601  0.46854  0.40568  Biso   1.000  C
  C5       1.0000 0.38024  0.26730  0.37853  Biso   1.000  C
  C6       1.0000 0.51532  0.21817  0.37362  Biso   1.000  C
  H2       1.0000 0.60216  0.34881  0.40909  Biso   1.000  H
  N1       1.0000 0.28440  0.49542  0.33572  Biso   1.000  N
  H3       1.0000 0.31591  0.43712  0.43350  Biso   1.000  H
  H4       1.0000 0.37638  0.54045  0.42838  Biso   1.000  H
  C7       1.0000 0.43255  0.18771  0.36530  Biso   1.000  C
  H5       1.0000 0.32388  0.24522  0.37181  Biso   1.000  H
  C8       1.0000 0.56824  0.14015  0.34891  Biso   1.000  C
  C9       1.0000 0.19846  0.51977  0.33117  Biso   1.000  C
  C10      1.0000 0.31506  0.57719  0.29730  Biso   1.000  C
  H6       1.0000 0.41201  0.11127  0.35030  Biso   1.000  H
  H7       1.0000 0.62949  0.15481  0.37683  Biso   1.000  H
  H8       1.0000 0.55618  0.05751  0.35542  Biso   1.000  H
  O1       1.0000 0.54974  0.16101  0.27683  Biso   1.000  O
  C11      1.0000 0.14962  0.40693  0.32440  Biso   1.000  C
  H9       1.0000 0.16799  0.57012  0.29058  Biso   1.000  H
  H10      1.0000 0.20192  0.56200  0.37321  Biso   1.000  H
  C12      1.0000 0.27174  0.54996  0.22114  Biso   1.000  C
  H11      1.0000 0.37763  0.56977  0.31282  Biso   1.000  H
  H12      1.0000 0.30191  0.65835  0.30599  Biso   1.000  H
  C13      1.0000 0.47412  0.11938  0.22817  Biso   1.000  C
  C14      1.0000 0.13443  0.33502  0.26721  Biso   1.000  C
  C15      1.0000 0.12076  0.37089  0.37373  Biso   1.000  C
  C16      1.0000 0.20054  0.61122  0.17730  Biso   1.000  C
  C17      1.0000 0.29951  0.45528  0.19395  Biso   1.000  C
  C18      1.0000 0.42984  0.02391  0.23707  Biso   1.000  C
  C19      1.0000 0.44322  0.17541  0.16370  Biso   1.000  C
  H13      1.0000 0.15279  0.35911  0.23231  Biso   1.000  H
  C20      1.0000 0.09291  0.22934  0.26070  Biso   1.000  C
  C21      1.0000 0.07959  0.26372  0.36768  Biso   1.000  C
  H14      1.0000 0.12913  0.41967  0.41230  Biso   1.000  H
  C22      1.0000 0.15648  0.57745  0.10889  Biso   1.000  C
  H15      1.0000 0.18160  0.67728  0.19441  Biso   1.000  H
  H16      1.0000 0.34847  0.41269  0.22280  Biso   1.000  H
  C23      1.0000 0.25673  0.42281  0.12564  Biso   1.000  C
  C24      1.0000 0.35289  0.98569  0.18583  Biso   1.000  C
  H17      1.0000 0.45273  0.98281  0.27973  Biso   1.000  H
  C25      1.0000 0.36861  0.13622  0.11210  Biso   1.000  C
  O2       1.0000 0.49203  0.26625  0.15605  Biso   1.000  O
  C26      1.0000 0.06605  0.19120  0.31183  Biso   1.000  C
  H18      1.0000 0.08251  0.18213  0.22109  Biso   1.000  H
  H19      1.0000 0.06052  0.24034  0.40232  Biso   1.000  H
  C27      1.0000 0.18346  0.48189  0.08211  Biso   1.000  C
  H20      1.0000 0.10749  0.62004  0.08009  Biso   1.000  H
  H21      1.0000 0.27753  0.35919  0.10791  Biso   1.000  H
  C28      1.0000 0.31001  0.87948  0.20160  Biso   1.000  C
  C29      1.0000 0.32137  0.04355  0.12223  Biso   1.000  C
  H22      1.0000 0.34861  0.17340  0.06820  Biso   1.000  H
  C30      1.0000 0.46628  0.31329  0.08836  Biso   1.000  C
  C31      1.0000 0.02717  0.07261  0.30925  Biso   1.000  C
  C32      1.0000 0.13112  0.44236  0.00936  Biso   1.000  C
  C33      1.0000 0.24764  0.90671  0.23490  Biso   1.000  C
  H23      1.0000 0.35491  0.82704  0.23278  Biso   1.000  H
  H24      1.0000 0.27912  0.83672  0.15791  Biso   1.000  H
  C34      1.0000 0.23903  0.01091  0.06267  Biso   1.000  C
  H25      1.0000 0.46928  0.25238  0.05682  Biso   1.000  H
  H26      1.0000 0.50431  0.37778  0.08909  Biso   1.000  H
  H27      1.0000 0.40757  0.34200  0.07259  Biso   1.000  H
  H28      1.0000 0.98862  0.07522  0.33391  Biso   1.000  H
  H29      1.0000 0.99268  0.05140  0.26049  Biso   1.000  H
  O3       1.0000 0.09178  0.98420  0.34043  Biso   1.000  O
  O4       1.0000 0.06160  0.36766  0.00739  Biso   1.000  O
  H30      1.0000 0.10779  0.51130  0.97958  Biso   1.000  H
  H31      1.0000 0.16799  0.39925  0.99126  Biso   1.000  H
  C35      1.0000 0.15955  0.91596  0.19762  Biso   1.000  C
  C36      1.0000 0.28032  0.91910  0.30703  Biso   1.000  C
  C37      1.0000 0.16155  0.07557  0.06256  Biso   1.000  C
  H32      1.0000 0.24498  0.02714  0.01872  Biso   1.000  H
  H33      1.0000 0.22950  0.92600  0.06468  Biso   1.000  H
  C38      1.0000 0.14146  0.95785  0.30428  Biso   1.000  C
  C39      1.0000 0.08073  0.25718  0.03506  Biso   1.000  C
  C40      1.0000 0.10854  0.93961  0.23391  Biso   1.000  C
  C41      1.0000 0.11498  0.90750  0.11939  Biso   1.000  C
  C42      1.0000 0.22925  0.94528  0.34213  Biso   1.000  C
  H34      1.0000 0.33982  0.90924  0.33283  Biso   1.000  H
  C43      1.0000 0.10360  0.02749  0.08609  Biso   1.000  C
  C44      1.0000 0.14891  0.19094  0.03764  Biso   1.000  C
  C45      1.0000 0.02087  0.20778  0.05755  Biso   1.000  C
  H35      1.0000 0.04849  0.94319  0.20889  Biso   1.000  H
  H36      1.0000 0.05849  0.87041  0.10682  Biso   1.000  H
  H37      1.0000 0.14908  0.85767  0.10160  Biso   1.000  H
  O5       1.0000 0.25683  0.95925  0.41235  Biso   1.000  O
  C46      1.0000 0.03296  0.09460  0.08231  Biso   1.000  C
  H38      1.0000 0.18898  0.22410  0.02197  Biso   1.000  H
  O6       1.0000 0.95330  0.27777  0.05134  Biso   1.000  O
  C47      1.0000 0.34302  0.93176  0.45361  Biso   1.000  C
  H39      1.0000 0.99228  0.06109  0.09721  Biso   1.000  H
  C48      1.0000 0.89361  0.23353  0.07678  Biso   1.000  C
  H40      1.0000 0.35502  0.85173  0.44379  Biso   1.000  H
  H41      1.0000 0.35319  0.93874  0.50263  Biso   1.000  H
  H42      1.0000 0.38038  0.98586  0.44291  Biso   1.000  H
  H43      1.0000 0.86741  0.16232  0.05150  Biso   1.000  H
  H44      1.0000 0.84920  0.29208  0.07022  Biso   1.000  H
  H45      1.0000 0.92300  0.21573  0.12611  Biso   1.000  H
  C49      1.0000 0.50710  0.59272  0.58577  Biso   1.000  C
  C50      1.0000 0.59084  0.62056  0.59833  Biso   1.000  C
  H46      1.0000 0.48508  0.51828  0.56731  Biso   1.000  H
  C51      1.0000 0.45491  0.67222  0.59973  Biso   1.000  C
  C52      1.0000 0.61972  0.73279  0.62144  Biso   1.000  C
  C53      1.0000 0.65401  0.53155  0.59430  Biso   1.000  C
  C54      1.0000 0.48472  0.78183  0.62641  Biso   1.000  C
  H47      1.0000 0.39780  0.65119  0.59089  Biso   1.000  H
  C55      1.0000 0.56743  0.81229  0.63473  Biso   1.000  C
  H48      1.0000 0.67611  0.75478  0.62822  Biso   1.000  H
  H49      1.0000 0.68411  0.56288  0.56648  Biso   1.000  H
  H50      1.0000 0.62358  0.45964  0.57160  Biso   1.000  H
  N2       1.0000 0.71559  0.50467  0.66431  Biso   1.000  N
  C56      1.0000 0.43172  0.85985  0.65107  Biso   1.000  C
  H51      1.0000 0.58804  0.88873  0.64973  Biso   1.000  H
  C57      1.0000 0.80156  0.48023  0.66881  Biso   1.000  C
  C58      1.0000 0.68498  0.42281  0.70273  Biso   1.000  C
  H52      1.0000 0.37050  0.84519  0.62320  Biso   1.000  H
  H53      1.0000 0.44380  0.94249  0.64461  Biso   1.000  H
  O7       1.0000 0.45025  0.83899  0.72320  Biso   1.000  O
  C59      1.0000 0.85037  0.59307  0.67563  Biso   1.000  C
  H54      1.0000 0.83197  0.42988  0.70940  Biso   1.000  H
  H55      1.0000 0.79812  0.43800  0.62682  Biso   1.000  H
  C60      1.0000 0.72830  0.45004  0.77889  Biso   1.000  C
  H56      1.0000 0.62242  0.43023  0.68721  Biso   1.000  H
  H57      1.0000 0.69810  0.34174  0.69399  Biso   1.000  H
  C61      1.0000 0.52584  0.88062  0.77180  Biso   1.000  C
  C62      1.0000 0.87926  0.62911  0.62625  Biso   1.000  C
  C63      1.0000 0.86559  0.66498  0.73277  Biso   1.000  C
  C64      1.0000 0.79948  0.38886  0.82268  Biso   1.000  C
  C65      1.0000 0.70051  0.54472  0.80603  Biso   1.000  C
  C66      1.0000 0.57018  0.97609  0.76291  Biso   1.000  C
  C67      1.0000 0.55680  0.82459  0.83628  Biso   1.000  C
  C68      1.0000 0.92045  0.73628  0.63235  Biso   1.000  C
  H58      1.0000 0.87089  0.58033  0.58768  Biso   1.000  H
  H59      1.0000 0.84720  0.64089  0.76772  Biso   1.000  H
  C69      1.0000 0.90708  0.77066  0.73933  Biso   1.000  C
  C70      1.0000 0.84351  0.42255  0.89114  Biso   1.000  C
  H60      1.0000 0.81839  0.32272  0.80562  Biso   1.000  H
  H61      1.0000 0.65149  0.58731  0.77718  Biso   1.000  H
  C71      1.0000 0.74325  0.57719  0.87439  Biso   1.000  C
  C72      1.0000 0.64707  0.01431  0.81415  Biso   1.000  C
  H62      1.0000 0.54731  0.01719  0.72030  Biso   1.000  H
  C73      1.0000 0.63138  0.86378  0.88793  Biso   1.000  C
  O8       1.0000 0.50799  0.73375  0.84393  Biso   1.000  O
  C74      1.0000 0.93399  0.80880  0.68820  Biso   1.000  C
  H63      1.0000 0.93947  0.75975  0.59771  Biso   1.000  H
  H64      1.0000 0.91751  0.81787  0.77889  Biso   1.000  H
  C75      1.0000 0.81658  0.51811  0.91792  Biso   1.000  C
  H65      1.0000 0.89247  0.37996  0.91989  Biso   1.000  H
  H66      1.0000 0.72252  0.64081  0.89212  Biso   1.000  H
  C76      1.0000 0.67859  0.95645  0.87775  Biso   1.000  C
  C77      1.0000 0.68995  0.12052  0.79838  Biso   1.000  C
  H67      1.0000 0.65143  0.82660  0.93183  Biso   1.000  H
  C78      1.0000 0.53368  0.68671  0.91161  Biso   1.000  C
  C79      1.0000 0.97287  0.92748  0.69078  Biso   1.000  C
  C80      1.0000 0.86890  0.55764  0.99062  Biso   1.000  C
  C81      1.0000 0.76093  0.98909  0.93731  Biso   1.000  C
  H68      1.0000 0.64511  0.17305  0.76720  Biso   1.000  H
  H69      1.0000 0.72092  0.16328  0.84212  Biso   1.000  H
  C82      1.0000 0.75235  0.09329  0.76513  Biso   1.000  C
  H70      1.0000 0.53071  0.74762  0.94321  Biso   1.000  H
  H71      1.0000 0.49571  0.62222  0.91089  Biso   1.000  H
  H72      1.0000 0.59239  0.65800  0.92738  Biso   1.000  H
  O9       1.0000 0.90821  0.01580  0.65960  Biso   1.000  O
  H73      1.0000 0.01143  0.92478  0.66612  Biso   1.000  H
  H74      1.0000 0.00729  0.94860  0.73949  Biso   1.000  H
  O10      1.0000 0.93838  0.63234  0.99264  Biso   1.000  O
  H75      1.0000 0.89220  0.48870  0.02045  Biso   1.000  H
  H76      1.0000 0.83205  0.60084  0.00877  Biso   1.000  H
  C83      1.0000 0.83841  0.92443  0.93741  Biso   1.000  C
  H77      1.0000 0.75500  0.97295  0.98131  Biso   1.000  H
  H78      1.0000 0.77052  0.07400  0.93530  Biso   1.000  H
  C84      1.0000 0.84041  0.08404  0.80236  Biso   1.000  C
  C85      1.0000 0.71973  0.08090  0.69300  Biso   1.000  C
  C86      1.0000 0.85850  0.04215  0.69569  Biso   1.000  C
  C87      1.0000 0.91923  0.74282  0.96492  Biso   1.000  C
  C88      1.0000 0.85107  0.80915  0.96239  Biso   1.000  C
  C89      1.0000 0.89642  0.97251  0.91389  Biso   1.000  C
  C90      1.0000 0.89144  0.06048  0.76612  Biso   1.000  C
  C91      1.0000 0.88498  0.09250  0.88059  Biso   1.000  C
  C92      1.0000 0.77074  0.05480  0.65790  Biso   1.000  C
  H79      1.0000 0.66023  0.09085  0.66720  Biso   1.000  H
  C93      1.0000 0.97911  0.79230  0.94248  Biso   1.000  C
  H80      1.0000 0.81098  0.77590  0.97800  Biso   1.000  H
  C94      1.0000 0.96709  0.90549  0.91772  Biso   1.000  C
  H81      1.0000 0.95148  0.05681  0.79109  Biso   1.000  H
  H82      1.0000 0.94150  0.12959  0.89321  Biso   1.000  H
  H83      1.0000 0.85090  0.14233  0.89843  Biso   1.000  H
  O11      1.0000 0.74313  0.04075  0.58763  Biso   1.000  O
  O12      1.0000 0.04666  0.72223  0.94863  Biso   1.000  O
  H84      1.0000 0.00771  0.93891  0.90282  Biso   1.000  H
  C95      1.0000 0.65703  0.06824  0.54642  Biso   1.000  C
  C96      1.0000 0.10638  0.76647  0.92325  Biso   1.000  C
  H85      1.0000 0.64500  0.14836  0.55619  Biso   1.000  H
  H86      1.0000 0.64679  0.06135  0.49740  Biso   1.000  H
  H87      1.0000 0.61961  0.01414  0.55712  Biso   1.000  H
  H88      1.0000 0.13258  0.83768  0.94853  Biso   1.000  H
  H89      1.0000 0.15079  0.70792  0.92981  Biso   1.000  H
  H90      1.0000 0.07698  0.78427  0.87392  Biso   1.000  H
  C97      1.0000 0.63137  0.63627  0.38789  Biso   1.000  C
  C98      1.0000 0.55676  0.67536  0.33629  Biso   1.000  C
  C99      1.0000 0.67861  0.54359  0.37776  Biso   1.000  C
  H91      1.0000 0.65137  0.67344  0.43179  Biso   1.000  H
  C100     1.0000 0.52586  0.61943  0.27181  Biso   1.000  C
  O13      1.0000 0.50795  0.76621  0.34394  Biso   1.000  O
  C101     1.0000 0.64709  0.48573  0.31416  Biso   1.000  C
  C102     1.0000 0.76095  0.51095  0.43732  Biso   1.000  C
  O14      1.0000 0.45027  0.66097  0.22321  Biso   1.000  O
  C103     1.0000 0.57014  0.52387  0.26292  Biso   1.000  C
  C104     1.0000 0.53370  0.81325  0.41162  Biso   1.000  C
  C105     1.0000 0.68997  0.37953  0.29839  Biso   1.000  C
  C106     1.0000 0.83843  0.57562  0.43743  Biso   1.000  C
  H92      1.0000 0.77048  0.42604  0.43531  Biso   1.000  H
  H93      1.0000 0.75502  0.52710  0.48132  Biso   1.000  H
  C107     1.0000 0.43174  0.64011  0.15108  Biso   1.000  C
  H94      1.0000 0.54727  0.48285  0.22032  Biso   1.000  H
  H95      1.0000 0.53072  0.75242  0.44322  Biso   1.000  H
  H96      1.0000 0.49568  0.87783  0.41090  Biso   1.000  H
  H97      1.0000 0.59241  0.84205  0.42740  Biso   1.000  H
  H98      1.0000 0.64507  0.32699  0.26721  Biso   1.000  H
  H99      1.0000 0.72086  0.33668  0.34208  Biso   1.000  H
  C108     1.0000 0.75237  0.40675  0.26514  Biso   1.000  C
  C109     1.0000 0.85107  0.69090  0.46235  Biso   1.000  C
  C110     1.0000 0.89638  0.52753  0.41390  Biso   1.000  C
  H100     1.0000 0.37052  0.65477  0.12321  Biso   1.000  H
  H101     1.0000 0.44382  0.55755  0.14462  Biso   1.000  H
  C111     1.0000 0.48466  0.71821  0.12637  Biso   1.000  C
  C112     1.0000 0.84043  0.41600  0.30237  Biso   1.000  C
  C113     1.0000 0.71966  0.41915  0.19296  Biso   1.000  C
  H102     1.0000 0.81100  0.72415  0.47801  Biso   1.000  H
  C114     1.0000 0.91925  0.75722  0.46493  Biso   1.000  C
  C115     1.0000 0.88500  0.40745  0.38060  Biso   1.000  C
  C116     1.0000 0.96705  0.59455  0.41773  Biso   1.000  C
  C117     1.0000 0.56745  0.68776  0.13474  Biso   1.000  C
  C118     1.0000 0.45493  0.82782  0.09974  Biso   1.000  C
  C119     1.0000 0.89146  0.43957  0.26613  Biso   1.000  C
  C120     1.0000 0.77076  0.44524  0.15791  Biso   1.000  C
  H103     1.0000 0.66019  0.40920  0.16721  Biso   1.000  H
  C121     1.0000 0.97913  0.70774  0.44249  Biso   1.000  C
  O15      1.0000 0.93840  0.86770  0.49265  Biso   1.000  O
  H104     1.0000 0.94152  0.37036  0.39322  Biso   1.000  H
  H105     1.0000 0.85090  0.35771  0.39839  Biso   1.000  H
  H106     1.0000 0.00770  0.56113  0.40278  Biso   1.000  H
  H107     1.0000 0.58797  0.61131  0.14969  Biso   1.000  H
  C122     1.0000 0.61974  0.76726  0.12146  Biso   1.000  C
  C123     1.0000 0.50704  0.90732  0.08573  Biso   1.000  C
  H108     1.0000 0.39782  0.84885  0.09090  Biso   1.000  H
  H109     1.0000 0.95150  0.44323  0.29110  Biso   1.000  H
  C124     1.0000 0.85852  0.45789  0.19570  Biso   1.000  C
  O16      1.0000 0.74315  0.45929  0.08764  Biso   1.000  O
  O17      1.0000 0.04668  0.77782  0.44865  Biso   1.000  O
  C125     1.0000 0.86886  0.94240  0.49063  Biso   1.000  C
  H110     1.0000 0.67610  0.74518  0.12818  Biso   1.000  H
  C126     1.0000 0.59078  0.87948  0.09829  Biso   1.000  C
  H111     1.0000 0.48510  0.98167  0.06732  Biso   1.000  H
  O18      1.0000 0.90820  0.48425  0.15956  Biso   1.000  O
  C127     1.0000 0.65699  0.43180  0.04643  Biso   1.000  C
  C128     1.0000 0.10640  0.73357  0.42326  Biso   1.000  C
  H112     1.0000 0.83207  0.89921  0.50878  Biso   1.000  H
  C129     1.0000 0.81655  0.98194  0.41793  Biso   1.000  C
  H113     1.0000 0.89230  0.01134  0.52052  Biso   1.000  H
  C130     1.0000 0.65397  0.96850  0.09431  Biso   1.000  C
  C131     1.0000 0.97283  0.57256  0.19079  Biso   1.000  C
  H114     1.0000 0.64496  0.35169  0.05620  Biso   1.000  H
  H115     1.0000 0.61960  0.48591  0.05708  Biso   1.000  H
  H116     1.0000 0.64690  0.43869  0.99747  Biso   1.000  H
  H117     1.0000 0.13257  0.66227  0.44849  Biso   1.000  H
  H118     1.0000 0.15081  0.79213  0.42983  Biso   1.000  H
  H119     1.0000 0.07698  0.71568  0.37388  Biso   1.000  H
  C132     1.0000 0.74327  0.92277  0.37440  Biso   1.000  C
  C133     1.0000 0.84353  0.07749  0.39115  Biso   1.000  C
  H120     1.0000 0.68407  0.93708  0.06649  Biso   1.000  H
  N3       1.0000 0.71561  0.99537  0.16432  Biso   1.000  N
  H121     1.0000 0.62360  0.04040  0.07161  Biso   1.000  H
  C134     1.0000 0.93395  0.69125  0.18821  Biso   1.000  C
  H122     1.0000 0.01136  0.57518  0.16608  Biso   1.000  H
  H123     1.0000 0.00730  0.55144  0.23950  Biso   1.000  H
  C135     1.0000 0.70047  0.95532  0.30604  Biso   1.000  C
  H124     1.0000 0.72251  0.85924  0.39208  Biso   1.000  H
  C136     1.0000 0.79944  0.11118  0.32269  Biso   1.000  C
  H125     1.0000 0.89249  0.11999  0.41990  Biso   1.000  H
  C137     1.0000 0.80152  0.01981  0.16882  Biso   1.000  C
  C138     1.0000 0.68494  0.07723  0.20274  Biso   1.000  C
  C139     1.0000 0.92041  0.76377  0.13237  Biso   1.000  C
  C140     1.0000 0.90710  0.72938  0.23934  Biso   1.000  C
  C141     1.0000 0.72826  0.05000  0.27890  Biso   1.000  C
  H126     1.0000 0.65151  0.91273  0.27719  Biso   1.000  H
  H127     1.0000 0.81838  0.17733  0.30558  Biso   1.000  H
  C142     1.0000 0.85036  0.90697  0.17559  Biso   1.000  C
  H128     1.0000 0.83199  0.07008  0.20941  Biso   1.000  H
  H129     1.0000 0.79806  0.06205  0.12678  Biso   1.000  H
  H130     1.0000 0.62238  0.06981  0.18722  Biso   1.000  H
  H131     1.0000 0.69807  0.15830  0.19400  Biso   1.000  H
  C143     1.0000 0.87922  0.87093  0.12626  Biso   1.000  C
  H132     1.0000 0.93949  0.74029  0.09772  Biso   1.000  H
  C144     1.0000 0.86556  0.83506  0.23278  Biso   1.000  C
  H133     1.0000 0.91747  0.68208  0.27890  Biso   1.000  H
  H134     1.0000 0.87085  0.91971  0.08769  Biso   1.000  H
  H135     1.0000 0.84719  0.85915  0.26768  Biso   1.000  H
  C145     1.0000 0.36859  0.36373  0.61209  Biso   1.000  C
  C146     1.0000 0.44323  0.32464  0.66374  Biso   1.000  C
  C147     1.0000 0.32141  0.45641  0.62222  Biso   1.000  C
  H136     1.0000 0.34860  0.32664  0.56819  Biso   1.000  H
  O19      1.0000 0.49204  0.23379  0.65609  Biso   1.000  O
  C148     1.0000 0.47416  0.38057  0.72816  Biso   1.000  C
  C149     1.0000 0.35290  0.51427  0.68587  Biso   1.000  C
  C150     1.0000 0.23904  0.48914  0.56271  Biso   1.000  C
  C151     1.0000 0.46629  0.18675  0.58840  Biso   1.000  C
  C152     1.0000 0.42985  0.47613  0.73711  Biso   1.000  C
  O20      1.0000 0.54978  0.33903  0.77682  Biso   1.000  O
  C153     1.0000 0.31008  0.62047  0.70164  Biso   1.000  C
  C154     1.0000 0.16159  0.42438  0.56255  Biso   1.000  C
  H137     1.0000 0.22951  0.57405  0.56472  Biso   1.000  H
  H138     1.0000 0.24502  0.47290  0.51871  Biso   1.000  H
  H139     1.0000 0.46932  0.24758  0.55681  Biso   1.000  H
  H140     1.0000 0.50431  0.12217  0.58913  Biso   1.000  H
  H141     1.0000 0.40761  0.15804  0.57258  Biso   1.000  H
  H142     1.0000 0.45271  0.51724  0.77971  Biso   1.000  H
  C155     1.0000 0.56824  0.35989  0.84895  Biso   1.000  C
  H143     1.0000 0.35492  0.67301  0.73282  Biso   1.000  H
  H144     1.0000 0.27910  0.66332  0.65790  Biso   1.000  H
  C156     1.0000 0.24768  0.59325  0.73489  Biso   1.000  C
  C157     1.0000 0.14895  0.30910  0.53763  Biso   1.000  C
  C158     1.0000 0.10361  0.47255  0.58613  Biso   1.000  C
  H145     1.0000 0.62953  0.34523  0.87682  Biso   1.000  H
  H146     1.0000 0.55622  0.44253  0.85541  Biso   1.000  H
  C159     1.0000 0.51530  0.28179  0.87361  Biso   1.000  C
  C160     1.0000 0.15959  0.58408  0.69761  Biso   1.000  C
  C161     1.0000 0.28030  0.58085  0.80701  Biso   1.000  C
  H147     1.0000 0.18904  0.27594  0.52202  Biso   1.000  H
  C162     1.0000 0.08071  0.24278  0.53505  Biso   1.000  C
  C163     1.0000 0.11504  0.59255  0.61943  Biso   1.000  C
  C164     1.0000 0.03294  0.40545  0.58230  Biso   1.000  C
  C165     1.0000 0.43253  0.31224  0.86529  Biso   1.000  C
  C166     1.0000 0.54512  0.17218  0.90029  Biso   1.000  C
  C167     1.0000 0.10858  0.56043  0.73390  Biso   1.000  C
  C168     1.0000 0.22923  0.55476  0.84212  Biso   1.000  C
  H148     1.0000 0.33980  0.59080  0.83282  Biso   1.000  H
  C169     1.0000 0.02085  0.29226  0.55754  Biso   1.000  C
  O21      1.0000 0.06164  0.13239  0.50738  Biso   1.000  O
  H149     1.0000 0.05853  0.62964  0.60681  Biso   1.000  H
  H150     1.0000 0.14912  0.64229  0.60159  Biso   1.000  H
  H151     1.0000 0.99232  0.43887  0.59719  Biso   1.000  H
  H152     1.0000 0.41199  0.38869  0.85029  Biso   1.000  H
  C170     1.0000 0.38028  0.23274  0.87852  Biso   1.000  C
  C171     1.0000 0.49293  0.09268  0.91425  Biso   1.000  C
  H153     1.0000 0.60223  0.15123  0.90913  Biso   1.000  H
  H154     1.0000 0.04855  0.55677  0.70893  Biso   1.000  H
  C172     1.0000 0.14150  0.54211  0.80427  Biso   1.000  C
  O22      1.0000 0.25683  0.54080  0.91239  Biso   1.000  O
  O23      1.0000 0.95331  0.22218  0.55138  Biso   1.000  O
  C173     1.0000 0.13112  0.05760  0.50940  Biso   1.000  C
  H155     1.0000 0.32392  0.25482  0.87180  Biso   1.000  H
  C174     1.0000 0.40918  0.12052  0.90169  Biso   1.000  C
  H156     1.0000 0.51489  0.01833  0.93271  Biso   1.000  H
  O24      1.0000 0.09182  0.51584  0.84042  Biso   1.000  O
  C175     1.0000 0.34300  0.56820  0.95360  Biso   1.000  C
  C176     1.0000 0.89365  0.26652  0.57677  Biso   1.000  C
  H157     1.0000 0.16789  0.10079  0.49120  Biso   1.000  H
  C177     1.0000 0.18344  0.01806  0.58210  Biso   1.000  C
  H158     1.0000 0.10774  0.98874  0.47951  Biso   1.000  H
  C178     1.0000 0.34601  0.03150  0.90572  Biso   1.000  C
  C179     1.0000 0.02715  0.42744  0.80924  Biso   1.000  C
  H159     1.0000 0.35503  0.64831  0.94383  Biso   1.000  H
  H160     1.0000 0.38042  0.51409  0.94290  Biso   1.000  H
  H161     1.0000 0.35315  0.56131  0.00256  Biso   1.000  H
  H162     1.0000 0.86739  0.33773  0.55149  Biso   1.000  H
  H163     1.0000 0.84924  0.20787  0.57020  Biso   1.000  H
  H164     1.0000 0.92299  0.28432  0.62610  Biso   1.000  H
  C180     1.0000 0.25677  0.07723  0.62563  Biso   1.000  C
  C181     1.0000 0.15652  0.92259  0.60888  Biso   1.000  C
  H165     1.0000 0.31589  0.06292  0.93349  Biso   1.000  H
  N4       1.0000 0.28438  0.00463  0.83571  Biso   1.000  N
  H166     1.0000 0.37644  0.95960  0.92842  Biso   1.000  H
  C182     1.0000 0.06603  0.30875  0.81182  Biso   1.000  C
  H167     1.0000 0.98860  0.42482  0.83390  Biso   1.000  H
  H168     1.0000 0.99274  0.44864  0.76053  Biso   1.000  H
  C183     1.0000 0.29952  0.04468  0.69399  Biso   1.000  C
  H169     1.0000 0.27751  0.14076  0.60790  Biso   1.000  H
  H170     1.0000 0.10753  0.88001  0.58008  Biso   1.000  H
  C184     1.0000 0.20055  0.88882  0.67734  Biso   1.000  C
  C185     1.0000 0.19844  0.98028  0.83116  Biso   1.000  C
  C186     1.0000 0.31504  0.92277  0.79729  Biso   1.000  C
  C187     1.0000 0.07957  0.23632  0.86766  Biso   1.000  C
  C188     1.0000 0.09295  0.27062  0.76069  Biso   1.000  C
  C189     1.0000 0.27172  0.95008  0.72113  Biso   1.000  C
  H171     1.0000 0.34851  0.08727  0.72279  Biso   1.000  H
  H172     1.0000 0.18158  0.82267  0.69440  Biso   1.000  H
  C190     1.0000 0.14966  0.09303  0.82439  Biso   1.000  C
  H173     1.0000 0.16800  0.92992  0.79062  Biso   1.000  H
  H174     1.0000 0.20190  0.93804  0.87320  Biso   1.000  H
  H175     1.0000 0.37761  0.93019  0.81281  Biso   1.000  H
  H176     1.0000 0.30189  0.84170  0.80598  Biso   1.000  H
  C191     1.0000 0.12077  0.12907  0.87377  Biso   1.000  C
  H177     1.0000 0.06050  0.25971  0.90231  Biso   1.000  H
  C192     1.0000 0.13441  0.16494  0.76720  Biso   1.000  C
  H178     1.0000 0.08249  0.31792  0.72108  Biso   1.000  H
  H179     1.0000 0.12911  0.08029  0.91229  Biso   1.000  H
  H180     1.0000 0.15283  0.14094  0.73230  Biso   1.000  H
