data_image0
_cell_length_a       20.988
_cell_length_b       10.092
_cell_length_c       15.223
_cell_angle_alpha    90
_cell_angle_beta     110.3
_cell_angle_gamma    90

_symmetry_space_group_name_H-M    "P 1"
_symmetry_int_tables_number       1

loop_
  _symmetry_equiv_pos_as_xyz
  'x, y, z'

loop_
  _atom_site_label
  _atom_site_occupancy
  _atom_site_fract_x
  _atom_site_fract_y
  _atom_site_fract_z
  _atom_site_thermal_displace_type
  _atom_site_B_iso_or_equiv
  _atom_site_type_symbol
  C1       1.0000 0.60078  0.26100  0.38438  Biso   1.000  C
  C2       1.0000 0.57387  0.27596  0.27918  Biso   1.000  C
  C3       1.0000 0.67921  0.27200  0.42627  Biso   1.000  C
  O1       1.0000 0.58270  0.13605  0.41443  Biso   1.000  O
  H1       1.0000 0.57737  0.34166  0.40953  Biso   1.000  H
  O2       1.0000 0.50048  0.27596  0.24598  Biso   1.000  O
  C4       1.0000 0.60230  0.40002  0.25222  Biso   1.000  C
  H2       1.0000 0.59002  0.19243  0.24640  Biso   1.000  H
  O3       1.0000 0.69922  0.39001  0.39349  Biso   1.000  O
  O4       1.0000 0.70640  0.15953  0.39552  Biso   1.000  O
  H3       1.0000 0.69742  0.27438  0.50261  Biso   1.000  H
  C5       1.0000 0.67791  0.39804  0.29291  Biso   1.000  C
  O5       1.0000 0.57620  0.40438  0.15192  Biso   1.000  O
  H4       1.0000 0.58706  0.48989  0.27953  Biso   1.000  H
  C6       1.0000 0.75601  0.08502  0.46829  Biso   1.000  C
  C7       1.0000 0.71221  0.51803  0.26903  Biso   1.000  C
  H5       1.0000 0.69324  0.31213  0.26181  Biso   1.000  H
  C8       1.0000 0.55312  0.53002  0.10772  Biso   1.000  C
  C9       1.0000 0.82627  0.11901  0.47067  Biso   1.000  C
  H6       1.0000 0.75592  0.10493  0.53854  Biso   1.000  H
  C10      1.0000 0.73699  0.93896  0.44097  Biso   1.000  C
  O6       1.0000 0.69108  0.63902  0.30398  Biso   1.000  O
  O7       1.0000 0.77497  0.49604  0.27001  Biso   1.000  O
  C11      1.0000 0.48178  0.50604  0.03607  Biso   1.000  C
  O8       1.0000 0.59720  0.57838  0.06570  Biso   1.000  O
  H7       1.0000 0.55137  0.60474  0.15850  Biso   1.000  H
  C12      1.0000 0.85059  0.25297  0.51298  Biso   1.000  C
  O9       1.0000 0.87551  0.02378  0.53210  Biso   1.000  O
  H8       1.0000 0.82359  0.11772  0.39790  Biso   1.000  H
  C13      1.0000 0.79121  0.85097  0.50611  Biso   1.000  C
  O10      1.0000 0.67389  0.90904  0.44280  Biso   1.000  O
  H9       1.0000 0.73462  0.92212  0.36869  Biso   1.000  H
  O11      1.0000 0.43910  0.45095  0.08083  Biso   1.000  O
  H10      1.0000 0.46001  0.60097  0.00637  Biso   1.000  H
  C14      1.0000 0.48430  0.42301  0.95482  Biso   1.000  C
  C15      1.0000 0.60730  0.49197  0.99300  Biso   1.000  C
  O12      1.0000 0.84581  0.26001  0.60361  Biso   1.000  O
  H11      1.0000 0.81920  0.33036  0.46906  Biso   1.000  H
  H12      1.0000 0.90333  0.26724  0.51865  Biso   1.000  H
  C16      1.0000 0.86249  0.89001  0.50478  Biso   1.000  C
  O13      1.0000 0.77980  0.71502  0.47592  Biso   1.000  O
  H13      1.0000 0.78890  0.86415  0.57608  Biso   1.000  H
  C17      1.0000 0.53672  0.47404  0.91623  Biso   1.000  C
  O14      1.0000 0.41899  0.42103  0.88387  Biso   1.000  O
  H14      1.0000 0.49907  0.32283  0.98004  Biso   1.000  H
  H15      1.0000 0.62601  0.39348  0.01793  Biso   1.000  H
  C18      1.0000 0.65932  0.55103  0.96323  Biso   1.000  C
  O15      1.0000 0.86219  0.87148  0.41401  Biso   1.000  O
  H16      1.0000 0.90214  0.82848  0.55311  Biso   1.000  H
  O16      1.0000 0.54350  0.38050  0.84927  Biso   1.000  O
  H17      1.0000 0.51966  0.57075  0.88443  Biso   1.000  H
  O17      1.0000 0.70301  0.57996  0.02304  Biso   1.000  O
  O18      1.0000 0.64370  0.67301  0.92008  Biso   1.000  O
  C19      1.0000 0.92188  0.81302  0.40280  Biso   1.000  C
  C20      1.0000 0.52451  0.42004  0.75619  Biso   1.000  C
  C21      1.0000 0.89578  0.68004  0.35118  Biso   1.000  C
  C22      1.0000 0.94722  0.90398  0.34502  Biso   1.000  C
  H18      1.0000 0.96388  0.79697  0.46843  Biso   1.000  H
  C23      1.0000 0.47943  0.31005  0.69273  Biso   1.000  C
  O19      1.0000 0.58050  0.44768  0.72971  Biso   1.000  O
  H19      1.0000 0.49589  0.51239  0.74792  Biso   1.000  H
  C24      1.0000 0.95179  0.62099  0.32268  Biso   1.000  C
  O20      1.0000 0.88071  0.58898  0.41247  Biso   1.000  O
  H20      1.0000 0.85008  0.69808  0.29074  Biso   1.000  H
  C25      1.0000 0.98392  0.02497  0.40301  Biso   1.000  C
  O21      1.0000 0.99689  0.83720  0.31238  Biso   1.000  O
  H21      1.0000 0.90267  0.93401  0.28632  Biso   1.000  H
  C26      1.0000 0.52452  0.18500  0.70492  Biso   1.000  C
  O22      1.0000 0.42292  0.28666  0.72152  Biso   1.000  O
  H22      1.0000 0.45984  0.33859  0.61905  Biso   1.000  H
  C27      1.0000 0.62733  0.33799  0.73763  Biso   1.000  C
  C28      1.0000 0.97230  0.72404  0.25838  Biso   1.000  C
  O23      1.0000 0.92491  0.50446  0.26412  Biso   1.000  O
  H23      1.0000 0.99496  0.59691  0.38515  Biso   1.000  H
  H24      1.0000 0.94912  0.07778  0.42963  Biso   1.000  H
  H25      1.0000 0.02791  0.99168  0.46122  Biso   1.000  H
  O24      1.0000 0.00612  0.11395  0.34299  Biso   1.000  O
  C29      1.0000 0.58830  0.21799  0.68307  Biso   1.000  C
  O25      1.0000 0.48678  0.08660  0.63922  Biso   1.000  O
  H26      1.0000 0.53887  0.14962  0.77671  Biso   1.000  H
  C30      1.0000 0.68042  0.38803  0.70702  Biso   1.000  C
  H27      1.0000 0.65105  0.30163  0.80900  Biso   1.000  H
  O26      1.0000 0.91300  0.75159  0.18140  Biso   1.000  O
  H28      1.0000 0.01135  0.68688  0.23274  Biso   1.000  H
  O27      1.0000 0.63232  0.10375  0.71641  Biso   1.000  O
  H29      1.0000 0.57427  0.24118  0.60875  Biso   1.000  H
  O28      1.0000 0.65070  0.42717  0.60861  Biso   1.000  O
  H30      1.0000 0.70446  0.47325  0.74898  Biso   1.000  H
  H31      1.0000 0.71822  0.31064  0.71389  Biso   1.000  H
  C31      1.0000 0.91591  0.73405  0.08881  Biso   1.000  C
  C32      1.0000 0.65768  0.04400  0.65358  Biso   1.000  C
  C33      1.0000 0.85491  0.65597  0.03047  Biso   1.000  C
  C34      1.0000 0.91558  0.87198  0.04132  Biso   1.000  C
  H32      1.0000 0.96258  0.68242  0.09420  Biso   1.000  H
  C35      1.0000 0.64879  0.89398  0.66521  Biso   1.000  C
  O29      1.0000 0.72979  0.07412  0.67922  Biso   1.000  O
  H33      1.0000 0.63208  0.07868  0.58214  Biso   1.000  H
  C36      1.0000 0.85731  0.63496  0.93549  Biso   1.000  C
  O30      1.0000 0.85490  0.52953  0.07452  Biso   1.000  O
  H34      1.0000 0.80869  0.71017  0.02493  Biso   1.000  H
  O31      1.0000 0.91831  0.84403  0.94880  Biso   1.000  O
  C37      1.0000 0.97452  0.95600  0.09301  Biso   1.000  C
  H35      1.0000 0.87039  0.92737  0.03894  Biso   1.000  H
  C38      1.0000 0.69042  0.84701  0.75451  Biso   1.000  C
  O32      1.0000 0.57772  0.86722  0.63481  Biso   1.000  O
  H36      1.0000 0.66811  0.83423  0.62024  Biso   1.000  H
  C39      1.0000 0.77010  0.03795  0.77370  Biso   1.000  C
  C40      1.0000 0.86279  0.77398  0.88948  Biso   1.000  C
  O33      1.0000 0.79940  0.56540  0.87498  Biso   1.000  O
  H37      1.0000 0.90203  0.57481  0.94355  Biso   1.000  H
  H38      1.0000 0.97581  0.04162  0.05022  Biso   1.000  H
  H39      1.0000 0.96807  0.98989  0.15787  Biso   1.000  H
  O34      1.0000 0.03891  0.88605  0.11753  Biso   1.000  O
  C41      1.0000 0.76432  0.88298  0.78161  Biso   1.000  C
  O35      1.0000 0.68281  0.70244  0.76081  Biso   1.000  O
  H40      1.0000 0.67239  0.89665  0.80501  Biso   1.000  H
  C42      1.0000 0.84068  0.08205  0.79100  Biso   1.000  C
  H41      1.0000 0.75292  0.08373  0.82623  Biso   1.000  H
  O36      1.0000 0.79962  0.83918  0.87512  Biso   1.000  O
  H42      1.0000 0.87132  0.76516  0.82301  Biso   1.000  H
  H43      1.0000 0.78680  0.83601  0.73497  Biso   1.000  H
  O37      1.0000 0.87058  0.02695  0.72901  Biso   1.000  O
  H44      1.0000 0.87156  0.05361  0.86258  Biso   1.000  H
  H45      1.0000 0.84053  0.18946  0.78491  Biso   1.000  H
  O38      1.0000 0.41733  0.63605  0.58561  Biso   1.000  O
  C43      1.0000 0.39919  0.76100  0.61558  Biso   1.000  C
  C44      1.0000 0.32080  0.77200  0.57370  Biso   1.000  C
  C45      1.0000 0.42609  0.77596  0.72079  Biso   1.000  C
  H46      1.0000 0.42264  0.84166  0.59044  Biso   1.000  H
  O39      1.0000 0.29358  0.65953  0.60452  Biso   1.000  O
  O40      1.0000 0.30079  0.89001  0.60648  Biso   1.000  O
  H47      1.0000 0.30259  0.77438  0.49736  Biso   1.000  H
  C46      1.0000 0.39768  0.90002  0.74782  Biso   1.000  C
  O41      1.0000 0.49948  0.77596  0.75398  Biso   1.000  O
  H48      1.0000 0.40996  0.69243  0.75363  Biso   1.000  H
  C47      1.0000 0.24400  0.58502  0.53168  Biso   1.000  C
  C48      1.0000 0.32212  0.89804  0.70713  Biso   1.000  C
  O42      1.0000 0.42383  0.90438  0.84812  Biso   1.000  O
  H49      1.0000 0.41296  0.98989  0.72051  Biso   1.000  H
  C49      1.0000 0.26302  0.43896  0.55899  Biso   1.000  C
  C50      1.0000 0.17369  0.61901  0.52929  Biso   1.000  C
  H50      1.0000 0.24409  0.60493  0.46143  Biso   1.000  H
  H51      1.0000 0.30677  0.81213  0.73816  Biso   1.000  H
  C51      1.0000 0.28782  0.01803  0.73101  Biso   1.000  C
  C52      1.0000 0.44691  0.03002  0.89231  Biso   1.000  C
  C53      1.0000 0.20882  0.35097  0.49392  Biso   1.000  C
  O43      1.0000 0.32607  0.40904  0.55717  Biso   1.000  O
  H52      1.0000 0.26534  0.42212  0.63127  Biso   1.000  H
  O44      1.0000 0.12450  0.52378  0.46787  Biso   1.000  O
  C54      1.0000 0.14942  0.75297  0.48699  Biso   1.000  C
  H53      1.0000 0.17642  0.61772  0.60207  Biso   1.000  H
  O45      1.0000 0.22500  0.99604  0.72996  Biso   1.000  O
  O46      1.0000 0.30888  0.13902  0.69599  Biso   1.000  O
  C55      1.0000 0.51819  0.00604  0.96390  Biso   1.000  C
  O47      1.0000 0.40281  0.07838  0.93427  Biso   1.000  O
  H54      1.0000 0.44861  0.10474  0.84153  Biso   1.000  H
  C56      1.0000 0.13752  0.39001  0.49519  Biso   1.000  C
  O48      1.0000 0.22022  0.21502  0.52411  Biso   1.000  O
  H55      1.0000 0.21108  0.36415  0.42395  Biso   1.000  H
  O49      1.0000 0.15422  0.76001  0.39643  Biso   1.000  O
  H56      1.0000 0.18083  0.83036  0.53098  Biso   1.000  H
  H57      1.0000 0.09668  0.76724  0.48132  Biso   1.000  H
  O50      1.0000 0.56093  0.95095  0.91921  Biso   1.000  O
  C57      1.0000 0.51568  0.92301  0.04521  Biso   1.000  C
  H58      1.0000 0.53995  0.10097  0.99359  Biso   1.000  H
  C58      1.0000 0.39271  0.99197  0.00697  Biso   1.000  C
  O51      1.0000 0.13780  0.37148  0.58603  Biso   1.000  O
  H59      1.0000 0.09788  0.32848  0.44693  Biso   1.000  H
  C59      1.0000 0.46331  0.97404  0.08380  Biso   1.000  C
  O52      1.0000 0.58098  0.92103  0.11609  Biso   1.000  O
  H60      1.0000 0.50091  0.82283  0.02000  Biso   1.000  H
  H61      1.0000 0.37395  0.89348  0.98204  Biso   1.000  H
  C60      1.0000 0.34071  0.05103  0.03681  Biso   1.000  C
  C61      1.0000 0.07810  0.31302  0.59723  Biso   1.000  C
  O53      1.0000 0.45651  0.88050  0.15069  Biso   1.000  O
  H62      1.0000 0.48030  0.07075  0.11553  Biso   1.000  H
  O54      1.0000 0.29702  0.07996  0.97699  Biso   1.000  O
  O55      1.0000 0.35631  0.17301  0.07988  Biso   1.000  O
  C62      1.0000 0.10418  0.18004  0.64878  Biso   1.000  C
  C63      1.0000 0.05281  0.40398  0.65502  Biso   1.000  C
  H63      1.0000 0.03615  0.29697  0.53161  Biso   1.000  H
  C64      1.0000 0.47550  0.92004  0.24378  Biso   1.000  C
  C65      1.0000 0.04822  0.12099  0.67729  Biso   1.000  C
  O56      1.0000 0.11930  0.08898  0.58750  Biso   1.000  O
  H64      1.0000 0.14988  0.19808  0.70923  Biso   1.000  H
  C66      1.0000 0.01611  0.52497  0.59702  Biso   1.000  C
  O57      1.0000 0.00312  0.33720  0.68759  Biso   1.000  O
  H65      1.0000 0.09736  0.43401  0.71371  Biso   1.000  H
  C67      1.0000 0.52060  0.81005  0.30730  Biso   1.000  C
  O58      1.0000 0.41953  0.94768  0.27032  Biso   1.000  O
  H66      1.0000 0.50412  0.01239  0.25204  Biso   1.000  H
  C68      1.0000 0.02771  0.22404  0.74159  Biso   1.000  C
  O59      1.0000 0.07512  0.00446  0.73591  Biso   1.000  O
  H67      1.0000 0.00501  0.09691  0.61481  Biso   1.000  H
  H68      1.0000 0.05091  0.57778  0.57041  Biso   1.000  H
  O60      1.0000 0.99389  0.61395  0.65698  Biso   1.000  O
  H69      1.0000 0.97210  0.49168  0.53875  Biso   1.000  H
  C69      1.0000 0.47551  0.68500  0.29512  Biso   1.000  C
  O61      1.0000 0.57711  0.78666  0.27852  Biso   1.000  O
  H70      1.0000 0.54013  0.83859  0.38092  Biso   1.000  H
  C70      1.0000 0.37270  0.83799  0.26241  Biso   1.000  C
  O62      1.0000 0.08703  0.25159  0.81863  Biso   1.000  O
  H71      1.0000 0.98863  0.18688  0.76729  Biso   1.000  H
  C71      1.0000 0.41171  0.71799  0.31690  Biso   1.000  C
  O63      1.0000 0.51320  0.58660  0.36081  Biso   1.000  O
  H72      1.0000 0.46116  0.64962  0.22332  Biso   1.000  H
  C72      1.0000 0.31961  0.88803  0.29301  Biso   1.000  C
  H73      1.0000 0.34891  0.80163  0.19097  Biso   1.000  H
  C73      1.0000 0.08412  0.23405  0.91123  Biso   1.000  C
  O64      1.0000 0.36770  0.60375  0.28363  Biso   1.000  O
  H74      1.0000 0.42575  0.74118  0.39121  Biso   1.000  H
  O65      1.0000 0.34933  0.92717  0.39142  Biso   1.000  O
  H75      1.0000 0.29552  0.97325  0.25106  Biso   1.000  H
  H76      1.0000 0.28179  0.81064  0.28608  Biso   1.000  H
  C74      1.0000 0.14510  0.15597  0.96950  Biso   1.000  C
  C75      1.0000 0.08440  0.37198  0.95871  Biso   1.000  C
  H77      1.0000 0.03745  0.18242  0.90583  Biso   1.000  H
  C76      1.0000 0.34228  0.54400  0.34639  Biso   1.000  C
  O66      1.0000 0.14508  0.02953  0.92551  Biso   1.000  O
  H78      1.0000 0.19134  0.21017  0.97510  Biso   1.000  H
  C77      1.0000 0.14270  0.13496  0.06447  Biso   1.000  C
  C78      1.0000 0.02551  0.45600  0.90702  Biso   1.000  C
  H79      1.0000 0.12958  0.42737  0.96102  Biso   1.000  H
  O67      1.0000 0.08170  0.34403  0.05117  Biso   1.000  O
  C79      1.0000 0.35119  0.39398  0.33483  Biso   1.000  C
  O68      1.0000 0.27019  0.57412  0.32082  Biso   1.000  O
  H80      1.0000 0.36793  0.57868  0.41783  Biso   1.000  H
  C80      1.0000 0.13722  0.27398  0.11049  Biso   1.000  C
  O69      1.0000 0.20062  0.06540  0.12499  Biso   1.000  O
  H81      1.0000 0.09798  0.07481  0.05642  Biso   1.000  H
  H82      1.0000 0.03194  0.48989  0.84210  Biso   1.000  H
  H83      1.0000 0.02420  0.54162  0.94975  Biso   1.000  H
  O70      1.0000 0.96111  0.38605  0.88251  Biso   1.000  O
  C81      1.0000 0.30961  0.34701  0.24553  Biso   1.000  C
  O71      1.0000 0.42230  0.36722  0.36523  Biso   1.000  O
  H84      1.0000 0.33187  0.33423  0.37979  Biso   1.000  H
  C82      1.0000 0.22991  0.53795  0.22627  Biso   1.000  C
  O72      1.0000 0.20041  0.33918  0.12492  Biso   1.000  O
  H85      1.0000 0.12869  0.26516  0.17696  Biso   1.000  H
  C83      1.0000 0.23570  0.38298  0.21842  Biso   1.000  C
  O73      1.0000 0.31722  0.20244  0.23922  Biso   1.000  O
  H86      1.0000 0.32759  0.39665  0.19503  Biso   1.000  H
  C84      1.0000 0.15928  0.58205  0.20897  Biso   1.000  C
  H87      1.0000 0.24706  0.58373  0.17381  Biso   1.000  H
  H88      1.0000 0.21323  0.33601  0.26507  Biso   1.000  H
  O74      1.0000 0.12940  0.52695  0.27102  Biso   1.000  O
  H89      1.0000 0.12845  0.55361  0.13739  Biso   1.000  H
  H90      1.0000 0.15950  0.68946  0.21513  Biso   1.000  H
