data_image0
_cell_length_a       26.184
_cell_length_b       26.184
_cell_length_c       11.186
_cell_angle_alpha    90
_cell_angle_beta     90
_cell_angle_gamma    120

_symmetry_space_group_name_H-M    "P 1"
_symmetry_int_tables_number       1

loop_
  _symmetry_equiv_pos_as_xyz
  'x, y, z'

loop_
  _atom_site_label
  _atom_site_occupancy
  _atom_site_fract_x
  _atom_site_fract_y
  _atom_site_fract_z
  _atom_site_thermal_displace_type
  _atom_site_B_iso_or_equiv
  _atom_site_type_symbol
  C1       1.0000 0.48361  0.43209  0.22466  Biso   1.000  C
  C2       1.0000 0.53110  0.44311  0.32326  Biso   1.000  C
  H1       1.0000 0.48068  0.40179  0.16780  Biso   1.000  H
  H2       1.0000 0.44449  0.41709  0.26301  Biso   1.000  H
  C3       1.0000 0.50049  0.49052  0.15528  Biso   1.000  C
  N1       1.0000 0.52011  0.38600  0.36537  Biso   1.000  N
  C4       1.0000 0.59360  0.47570  0.26283  Biso   1.000  C
  H3       1.0000 0.52892  0.46701  0.39076  Biso   1.000  H
  C5       1.0000 0.55990  0.52051  0.10486  Biso   1.000  C
  H4       1.0000 0.47182  0.48121  0.08958  Biso   1.000  H
  H5       1.0000 0.49658  0.51799  0.21035  Biso   1.000  H
  C6       1.0000 0.50412  0.36991  0.47157  Biso   1.000  C
  N2       1.0000 0.63640  0.48942  0.35857  Biso   1.000  N
  H6       1.0000 0.59672  0.44840  0.20436  Biso   1.000  H
  C7       1.0000 0.60541  0.53140  0.19873  Biso   1.000  C
  H7       1.0000 0.56811  0.55861  0.06991  Biso   1.000  H
  H8       1.0000 0.56241  0.49612  0.03996  Biso   1.000  H
  C8       1.0000 0.49870  0.31011  0.50438  Biso   1.000  C
  C9       1.0000 0.50821  0.40651  0.57903  Biso   1.000  C
  C10      1.0000 0.48032  0.39381  0.56401  Biso   1.000  C
  C11      1.0000 0.66790  0.46419  0.35893  Biso   1.000  C
  H9       1.0000 0.60609  0.55980  0.25800  Biso   1.000  H
  H10      1.0000 0.64480  0.54952  0.16056  Biso   1.000  H
  C12      1.0000 0.47678  0.28400  0.61461  Biso   1.000  C
  C13      1.0000 0.51849  0.28400  0.42392  Biso   1.000  C
  H11      1.0000 0.49189  0.38089  0.64876  Biso   1.000  H
  H12      1.0000 0.54961  0.43592  0.59351  Biso   1.000  H
  H13      1.0000 0.48580  0.42662  0.56338  Biso   1.000  H
  H14      1.0000 0.47220  0.37092  0.63803  Biso   1.000  H
  H15      1.0000 0.50931  0.43522  0.58037  Biso   1.000  H
  H16      1.0000 0.44373  0.39112  0.53487  Biso   1.000  H
  C14      1.0000 0.71741  0.48501  0.44815  Biso   1.000  C
  C15      1.0000 0.66219  0.41842  0.27347  Biso   1.000  C
  H17      1.0000 0.46491  0.30310  0.67111  Biso   1.000  H
  C16      1.0000 0.47221  0.23002  0.64321  Biso   1.000  C
  C17      1.0000 0.51500  0.23240  0.44815  Biso   1.000  C
  H18      1.0000 0.53491  0.30301  0.34990  Biso   1.000  H
  C18      1.0000 0.71033  0.50842  0.55999  Biso   1.000  C
  C19      1.0000 0.76551  0.48152  0.42392  Biso   1.000  C
  H19      1.0000 0.67409  0.39249  0.31271  Biso   1.000  H
  H20      1.0000 0.68760  0.43729  0.20409  Biso   1.000  H
  H21      1.0000 0.62120  0.39509  0.24718  Biso   1.000  H
  C20      1.0000 0.49160  0.20189  0.55999  Biso   1.000  C
  C21      1.0000 0.45121  0.20321  0.76319  Biso   1.000  C
  C22      1.0000 0.53582  0.20370  0.35893  Biso   1.000  C
  C23      1.0000 0.75778  0.52778  0.64321  Biso   1.000  C
  H22      1.0000 0.67612  0.51080  0.57715  Biso   1.000  H
  C24      1.0000 0.81142  0.50132  0.50438  Biso   1.000  C
  H23      1.0000 0.76811  0.46512  0.34990  Biso   1.000  H
  H24      1.0000 0.48919  0.16528  0.57715  Biso   1.000  H
  N3       1.0000 0.42921  0.22751  0.83032  Biso   1.000  N
  C25      1.0000 0.45809  0.15122  0.79662  Biso   1.000  C
  N4       1.0000 0.51059  0.14698  0.35857  Biso   1.000  N
  C26      1.0000 0.58160  0.24378  0.27347  Biso   1.000  C
  C27      1.0000 0.80720  0.52320  0.61461  Biso   1.000  C
  C28      1.0000 0.75203  0.54882  0.76319  Biso   1.000  C
  C29      1.0000 0.86581  0.49590  0.47157  Biso   1.000  C
  C30      1.0000 0.41250  0.20859  0.95369  Biso   1.000  C
  H25      1.0000 0.50011  0.16330  0.79868  Biso   1.000  H
  H26      1.0000 0.43800  0.11982  0.73726  Biso   1.000  H
  H27      1.0000 0.44071  0.13662  0.87556  Biso   1.000  H
  C31      1.0000 0.52432  0.11792  0.26283  Biso   1.000  C
  H28      1.0000 0.60751  0.28162  0.31271  Biso   1.000  H
  H29      1.0000 0.56271  0.25031  0.20409  Biso   1.000  H
  H30      1.0000 0.60491  0.22610  0.24718  Biso   1.000  H
  H31      1.0000 0.83821  0.53510  0.67111  Biso   1.000  H
  N5       1.0000 0.79832  0.57082  0.83032  Biso   1.000  N
  C32      1.0000 0.69311  0.54189  0.79662  Biso   1.000  C
  N6       1.0000 0.86590  0.47989  0.36537  Biso   1.000  N
  C33      1.0000 0.89832  0.49180  0.57903  Biso   1.000  C
  C34      1.0000 0.91350  0.51971  0.56401  Biso   1.000  C
  H32      1.0000 0.41922  0.17521  0.97416  Biso   1.000  H
  C35      1.0000 0.34871  0.19139  0.97220  Biso   1.000  C
  C36      1.0000 0.45049  0.26380  0.03656  Biso   1.000  C
  H33      1.0000 0.55162  0.14831  0.20436  Biso   1.000  H
  C37      1.0000 0.46860  0.07400  0.19873  Biso   1.000  C
  C38      1.0000 0.55690  0.08798  0.32326  Biso   1.000  C
  C39      1.0000 0.79611  0.58749  0.95369  Biso   1.000  C
  H34      1.0000 0.66322  0.49991  0.79868  Biso   1.000  H
  H35      1.0000 0.68182  0.56200  0.73726  Biso   1.000  H
  H36      1.0000 0.69590  0.55931  0.87556  Biso   1.000  H
  C40      1.0000 0.91201  0.46891  0.32326  Biso   1.000  C
  H37      1.0000 0.88902  0.50811  0.64876  Biso   1.000  H
  H38      1.0000 0.88628  0.45039  0.59351  Biso   1.000  H
  H39      1.0000 0.94080  0.51420  0.56338  Biso   1.000  H
  H40      1.0000 0.89871  0.52778  0.63803  Biso   1.000  H
  H41      1.0000 0.92592  0.49069  0.58037  Biso   1.000  H
  H42      1.0000 0.94742  0.55631  0.53487  Biso   1.000  H
  H43      1.0000 0.32348  0.15598  0.92348  Biso   1.000  H
  H44      1.0000 0.34272  0.22372  0.94314  Biso   1.000  H
  C41      1.0000 0.32891  0.17829  0.10361  Biso   1.000  C
  N7       1.0000 0.51149  0.27589  0.02423  Biso   1.000  N
  C42      1.0000 0.43179  0.25031  0.16306  Biso   1.000  C
  H45      1.0000 0.44741  0.29842  0.00867  Biso   1.000  H
  H46      1.0000 0.44020  0.04630  0.25800  Biso   1.000  H
  H47      1.0000 0.45049  0.09530  0.16056  Biso   1.000  H
  C43      1.0000 0.47948  0.03938  0.10486  Biso   1.000  C
  N8       1.0000 0.61399  0.13411  0.36537  Biso   1.000  N
  H48      1.0000 0.53302  0.06192  0.39076  Biso   1.000  H
  C44      1.0000 0.56792  0.05151  0.22466  Biso   1.000  C
  H49      1.0000 0.75598  0.58079  0.97416  Biso   1.000  H
  C45      1.0000 0.84269  0.65131  0.97220  Biso   1.000  C
  C46      1.0000 0.81330  0.54952  0.03656  Biso   1.000  C
  C47      1.0000 0.88210  0.40642  0.26283  Biso   1.000  C
  H50      1.0000 0.93812  0.47111  0.39076  Biso   1.000  H
  C48      1.0000 0.94851  0.51640  0.22466  Biso   1.000  C
  H51      1.0000 0.28731  0.16850  0.11067  Biso   1.000  H
  H52      1.0000 0.33169  0.14390  0.13186  Biso   1.000  H
  C49      1.0000 0.36729  0.23099  0.17844  Biso   1.000  C
  C50      1.0000 0.55072  0.32210  0.97434  Biso   1.000  C
  H53      1.0000 0.45581  0.28581  0.21259  Biso   1.000  H
  H54      1.0000 0.43889  0.21860  0.19176  Biso   1.000  H
  H55      1.0000 0.44138  0.00948  0.06991  Biso   1.000  H
  H56      1.0000 0.50389  0.06628  0.03996  Biso   1.000  H
  C51      1.0000 0.50951  0.01001  0.15528  Biso   1.000  C
  C52      1.0000 0.63011  0.13419  0.47157  Biso   1.000  C
  H57      1.0000 0.59819  0.07889  0.16780  Biso   1.000  H
  H58      1.0000 0.58290  0.02739  0.26301  Biso   1.000  H
  H59      1.0000 0.83248  0.67649  0.92348  Biso   1.000  H
  H60      1.0000 0.88101  0.65730  0.94314  Biso   1.000  H
  C53      1.0000 0.84942  0.67111  0.10361  Biso   1.000  C
  N9       1.0000 0.76441  0.48849  0.02423  Biso   1.000  N
  C54      1.0000 0.81852  0.56822  0.16306  Biso   1.000  C
  H61      1.0000 0.85101  0.55261  0.00867  Biso   1.000  H
  N10      1.0000 0.85301  0.36360  0.35857  Biso   1.000  N
  H62      1.0000 0.85170  0.40329  0.20436  Biso   1.000  H
  C55      1.0000 0.92599  0.39460  0.19873  Biso   1.000  C
  H63      1.0000 0.92109  0.51932  0.16780  Biso   1.000  H
  H64      1.0000 0.97261  0.55552  0.26301  Biso   1.000  H
  C56      1.0000 0.99002  0.49951  0.15528  Biso   1.000  C
  H65      1.0000 0.35622  0.22160  0.26345  Biso   1.000  H
  H66      1.0000 0.36079  0.26389  0.15573  Biso   1.000  H
  C57      1.0000 0.61209  0.32920  0.97014  Biso   1.000  C
  C58      1.0000 0.54359  0.37079  0.91981  Biso   1.000  C
  H67      1.0000 0.51879  0.99061  0.08958  Biso   1.000  H
  H68      1.0000 0.48201  0.97861  0.21035  Biso   1.000  H
  C59      1.0000 0.68990  0.18861  0.50438  Biso   1.000  C
  C60      1.0000 0.59351  0.10169  0.57903  Biso   1.000  C
  C61      1.0000 0.60618  0.08648  0.56401  Biso   1.000  C
  H69      1.0000 0.88121  0.71269  0.11067  Biso   1.000  H
  H70      1.0000 0.81218  0.66828  0.13186  Biso   1.000  H
  C62      1.0000 0.86370  0.63270  0.17844  Biso   1.000  C
  C63      1.0000 0.77139  0.44929  0.97434  Biso   1.000  C
  H71      1.0000 0.82999  0.54419  0.21259  Biso   1.000  H
  H72      1.0000 0.77972  0.56112  0.19176  Biso   1.000  H
  C64      1.0000 0.79633  0.33211  0.35893  Biso   1.000  C
  H73      1.0000 0.95371  0.39390  0.25800  Biso   1.000  H
  H74      1.0000 0.90470  0.35522  0.16056  Biso   1.000  H
  C65      1.0000 0.96062  0.44011  0.10486  Biso   1.000  C
  H75      1.0000 0.00941  0.52822  0.08958  Biso   1.000  H
  H76      1.0000 0.02140  0.50340  0.21035  Biso   1.000  H
  C66      1.0000 0.61659  0.27871  0.96907  Biso   1.000  C
  C67      1.0000 0.66210  0.38340  0.96907  Biso   1.000  C
  H77      1.0000 0.54682  0.36991  0.83256  Biso   1.000  H
  H78      1.0000 0.57451  0.40902  0.95021  Biso   1.000  H
  H79      1.0000 0.50480  0.36532  0.94100  Biso   1.000  H
  C68      1.0000 0.71602  0.19280  0.61461  Biso   1.000  C
  C69      1.0000 0.71602  0.23452  0.42392  Biso   1.000  C
  H80      1.0000 0.61909  0.11100  0.64876  Biso   1.000  H
  H81      1.0000 0.56410  0.11369  0.59351  Biso   1.000  H
  H82      1.0000 0.57340  0.05918  0.56338  Biso   1.000  H
  H83      1.0000 0.62909  0.10130  0.63803  Biso   1.000  H
  H84      1.0000 0.56481  0.07409  0.58037  Biso   1.000  H
  H85      1.0000 0.60891  0.05261  0.53487  Biso   1.000  H
  H86      1.0000 0.86540  0.64381  0.26345  Biso   1.000  H
  H87      1.0000 0.90310  0.63922  0.15573  Biso   1.000  H
  C70      1.0000 0.71709  0.38790  0.97014  Biso   1.000  C
  C71      1.0000 0.82718  0.45639  0.91981  Biso   1.000  C
  C72      1.0000 0.76759  0.28259  0.44815  Biso   1.000  C
  C73      1.0000 0.75621  0.33780  0.27347  Biso   1.000  C
  H88      1.0000 0.99051  0.43191  0.06991  Biso   1.000  H
  H89      1.0000 0.93370  0.43760  0.03996  Biso   1.000  H
  H90      1.0000 0.58189  0.24100  0.96764  Biso   1.000  H
  C74      1.0000 0.67082  0.28290  0.97014  Biso   1.000  C
  H91      1.0000 0.65910  0.41811  0.96764  Biso   1.000  H
  H92      1.0000 0.69689  0.16180  0.67111  Biso   1.000  H
  C75      1.0000 0.77000  0.24219  0.64321  Biso   1.000  C
  H93      1.0000 0.69700  0.23192  0.34990  Biso   1.000  H
  C76      1.0000 0.72131  0.33789  0.96907  Biso   1.000  C
  H94      1.0000 0.82311  0.45321  0.83256  Biso   1.000  H
  H95      1.0000 0.83451  0.42552  0.95021  Biso   1.000  H
  H96      1.0000 0.86049  0.49519  0.94100  Biso   1.000  H
  C77      1.0000 0.79811  0.28969  0.55999  Biso   1.000  C
  H97      1.0000 0.71840  0.32590  0.31271  Biso   1.000  H
  H98      1.0000 0.74969  0.31240  0.20409  Biso   1.000  H
  H99      1.0000 0.77392  0.37881  0.24718  Biso   1.000  H
  C78      1.0000 0.67789  0.22861  0.97434  Biso   1.000  C
  C79      1.0000 0.79682  0.24802  0.76319  Biso   1.000  C
  H100     1.0000 0.75901  0.34089  0.96764  Biso   1.000  H
  H101     1.0000 0.83469  0.32391  0.57715  Biso   1.000  H
  C80      1.0000 0.62920  0.17278  0.91981  Biso   1.000  C
  N11      1.0000 0.72408  0.23558  0.02423  Biso   1.000  N
  N12      1.0000 0.77253  0.20171  0.83032  Biso   1.000  N
  C81      1.0000 0.84879  0.30689  0.79662  Biso   1.000  C
  H102     1.0000 0.63011  0.17688  0.83256  Biso   1.000  H
  H103     1.0000 0.59100  0.16551  0.95021  Biso   1.000  H
  H104     1.0000 0.63471  0.13949  0.94100  Biso   1.000  H
  C82      1.0000 0.73619  0.18672  0.03656  Biso   1.000  C
  C83      1.0000 0.79142  0.20392  0.95369  Biso   1.000  C
  H105     1.0000 0.83670  0.33679  0.79868  Biso   1.000  H
  H106     1.0000 0.88020  0.31822  0.73726  Biso   1.000  H
  H107     1.0000 0.86341  0.30411  0.87556  Biso   1.000  H
  C84      1.0000 0.74971  0.18151  0.16306  Biso   1.000  C
  H108     1.0000 0.70161  0.14901  0.00867  Biso   1.000  H
  H109     1.0000 0.82480  0.24400  0.97416  Biso   1.000  H
  C85      1.0000 0.80860  0.15730  0.97220  Biso   1.000  C
  C86      1.0000 0.76900  0.13631  0.17844  Biso   1.000  C
  H110     1.0000 0.71420  0.17000  0.21259  Biso   1.000  H
  H111     1.0000 0.78141  0.22032  0.19176  Biso   1.000  H
  H112     1.0000 0.84398  0.16749  0.92348  Biso   1.000  H
  H113     1.0000 0.77630  0.11898  0.94314  Biso   1.000  H
  C87      1.0000 0.82171  0.15060  0.10361  Biso   1.000  C
  H114     1.0000 0.77842  0.13459  0.26345  Biso   1.000  H
  H115     1.0000 0.73608  0.09689  0.15573  Biso   1.000  H
  H116     1.0000 0.83151  0.11880  0.11067  Biso   1.000  H
  H117     1.0000 0.85613  0.18782  0.13186  Biso   1.000  H
  C88      1.0000 0.42439  0.51918  0.38101  Biso   1.000  C
  C89      1.0000 0.38810  0.52161  0.49169  Biso   1.000  C
  H118     1.0000 0.39992  0.50882  0.30851  Biso   1.000  H
  H119     1.0000 0.45979  0.55790  0.36948  Biso   1.000  H
  H120     1.0000 0.43601  0.48950  0.39478  Biso   1.000  H
  H121     1.0000 0.42409  0.54348  0.29573  Biso   1.000  H
  H122     1.0000 0.47329  0.54458  0.38235  Biso   1.000  H
  C90      1.0000 0.32752  0.50992  0.46022  Biso   1.000  C
  N13      1.0000 0.40548  0.53338  0.59673  Biso   1.000  N
  C91      1.0000 0.30220  0.48730  0.35240  Biso   1.000  C
  C92      1.0000 0.29768  0.52218  0.54237  Biso   1.000  C
  C93      1.0000 0.46479  0.54851  0.63866  Biso   1.000  C
  C94      1.0000 0.24562  0.47711  0.32585  Biso   1.000  C
  H123     1.0000 0.32321  0.47852  0.29456  Biso   1.000  H
  C95      1.0000 0.24143  0.51402  0.52190  Biso   1.000  C
  H124     1.0000 0.31582  0.53731  0.61783  Biso   1.000  H
  C96      1.0000 0.49449  0.61020  0.69578  Biso   1.000  C
  C97      1.0000 0.46080  0.50401  0.73047  Biso   1.000  C
  H125     1.0000 0.48878  0.54860  0.56928  Biso   1.000  H
  C98      1.0000 0.21842  0.45440  0.20266  Biso   1.000  C
  C99      1.0000 0.21470  0.48928  0.41069  Biso   1.000  C
  C100     1.0000 0.20849  0.52888  0.61380  Biso   1.000  C
  N14      1.0000 0.50110  0.65351  0.60585  Biso   1.000  N
  H126     1.0000 0.46899  0.61038  0.76202  Biso   1.000  H
  C101     1.0000 0.55342  0.62502  0.74638  Biso   1.000  C
  C102     1.0000 0.52050  0.51839  0.78098  Biso   1.000  C
  H127     1.0000 0.44211  0.46450  0.69301  Biso   1.000  H
  H128     1.0000 0.43501  0.50238  0.79698  Biso   1.000  H
  N15      1.0000 0.23998  0.42940  0.14089  Biso   1.000  N
  C103     1.0000 0.17181  0.46560  0.16556  Biso   1.000  C
  H129     1.0000 0.17569  0.48108  0.39433  Biso   1.000  H
  N16      1.0000 0.15240  0.49890  0.60585  Biso   1.000  N
  C104     1.0000 0.24468  0.57369  0.70070  Biso   1.000  C
  C105     1.0000 0.47111  0.67962  0.61380  Biso   1.000  C
  H130     1.0000 0.57980  0.62820  0.67987  Biso   1.000  H
  H131     1.0000 0.57100  0.66401  0.78598  Biso   1.000  H
  C106     1.0000 0.55040  0.58110  0.83345  Biso   1.000  C
  H132     1.0000 0.54532  0.51601  0.71697  Biso   1.000  H
  H133     1.0000 0.51520  0.48968  0.84418  Biso   1.000  H
  C107     1.0000 0.22290  0.41251  0.01627  Biso   1.000  C
  H134     1.0000 0.17041  0.46640  0.07813  Biso   1.000  H
  H135     1.0000 0.17971  0.50379  0.19739  Biso   1.000  H
  H136     1.0000 0.13389  0.43429  0.19623  Biso   1.000  H
  C108     1.0000 0.11569  0.50551  0.69578  Biso   1.000  C
  H137     1.0000 0.22040  0.58630  0.74414  Biso   1.000  H
  H138     1.0000 0.27660  0.60751  0.65940  Biso   1.000  H
  H139     1.0000 0.26138  0.55729  0.75711  Biso   1.000  H
  C109     1.0000 0.48600  0.72742  0.52190  Biso   1.000  C
  C110     1.0000 0.42633  0.67102  0.70070  Biso   1.000  C
  H140     1.0000 0.52822  0.58141  0.90488  Biso   1.000  H
  H141     1.0000 0.59088  0.59239  0.85929  Biso   1.000  H
  C111     1.0000 0.27632  0.45312  0.93849  Biso   1.000  C
  C112     1.0000 0.20420  0.34768  0.99526  Biso   1.000  C
  H142     1.0000 0.18929  0.41890  0.99598  Biso   1.000  H
  H143     1.0000 0.14142  0.53100  0.76202  Biso   1.000  H
  C113     1.0000 0.07160  0.44660  0.74638  Biso   1.000  C
  C114     1.0000 0.08370  0.53519  0.63866  Biso   1.000  C
  C115     1.0000 0.47780  0.77549  0.54237  Biso   1.000  C
  C116     1.0000 0.51069  0.72539  0.41069  Biso   1.000  C
  H144     1.0000 0.41372  0.63411  0.74414  Biso   1.000  H
  H145     1.0000 0.39250  0.66912  0.65940  Biso   1.000  H
  H146     1.0000 0.44271  0.70409  0.75711  Biso   1.000  H
  N17      1.0000 0.28491  0.51199  0.95226  Biso   1.000  N
  H147     1.0000 0.31199  0.45220  0.96710  Biso   1.000  H
  C117     1.0000 0.26490  0.43509  0.80780  Biso   1.000  C
  H148     1.0000 0.16880  0.32232  0.04389  Biso   1.000  H
  H149     1.0000 0.23620  0.34049  0.02128  Biso   1.000  H
  C118     1.0000 0.19021  0.33092  0.86036  Biso   1.000  C
  H150     1.0000 0.04839  0.42018  0.67987  Biso   1.000  H
  H151     1.0000 0.09301  0.42900  0.78598  Biso   1.000  H
  C119     1.0000 0.03071  0.44959  0.83345  Biso   1.000  C
  N18      1.0000 0.12791  0.59450  0.59673  Biso   1.000  N
  C120     1.0000 0.04320  0.53920  0.73047  Biso   1.000  C
  H152     1.0000 0.05979  0.51120  0.56928  Biso   1.000  H
  C121     1.0000 0.49011  0.81760  0.46022  Biso   1.000  C
  H153     1.0000 0.46269  0.77849  0.61783  Biso   1.000  H
  C122     1.0000 0.52290  0.76852  0.32585  Biso   1.000  C
  H154     1.0000 0.51890  0.69461  0.39433  Biso   1.000  H
  C123     1.0000 0.33211  0.55561  0.99008  Biso   1.000  C
  H155     1.0000 0.23420  0.44311  0.77660  Biso   1.000  H
  H156     1.0000 0.30140  0.45921  0.76149  Biso   1.000  H
  C124     1.0000 0.24500  0.37061  0.79001  Biso   1.000  C
  H157     1.0000 0.17879  0.28898  0.84785  Biso   1.000  H
  H158     1.0000 0.15711  0.33630  0.83408  Biso   1.000  H
  H159     1.0000 0.05320  0.47182  0.90488  Biso   1.000  H
  H160     1.0000 0.00149  0.40911  0.85929  Biso   1.000  H
  C125     1.0000 0.99788  0.47949  0.78098  Biso   1.000  C
  C126     1.0000 0.13353  0.61192  0.49169  Biso   1.000  C
  H161     1.0000 0.02238  0.55790  0.69301  Biso   1.000  H
  H162     1.0000 0.06741  0.56500  0.79698  Biso   1.000  H
  C127     1.0000 0.51271  0.81491  0.35240  Biso   1.000  C
  C128     1.0000 0.47840  0.86651  0.49169  Biso   1.000  C
  C129     1.0000 0.54562  0.76402  0.20266  Biso   1.000  C
  C130     1.0000 0.38601  0.55402  0.03540  Biso   1.000  C
  C131     1.0000 0.33391  0.61320  0.99517  Biso   1.000  C
  H163     1.0000 0.23721  0.36091  0.70401  Biso   1.000  H
  H164     1.0000 0.27700  0.36320  0.81468  Biso   1.000  H
  H165     1.0000 0.97071  0.45471  0.71697  Biso   1.000  H
  H166     1.0000 0.97448  0.48479  0.84418  Biso   1.000  H
  C132     1.0000 0.18242  0.67252  0.46022  Biso   1.000  C
  C133     1.0000 0.09477  0.57559  0.38101  Biso   1.000  C
  H167     1.0000 0.52149  0.84468  0.29456  Biso   1.000  H
  N19      1.0000 0.46661  0.87211  0.59673  Biso   1.000  N
  C134     1.0000 0.48078  0.90519  0.38101  Biso   1.000  C
  N20      1.0000 0.57059  0.81059  0.14089  Biso   1.000  N
  C135     1.0000 0.53440  0.70621  0.16556  Biso   1.000  C
  H168     1.0000 0.37581  0.51301  0.04899  Biso   1.000  H
  H169     1.0000 0.39940  0.57598  0.11058  Biso   1.000  H
  H170     1.0000 0.41759  0.57188  0.97586  Biso   1.000  H
  C136     1.0000 0.28019  0.61400  0.99419  Biso   1.000  C
  C137     1.0000 0.38600  0.66621  0.99419  Biso   1.000  C
  C138     1.0000 0.18509  0.69779  0.35240  Biso   1.000  C
  C139     1.0000 0.22450  0.70228  0.54237  Biso   1.000  C
  H171     1.0000 0.10891  0.60011  0.30851  Biso   1.000  H
  H172     1.0000 0.09810  0.54022  0.36948  Biso   1.000  H
  H173     1.0000 0.05350  0.56399  0.39478  Biso   1.000  H
  H174     1.0000 0.11941  0.57589  0.29573  Biso   1.000  H
  H175     1.0000 0.07128  0.52668  0.38235  Biso   1.000  H
  C140     1.0000 0.45150  0.91630  0.63866  Biso   1.000  C
  H176     1.0000 0.49120  0.89112  0.30851  Biso   1.000  H
  H177     1.0000 0.44210  0.90192  0.36948  Biso   1.000  H
  H178     1.0000 0.51049  0.94651  0.39478  Biso   1.000  H
  H179     1.0000 0.45650  0.88062  0.29573  Biso   1.000  H
  H180     1.0000 0.45541  0.92869  0.38235  Biso   1.000  H
  C141     1.0000 0.58749  0.81042  0.01627  Biso   1.000  C
  H181     1.0000 0.53360  0.70400  0.07813  Biso   1.000  H
  H182     1.0000 0.49622  0.67591  0.19739  Biso   1.000  H
  H183     1.0000 0.56569  0.69959  0.19623  Biso   1.000  H
  H184     1.0000 0.24398  0.57779  0.99285  Biso   1.000  H
  C142     1.0000 0.27933  0.66612  0.99517  Biso   1.000  C
  H185     1.0000 0.42221  0.66621  0.99285  Biso   1.000  H
  C143     1.0000 0.38683  0.72072  0.99517  Biso   1.000  C
  C144     1.0000 0.23151  0.75441  0.32585  Biso   1.000  C
  H186     1.0000 0.15531  0.67679  0.29456  Biso   1.000  H
  H187     1.0000 0.22149  0.68420  0.61783  Biso   1.000  H
  C145     1.0000 0.27259  0.75860  0.52190  Biso   1.000  C
  C146     1.0000 0.38978  0.88428  0.69578  Biso   1.000  C
  C147     1.0000 0.49600  0.95678  0.73047  Biso   1.000  C
  H188     1.0000 0.45139  0.94020  0.56928  Biso   1.000  H
  C148     1.0000 0.54691  0.82320  0.93849  Biso   1.000  C
  C149     1.0000 0.65232  0.85650  0.99526  Biso   1.000  C
  H189     1.0000 0.58109  0.77042  0.99598  Biso   1.000  H
  C150     1.0000 0.33381  0.71979  0.99419  Biso   1.000  C
  C151     1.0000 0.22349  0.66789  0.99008  Biso   1.000  C
  C152     1.0000 0.44439  0.77650  0.99008  Biso   1.000  C
  C153     1.0000 0.23602  0.78162  0.20266  Biso   1.000  C
  C154     1.0000 0.27461  0.78532  0.41069  Biso   1.000  C
  C155     1.0000 0.32040  0.79150  0.61380  Biso   1.000  C
  N21      1.0000 0.34650  0.84759  0.60585  Biso   1.000  N
  H190     1.0000 0.38959  0.85862  0.76202  Biso   1.000  H
  C156     1.0000 0.37498  0.92838  0.74638  Biso   1.000  C
  H191     1.0000 0.53551  0.97760  0.69301  Biso   1.000  H
  H192     1.0000 0.49762  0.93262  0.79698  Biso   1.000  H
  C157     1.0000 0.48162  0.00212  0.78098  Biso   1.000  C
  N22      1.0000 0.48799  0.77289  0.95226  Biso   1.000  N
  H193     1.0000 0.54780  0.85981  0.96710  Biso   1.000  H
  C158     1.0000 0.56493  0.82982  0.80780  Biso   1.000  C
  H194     1.0000 0.67771  0.84649  0.04389  Biso   1.000  H
  H195     1.0000 0.65951  0.89570  0.02128  Biso   1.000  H
  C159     1.0000 0.66912  0.85932  0.86036  Biso   1.000  C
  H196     1.0000 0.33381  0.75600  0.99285  Biso   1.000  H
  C160     1.0000 0.16798  0.61400  0.03540  Biso   1.000  C
  N23      1.0000 0.22710  0.71512  0.95226  Biso   1.000  N
  C161     1.0000 0.44603  0.83202  0.03540  Biso   1.000  C
  N24      1.0000 0.18939  0.76001  0.14089  Biso   1.000  N
  C162     1.0000 0.29379  0.82819  0.16556  Biso   1.000  C
  H197     1.0000 0.30541  0.82431  0.39433  Biso   1.000  H
  C163     1.0000 0.32899  0.75529  0.70070  Biso   1.000  C
  H198     1.0000 0.37182  0.95162  0.67987  Biso   1.000  H
  H199     1.0000 0.33598  0.90699  0.78598  Biso   1.000  H
  C164     1.0000 0.41889  0.96931  0.83345  Biso   1.000  C
  H200     1.0000 0.48401  0.02928  0.71697  Biso   1.000  H
  H201     1.0000 0.51030  0.02549  0.84418  Biso   1.000  H
  H202     1.0000 0.55691  0.79110  0.77660  Biso   1.000  H
  H203     1.0000 0.54080  0.84221  0.76149  Biso   1.000  H
  C165     1.0000 0.62942  0.87440  0.79001  Biso   1.000  C
  H204     1.0000 0.71101  0.88980  0.84785  Biso   1.000  H
  H205     1.0000 0.66370  0.82082  0.83408  Biso   1.000  H
  H206     1.0000 0.13718  0.62418  0.04899  Biso   1.000  H
  H207     1.0000 0.17659  0.60059  0.11058  Biso   1.000  H
  H208     1.0000 0.15430  0.58242  0.97586  Biso   1.000  H
  C166     1.0000 0.17682  0.72372  0.93849  Biso   1.000  C
  H209     1.0000 0.48701  0.86281  0.04899  Biso   1.000  H
  H210     1.0000 0.42399  0.82338  0.11058  Biso   1.000  H
  H211     1.0000 0.42808  0.84570  0.97586  Biso   1.000  H
  C167     1.0000 0.18962  0.77712  0.01627  Biso   1.000  C
  H212     1.0000 0.29599  0.82960  0.07813  Biso   1.000  H
  H213     1.0000 0.32410  0.82029  0.19739  Biso   1.000  H
  H214     1.0000 0.30042  0.86611  0.19623  Biso   1.000  H
  H215     1.0000 0.36589  0.77959  0.74414  Biso   1.000  H
  H216     1.0000 0.33092  0.72341  0.65940  Biso   1.000  H
  H217     1.0000 0.29591  0.73862  0.75711  Biso   1.000  H
  H218     1.0000 0.41860  0.94682  0.90488  Biso   1.000  H
  H219     1.0000 0.40759  0.99850  0.85929  Biso   1.000  H
  H220     1.0000 0.63911  0.87630  0.70401  Biso   1.000  H
  H221     1.0000 0.63681  0.91379  0.81468  Biso   1.000  H
  H222     1.0000 0.14021  0.68800  0.96710  Biso   1.000  H
  C168     1.0000 0.17021  0.73509  0.80780  Biso   1.000  C
  C169     1.0000 0.14352  0.79582  0.99526  Biso   1.000  C
  H223     1.0000 0.22961  0.81072  0.99598  Biso   1.000  H
  H224     1.0000 0.20889  0.76579  0.77660  Biso   1.000  H
  H225     1.0000 0.15782  0.69862  0.76149  Biso   1.000  H
  C170     1.0000 0.12558  0.75498  0.79001  Biso   1.000  C
  H226     1.0000 0.15349  0.83119  0.04389  Biso   1.000  H
  H227     1.0000 0.10429  0.76380  0.02128  Biso   1.000  H
  C171     1.0000 0.14069  0.80980  0.86036  Biso   1.000  C
  H228     1.0000 0.12368  0.76279  0.70401  Biso   1.000  H
  H229     1.0000 0.08622  0.72301  0.81468  Biso   1.000  H
  H230     1.0000 0.11020  0.82122  0.84785  Biso   1.000  H
  H231     1.0000 0.17921  0.84292  0.83408  Biso   1.000  H
  C172     1.0000 0.13440  0.31050  0.54488  Biso   1.000  C
  C173     1.0000 0.10379  0.24189  0.53826  Biso   1.000  C
  C174     1.0000 0.10482  0.33330  0.46478  Biso   1.000  C
  H232     1.0000 0.13319  0.32259  0.62829  Biso   1.000  H
  H233     1.0000 0.17630  0.32801  0.52128  Biso   1.000  H
  C175     1.0000 0.10111  0.22200  0.40980  Biso   1.000  C
  H234     1.0000 0.12610  0.22821  0.58743  Biso   1.000  H
  H235     1.0000 0.06341  0.22429  0.57116  Biso   1.000  H
  C176     1.0000 0.10401  0.31350  0.33587  Biso   1.000  C
  H236     1.0000 0.12587  0.37679  0.46826  Biso   1.000  H
  H237     1.0000 0.06380  0.31840  0.49240  Biso   1.000  H
  N25      1.0000 0.06590  0.15770  0.40443  Biso   1.000  N
  C177     1.0000 0.07209  0.24660  0.32809  Biso   1.000  C
  H238     1.0000 0.14191  0.23509  0.38056  Biso   1.000  H
  H239     1.0000 0.08389  0.32872  0.28419  Biso   1.000  H
  H240     1.0000 0.14490  0.32991  0.30681  Biso   1.000  H
  C178     1.0000 0.08369  0.12568  0.36027  Biso   1.000  C
  N26      1.0000 0.07650  0.22870  0.20499  Biso   1.000  N
  H241     1.0000 0.02970  0.22980  0.35071  Biso   1.000  H
  C179     1.0000 0.14562  0.14672  0.31003  Biso   1.000  C
  C180     1.0000 0.04129  0.06020  0.35741  Biso   1.000  C
  C181     1.0000 0.03031  0.19421  0.14420  Biso   1.000  C
  H242     1.0000 0.14662  0.11351  0.27222  Biso   1.000  H
  H243     1.0000 0.17441  0.16229  0.37511  Biso   1.000  H
  H244     1.0000 0.15520  0.17772  0.25049  Biso   1.000  H
  C182     1.0000 0.06032  0.02051  0.35634  Biso   1.000  C
  C183     1.0000 0.97950  0.03982  0.35634  Biso   1.000  C
  C184     1.0000 0.04191  0.17869  0.02414  Biso   1.000  C
  C185     1.0000 0.96791  0.16749  0.18121  Biso   1.000  C
  H245     1.0000 0.10140  0.03391  0.35482  Biso   1.000  H
  C186     1.0000 0.01893  0.95872  0.35741  Biso   1.000  C
  C187     1.0000 0.93981  0.98113  0.35741  Biso   1.000  C
  H246     1.0000 0.96612  0.06752  0.35482  Biso   1.000  H
  C188     1.0000 0.99630  0.15232  0.93510  Biso   1.000  C
  C189     1.0000 0.09649  0.18610  0.99428  Biso   1.000  C
  H247     1.0000 0.96600  0.17750  0.26488  Biso   1.000  H
  H248     1.0000 0.94840  0.12458  0.17272  Biso   1.000  H
  H249     1.0000 0.94799  0.18279  0.13061  Biso   1.000  H
  C190     1.0000 0.96020  0.93972  0.35634  Biso   1.000  C
  C191     1.0000 0.04198  0.91630  0.36027  Biso   1.000  C
  C192     1.0000 0.87433  0.95802  0.36027  Biso   1.000  C
  H250     1.0000 0.95782  0.14540  0.95235  Biso   1.000  H
  C193     1.0000 0.00802  0.13711  0.82567  Biso   1.000  C
  H251     1.0000 0.12762  0.20392  0.05087  Biso   1.000  H
  C194     1.0000 0.10759  0.16859  0.88468  Biso   1.000  C
  H252     1.0000 0.93250  0.89862  0.35482  Biso   1.000  H
  N27      1.0000 0.09179  0.93412  0.40443  Biso   1.000  N
  C195     1.0000 0.00109  0.85438  0.31003  Biso   1.000  C
  N28      1.0000 0.84231  0.90818  0.40443  Biso   1.000  N
  C196     1.0000 0.85329  0.99890  0.31003  Biso   1.000  C
  C197     1.0000 0.95951  0.10800  0.73333  Biso   1.000  C
  C198     1.0000 0.06280  0.14509  0.79877  Biso   1.000  C
  C199     1.0000 0.16762  0.17812  0.85527  Biso   1.000  C
  C200     1.0000 0.12090  0.89892  0.40980  Biso   1.000  C
  H253     1.0000 0.96692  0.85341  0.27222  Biso   1.000  H
  H254     1.0000 0.98788  0.82559  0.37511  Biso   1.000  H
  H255     1.0000 0.02251  0.84481  0.25049  Biso   1.000  H
  C201     1.0000 0.77801  0.87912  0.40980  Biso   1.000  C
  H256     1.0000 0.82232  0.97751  0.25049  Biso   1.000  H
  H257     1.0000 0.88652  0.03312  0.27222  Biso   1.000  H
  H258     1.0000 0.83769  0.01208  0.37511  Biso   1.000  H
  N29      1.0000 0.91941  0.12440  0.73610  Biso   1.000  N
  C202     1.0000 0.96341  0.06699  0.64760  Biso   1.000  C
  H259     1.0000 0.07020  0.13468  0.72197  Biso   1.000  H
  N30      1.0000 0.17999  0.17719  0.74316  Biso   1.000  N
  C203     1.0000 0.20612  0.18081  0.95718  Biso   1.000  C
  C204     1.0000 0.17450  0.92790  0.32809  Biso   1.000  C
  C205     1.0000 0.13810  0.89619  0.53826  Biso   1.000  C
  H260     1.0000 0.09319  0.85809  0.38056  Biso   1.000  H
  C206     1.0000 0.75342  0.82550  0.32809  Biso   1.000  C
  C207     1.0000 0.75811  0.86192  0.53826  Biso   1.000  C
  H261     1.0000 0.76490  0.90682  0.38056  Biso   1.000  H
  C208     1.0000 0.86911  0.09821  0.65010  Biso   1.000  C
  H262     1.0000 0.92470  0.04211  0.61067  Biso   1.000  H
  H263     1.0000 0.97569  0.04220  0.68979  Biso   1.000  H
  H264     1.0000 0.99229  0.08961  0.58537  Biso   1.000  H
  C209     1.0000 0.23638  0.18579  0.70812  Biso   1.000  C
  H265     1.0000 0.18439  0.17371  0.03254  Biso   1.000  H
  H266     1.0000 0.21729  0.15060  0.94627  Biso   1.000  H
  H267     1.0000 0.24158  0.21979  0.95941  Biso   1.000  H
  N31      1.0000 0.15220  0.92349  0.20499  Biso   1.000  N
  H268     1.0000 0.20010  0.97032  0.35071  Biso   1.000  H
  C210     1.0000 0.20950  0.89601  0.33587  Biso   1.000  C
  C211     1.0000 0.17611  0.86558  0.54488  Biso   1.000  C
  H269     1.0000 0.10210  0.87392  0.58743  Biso   1.000  H
  H270     1.0000 0.16089  0.93658  0.57116  Biso   1.000  H
  N32      1.0000 0.77129  0.84781  0.20499  Biso   1.000  N
  H271     1.0000 0.77022  0.79992  0.35071  Biso   1.000  H
  C212     1.0000 0.68649  0.79048  0.33587  Biso   1.000  C
  C213     1.0000 0.68949  0.82391  0.54488  Biso   1.000  C
  H272     1.0000 0.77182  0.89791  0.58743  Biso   1.000  H
  H273     1.0000 0.77570  0.83913  0.57116  Biso   1.000  H
  C214     1.0000 0.81421  0.05058  0.70812  Biso   1.000  C
  H274     1.0000 0.87982  0.08022  0.58269  Biso   1.000  H
  C215     1.0000 0.86151  0.14862  0.59950  Biso   1.000  C
  H275     1.0000 0.26208  0.19518  0.78008  Biso   1.000  H
  C216     1.0000 0.26482  0.23800  0.61908  Biso   1.000  C
  C217     1.0000 0.22909  0.13089  0.65010  Biso   1.000  C
  C218     1.0000 0.16389  0.96970  0.14420  Biso   1.000  C
  H276     1.0000 0.24480  0.91612  0.28419  Biso   1.000  H
  H277     1.0000 0.18499  0.85509  0.30681  Biso   1.000  H
  C219     1.0000 0.22851  0.89522  0.46478  Biso   1.000  C
  H278     1.0000 0.18941  0.86682  0.62829  Biso   1.000  H
  H279     1.0000 0.15169  0.82369  0.52128  Biso   1.000  H
  C220     1.0000 0.80580  0.83608  0.14420  Biso   1.000  C
  H280     1.0000 0.67129  0.75520  0.28419  Biso   1.000  H
  H281     1.0000 0.67010  0.81500  0.30681  Biso   1.000  H
  C221     1.0000 0.66670  0.77152  0.46478  Biso   1.000  C
  H282     1.0000 0.67741  0.81059  0.62829  Biso   1.000  H
  H283     1.0000 0.67201  0.84830  0.52128  Biso   1.000  H
  N33      1.0000 0.82281  0.00278  0.74316  Biso   1.000  N
  H284     1.0000 0.80480  0.06690  0.78008  Biso   1.000  H
  C222     1.0000 0.76199  0.02681  0.61908  Biso   1.000  C
  H285     1.0000 0.85478  0.16939  0.66610  Biso   1.000  H
  H286     1.0000 0.89810  0.17719  0.55766  Biso   1.000  H
  C223     1.0000 0.81021  0.12568  0.51332  Biso   1.000  C
  H287     1.0000 0.23710  0.23068  0.55239  Biso   1.000  H
  H288     1.0000 0.27231  0.27461  0.66020  Biso   1.000  H
  C224     1.0000 0.32211  0.24612  0.56946  Biso   1.000  C
  N34      1.0000 0.20503  0.08061  0.73610  Biso   1.000  N
  H289     1.0000 0.20042  0.12022  0.58269  Biso   1.000  H
  C225     1.0000 0.28710  0.13852  0.59950  Biso   1.000  C
  C226     1.0000 0.19960  0.03210  0.18121  Biso   1.000  C
  C227     1.0000 0.13678  0.95811  0.02414  Biso   1.000  C
  H290     1.0000 0.25090  0.87410  0.46826  Biso   1.000  H
  H291     1.0000 0.25460  0.93619  0.49240  Biso   1.000  H
  C228     1.0000 0.82131  0.86320  0.02414  Biso   1.000  C
  C229     1.0000 0.83249  0.80041  0.18121  Biso   1.000  C
  H292     1.0000 0.62322  0.74912  0.46826  Biso   1.000  H
  H293     1.0000 0.68160  0.74541  0.49240  Biso   1.000  H
  C230     1.0000 0.82190  0.98950  0.85527  Biso   1.000  C
  H294     1.0000 0.72540  0.99771  0.66020  Biso   1.000  H
  H295     1.0000 0.76931  0.00639  0.55239  Biso   1.000  H
  C231     1.0000 0.75389  0.07598  0.56946  Biso   1.000  C
  H296     1.0000 0.81981  0.11082  0.44019  Biso   1.000  H
  H297     1.0000 0.80349  0.15832  0.48981  Biso   1.000  H
  H298     1.0000 0.35159  0.25908  0.63472  Biso   1.000  H
  H299     1.0000 0.33729  0.27769  0.50831  Biso   1.000  H
  C232     1.0000 0.31549  0.18980  0.51332  Biso   1.000  C
  C233     1.0000 0.14849  0.04048  0.73333  Biso   1.000  C
  H300     1.0000 0.31463  0.14522  0.66610  Biso   1.000  H
  H301     1.0000 0.27911  0.10191  0.55766  Biso   1.000  H
  H302     1.0000 0.21151  0.03400  0.26488  Biso   1.000  H
  H303     1.0000 0.17620  0.05160  0.17272  Biso   1.000  H
  H304     1.0000 0.23479  0.05199  0.13061  Biso   1.000  H
  C234     1.0000 0.08959  0.90351  0.99428  Biso   1.000  C
  C235     1.0000 0.15599  0.00370  0.93510  Biso   1.000  C
  C236     1.0000 0.81389  0.91039  0.99428  Biso   1.000  C
  C237     1.0000 0.84773  0.84402  0.93510  Biso   1.000  C
  H305     1.0000 0.82249  0.78850  0.26488  Biso   1.000  H
  H306     1.0000 0.87540  0.82382  0.17272  Biso   1.000  H
  H307     1.0000 0.81722  0.76521  0.13061  Biso   1.000  H
  C238     1.0000 0.83141  0.93901  0.88468  Biso   1.000  C
  C239     1.0000 0.81922  0.02531  0.95718  Biso   1.000  C
  H308     1.0000 0.74092  0.09252  0.63472  Biso   1.000  H
  H309     1.0000 0.72227  0.05958  0.50831  Biso   1.000  H
  H310     1.0000 0.29098  0.18019  0.44019  Biso   1.000  H
  H311     1.0000 0.35482  0.19651  0.48981  Biso   1.000  H
  C240     1.0000 0.12911  0.99202  0.82567  Biso   1.000  C
  C241     1.0000 0.10362  0.03660  0.64760  Biso   1.000  C
  C242     1.0000 0.06100  0.89240  0.88468  Biso   1.000  C
  H312     1.0000 0.07630  0.87242  0.05087  Biso   1.000  H
  H313     1.0000 0.18762  0.04220  0.95235  Biso   1.000  H
  H314     1.0000 0.79610  0.92371  0.05087  Biso   1.000  H
  C243     1.0000 0.86290  0.87092  0.82567  Biso   1.000  C
  H315     1.0000 0.85460  0.81240  0.95235  Biso   1.000  H
  C244     1.0000 0.85490  0.91771  0.79877  Biso   1.000  C
  H316     1.0000 0.84941  0.06668  0.94627  Biso   1.000  H
  H317     1.0000 0.78018  0.02179  0.95941  Biso   1.000  H
  H318     1.0000 0.82632  0.01072  0.03254  Biso   1.000  H
  C245     1.0000 0.08230  0.93720  0.79877  Biso   1.000  C
  H319     1.0000 0.11740  0.07532  0.61067  Biso   1.000  H
  H320     1.0000 0.06650  0.02430  0.68979  Biso   1.000  H
  H321     1.0000 0.09731  0.00772  0.58537  Biso   1.000  H
  C246     1.0000 0.01051  0.83242  0.85527  Biso   1.000  C
  C247     1.0000 0.89200  0.85152  0.73333  Biso   1.000  C
  H322     1.0000 0.86527  0.93548  0.72197  Biso   1.000  H
  H323     1.0000 0.06450  0.92979  0.72197  Biso   1.000  H
  N35      1.0000 0.99718  0.81999  0.74316  Biso   1.000  N
  C248     1.0000 0.97472  0.79392  0.95718  Biso   1.000  C
  N36      1.0000 0.87561  0.79498  0.73610  Biso   1.000  N
  C249     1.0000 0.93301  0.89641  0.64760  Biso   1.000  C
  C250     1.0000 0.94939  0.76358  0.70812  Biso   1.000  C
  H324     1.0000 0.93329  0.78272  0.94627  Biso   1.000  H
  H325     1.0000 0.97820  0.75842  0.95941  Biso   1.000  H
  H326     1.0000 0.98931  0.81562  0.03254  Biso   1.000  H
  C251     1.0000 0.90180  0.77090  0.65010  Biso   1.000  C
  H327     1.0000 0.95792  0.88261  0.61067  Biso   1.000  H
  H328     1.0000 0.95781  0.93350  0.68979  Biso   1.000  H
  H329     1.0000 0.91042  0.90272  0.58537  Biso   1.000  H
  H330     1.0000 0.93312  0.73792  0.78008  Biso   1.000  H
  C252     1.0000 0.97319  0.73518  0.61908  Biso   1.000  C
  H331     1.0000 0.91982  0.79961  0.58269  Biso   1.000  H
  C253     1.0000 0.85141  0.71291  0.59950  Biso   1.000  C
  H332     1.0000 0.99363  0.76292  0.55239  Biso   1.000  H
  C254     1.0000 0.92400  0.67790  0.56946  Biso   1.000  C
  H333     1.0000 0.00229  0.72769  0.66020  Biso   1.000  H
  H334     1.0000 0.83059  0.68539  0.66610  Biso   1.000  H
  H335     1.0000 0.82279  0.72089  0.55766  Biso   1.000  H
  C255     1.0000 0.87430  0.68451  0.51332  Biso   1.000  C
  H336     1.0000 0.90749  0.64839  0.63472  Biso   1.000  H
  H337     1.0000 0.94038  0.66268  0.50831  Biso   1.000  H
  H338     1.0000 0.88921  0.70899  0.44019  Biso   1.000  H
  H339     1.0000 0.84171  0.64522  0.48981  Biso   1.000  H
