data_image0
_cell_length_a       11.074
_cell_length_b       12.666
_cell_length_c       23.328
_cell_angle_alpha    86.47
_cell_angle_beta     82.62
_cell_angle_gamma    71.06

_symmetry_space_group_name_H-M    "P 1"
_symmetry_int_tables_number       1

loop_
  _symmetry_equiv_pos_as_xyz
  'x, y, z'

loop_
  _atom_site_label
  _atom_site_occupancy
  _atom_site_fract_x
  _atom_site_fract_y
  _atom_site_fract_z
  _atom_site_thermal_displace_type
  _atom_site_B_iso_or_equiv
  _atom_site_type_symbol
