data_image0
_cell_length_a       22.231
_cell_length_b       16.865
_cell_length_c       8.152
_cell_angle_alpha    90
_cell_angle_beta     90
_cell_angle_gamma    90

_symmetry_space_group_name_H-M    "P 1"
_symmetry_int_tables_number       1

loop_
  _symmetry_equiv_pos_as_xyz
  'x, y, z'

loop_
  _atom_site_label
  _atom_site_occupancy
  _atom_site_fract_x
  _atom_site_fract_y
  _atom_site_fract_z
  _atom_site_thermal_displace_type
  _atom_site_B_iso_or_equiv
  _atom_site_type_symbol
  O1       1.0000 0.14169  0.16181  0.38776  Biso   1.000  O
  C1       1.0000 0.14448  0.24222  0.35868  Biso   1.000  C
  C2       1.0000 0.19518  0.11521  0.36592  Biso   1.000  C
  C3       1.0000 0.11718  0.28799  0.50172  Biso   1.000  C
  O2       1.0000 0.10980  0.26392  0.21578  Biso   1.000  O
  C4       1.0000 0.20139  0.06937  0.52956  Biso   1.000  C
  C5       1.0000 0.18461  0.05918  0.22571  Biso   1.000  C
  C6       1.0000 0.04921  0.26119  0.52282  Biso   1.000  C
  O3       1.0000 0.15141  0.26558  0.64487  Biso   1.000  O
  C7       1.0000 0.04791  0.23309  0.22068  Biso   1.000  C
  C8       1.0000 0.25280  0.00818  0.51227  Biso   1.000  C
  O4       1.0000 0.21861  0.12647  0.65530  Biso   1.000  O
  C9       1.0000 0.18240  0.09902  0.05704  Biso   1.000  C
  O5       1.0000 0.23481  0.00302  0.22166  Biso   1.000  O
  C10      1.0000 0.01669  0.27993  0.36224  Biso   1.000  C
  O6       1.0000 0.02411  0.31100  0.64990  Biso   1.000  O
  C11      1.0000 0.02078  0.26250  0.05213  Biso   1.000  C
  C12      1.0000 0.23940  0.95529  0.36494  Biso   1.000  C
  O7       1.0000 0.25410  0.95689  0.64953  Biso   1.000  O
  O8       1.0000 0.95862  0.24471  0.38457  Biso   1.000  O
  O9       1.0000 0.18582  0.91479  0.39340  Biso   1.000  O
  C13      1.0000 0.90770  0.29452  0.35206  Biso   1.000  C
  C14      1.0000 0.18218  0.83160  0.36506  Biso   1.000  C
  C15      1.0000 0.86420  0.28859  0.50221  Biso   1.000  C
  O10      1.0000 0.87612  0.26522  0.21295  Biso   1.000  O
  C16      1.0000 0.15492  0.79988  0.52417  Biso   1.000  C
  C17      1.0000 0.13922  0.82058  0.21774  Biso   1.000  C
  C18      1.0000 0.84508  0.20012  0.52417  Biso   1.000  C
  O11      1.0000 0.89762  0.31693  0.63714  Biso   1.000  O
  C19      1.0000 0.86078  0.17942  0.21774  Biso   1.000  C
  C20      1.0000 0.13580  0.71141  0.50221  Biso   1.000  C
  O12      1.0000 0.20080  0.80320  0.64696  Biso   1.000  O
  C21      1.0000 0.17179  0.83777  0.05581  Biso   1.000  C
  O13      1.0000 0.12388  0.73478  0.21295  Biso   1.000  O
  C22      1.0000 0.81782  0.16840  0.36506  Biso   1.000  C
  O14      1.0000 0.79920  0.19680  0.64696  Biso   1.000  O
  C23      1.0000 0.82821  0.16223  0.05581  Biso   1.000  C
  C24      1.0000 0.09230  0.70548  0.35206  Biso   1.000  C
  O15      1.0000 0.10238  0.68307  0.63714  Biso   1.000  O
  O16      1.0000 0.81418  0.08521  0.39340  Biso   1.000  O
  O17      1.0000 0.04138  0.75529  0.38457  Biso   1.000  O
  C25      1.0000 0.76060  0.04471  0.36494  Biso   1.000  C
  C26      1.0000 0.98331  0.72007  0.36224  Biso   1.000  C
  C27      1.0000 0.74720  0.99182  0.51227  Biso   1.000  C
  O18      1.0000 0.76519  0.99698  0.22166  Biso   1.000  O
  C28      1.0000 0.95079  0.73881  0.52282  Biso   1.000  C
  C29      1.0000 0.95209  0.76691  0.22068  Biso   1.000  C
  C30      1.0000 0.79861  0.93063  0.52956  Biso   1.000  C
  O19      1.0000 0.74590  0.04311  0.64953  Biso   1.000  O
  C31      1.0000 0.81539  0.94082  0.22571  Biso   1.000  C
  C32      1.0000 0.88282  0.71201  0.50172  Biso   1.000  C
  O20      1.0000 0.97589  0.68900  0.64990  Biso   1.000  O
  O21      1.0000 0.89020  0.73608  0.21578  Biso   1.000  O
  C33      1.0000 0.97922  0.73750  0.05213  Biso   1.000  C
  C34      1.0000 0.80482  0.88479  0.36592  Biso   1.000  C
  O22      1.0000 0.78139  0.87353  0.65530  Biso   1.000  O
  C35      1.0000 0.81760  0.90098  0.05704  Biso   1.000  C
  C36      1.0000 0.85552  0.75778  0.35868  Biso   1.000  C
  O23      1.0000 0.84859  0.73442  0.64487  Biso   1.000  O
  O24      1.0000 0.85831  0.83819  0.38776  Biso   1.000  O
  O25      1.0000 0.14169  0.16181  0.38776  Biso   1.000  O
  C37      1.0000 0.14448  0.24222  0.35868  Biso   1.000  C
  C38      1.0000 0.19518  0.11521  0.36592  Biso   1.000  C
  C39      1.0000 0.11718  0.28799  0.50172  Biso   1.000  C
  O26      1.0000 0.10980  0.26392  0.21578  Biso   1.000  O
  C40      1.0000 0.20139  0.06937  0.52956  Biso   1.000  C
  C41      1.0000 0.18461  0.05918  0.22571  Biso   1.000  C
  C42      1.0000 0.04921  0.26119  0.52282  Biso   1.000  C
  O27      1.0000 0.15141  0.26558  0.64487  Biso   1.000  O
  C43      1.0000 0.04791  0.23309  0.22068  Biso   1.000  C
  C44      1.0000 0.25280  0.00818  0.51227  Biso   1.000  C
  O28      1.0000 0.21861  0.12647  0.65530  Biso   1.000  O
  C45      1.0000 0.18240  0.09902  0.05704  Biso   1.000  C
  O29      1.0000 0.23481  0.00302  0.22166  Biso   1.000  O
  C46      1.0000 0.01669  0.27993  0.36224  Biso   1.000  C
  O30      1.0000 0.02411  0.31100  0.64990  Biso   1.000  O
  C47      1.0000 0.02078  0.26250  0.05213  Biso   1.000  C
  C48      1.0000 0.23940  0.95529  0.36494  Biso   1.000  C
  O31      1.0000 0.25410  0.95689  0.64953  Biso   1.000  O
  O32      1.0000 0.95862  0.24471  0.38457  Biso   1.000  O
  O33      1.0000 0.18582  0.91479  0.39340  Biso   1.000  O
  C49      1.0000 0.90770  0.29452  0.35206  Biso   1.000  C
  C50      1.0000 0.18218  0.83160  0.36506  Biso   1.000  C
  C51      1.0000 0.86420  0.28859  0.50221  Biso   1.000  C
  O34      1.0000 0.87612  0.26522  0.21295  Biso   1.000  O
  C52      1.0000 0.15492  0.79988  0.52417  Biso   1.000  C
  C53      1.0000 0.13922  0.82058  0.21774  Biso   1.000  C
  C54      1.0000 0.84508  0.20012  0.52417  Biso   1.000  C
  O35      1.0000 0.89762  0.31693  0.63714  Biso   1.000  O
  C55      1.0000 0.86078  0.17942  0.21774  Biso   1.000  C
  C56      1.0000 0.13580  0.71141  0.50221  Biso   1.000  C
  O36      1.0000 0.20080  0.80320  0.64696  Biso   1.000  O
  C57      1.0000 0.17179  0.83777  0.05581  Biso   1.000  C
  O37      1.0000 0.12388  0.73478  0.21295  Biso   1.000  O
  C58      1.0000 0.81782  0.16840  0.36506  Biso   1.000  C
  O38      1.0000 0.79920  0.19680  0.64696  Biso   1.000  O
  C59      1.0000 0.82821  0.16223  0.05581  Biso   1.000  C
  C60      1.0000 0.09230  0.70548  0.35206  Biso   1.000  C
  O39      1.0000 0.10238  0.68307  0.63714  Biso   1.000  O
  O40      1.0000 0.81418  0.08521  0.39340  Biso   1.000  O
  O41      1.0000 0.04138  0.75529  0.38457  Biso   1.000  O
  C61      1.0000 0.76060  0.04471  0.36494  Biso   1.000  C
  C62      1.0000 0.98331  0.72007  0.36224  Biso   1.000  C
  C63      1.0000 0.74720  0.99182  0.51227  Biso   1.000  C
  O42      1.0000 0.76519  0.99698  0.22166  Biso   1.000  O
  C64      1.0000 0.95079  0.73881  0.52282  Biso   1.000  C
  C65      1.0000 0.95209  0.76691  0.22068  Biso   1.000  C
  C66      1.0000 0.79861  0.93063  0.52956  Biso   1.000  C
  O43      1.0000 0.74590  0.04311  0.64953  Biso   1.000  O
  C67      1.0000 0.81539  0.94082  0.22571  Biso   1.000  C
  C68      1.0000 0.88282  0.71201  0.50172  Biso   1.000  C
  O44      1.0000 0.97589  0.68900  0.64990  Biso   1.000  O
  O45      1.0000 0.89020  0.73608  0.21578  Biso   1.000  O
  C69      1.0000 0.97922  0.73750  0.05213  Biso   1.000  C
  C70      1.0000 0.80482  0.88479  0.36592  Biso   1.000  C
  O46      1.0000 0.78139  0.87353  0.65530  Biso   1.000  O
  C71      1.0000 0.81760  0.90098  0.05704  Biso   1.000  C
  C72      1.0000 0.85552  0.75778  0.35868  Biso   1.000  C
  O47      1.0000 0.84859  0.73442  0.64487  Biso   1.000  O
  O48      1.0000 0.85831  0.83819  0.38776  Biso   1.000  O
  O49      1.0000 0.14169  0.16181  0.38776  Biso   1.000  O
  C73      1.0000 0.14448  0.24222  0.35868  Biso   1.000  C
  C74      1.0000 0.19518  0.11521  0.36592  Biso   1.000  C
  C75      1.0000 0.11718  0.28799  0.50172  Biso   1.000  C
  O50      1.0000 0.10980  0.26392  0.21578  Biso   1.000  O
  C76      1.0000 0.20139  0.06937  0.52956  Biso   1.000  C
  C77      1.0000 0.18461  0.05918  0.22571  Biso   1.000  C
  C78      1.0000 0.04921  0.26119  0.52282  Biso   1.000  C
  O51      1.0000 0.15141  0.26558  0.64487  Biso   1.000  O
  C79      1.0000 0.04791  0.23309  0.22068  Biso   1.000  C
  C80      1.0000 0.25280  0.00818  0.51227  Biso   1.000  C
  O52      1.0000 0.21861  0.12647  0.65530  Biso   1.000  O
  C81      1.0000 0.18240  0.09902  0.05704  Biso   1.000  C
  O53      1.0000 0.23481  0.00302  0.22166  Biso   1.000  O
  C82      1.0000 0.01669  0.27993  0.36224  Biso   1.000  C
  O54      1.0000 0.02411  0.31100  0.64990  Biso   1.000  O
  C83      1.0000 0.02078  0.26250  0.05213  Biso   1.000  C
  C84      1.0000 0.23940  0.95529  0.36494  Biso   1.000  C
  O55      1.0000 0.25410  0.95689  0.64953  Biso   1.000  O
  O56      1.0000 0.95862  0.24471  0.38457  Biso   1.000  O
  O57      1.0000 0.18582  0.91479  0.39340  Biso   1.000  O
  C85      1.0000 0.90770  0.29452  0.35206  Biso   1.000  C
  C86      1.0000 0.18218  0.83160  0.36506  Biso   1.000  C
  C87      1.0000 0.86420  0.28859  0.50221  Biso   1.000  C
  O58      1.0000 0.87612  0.26522  0.21295  Biso   1.000  O
  C88      1.0000 0.15492  0.79988  0.52417  Biso   1.000  C
  C89      1.0000 0.13922  0.82058  0.21774  Biso   1.000  C
  C90      1.0000 0.84508  0.20012  0.52417  Biso   1.000  C
  O59      1.0000 0.89762  0.31693  0.63714  Biso   1.000  O
  C91      1.0000 0.86078  0.17942  0.21774  Biso   1.000  C
  C92      1.0000 0.13580  0.71141  0.50221  Biso   1.000  C
  O60      1.0000 0.20080  0.80320  0.64696  Biso   1.000  O
  C93      1.0000 0.17179  0.83777  0.05581  Biso   1.000  C
  O61      1.0000 0.12388  0.73478  0.21295  Biso   1.000  O
  C94      1.0000 0.81782  0.16840  0.36506  Biso   1.000  C
  O62      1.0000 0.79920  0.19680  0.64696  Biso   1.000  O
  C95      1.0000 0.82821  0.16223  0.05581  Biso   1.000  C
  C96      1.0000 0.09230  0.70548  0.35206  Biso   1.000  C
  O63      1.0000 0.10238  0.68307  0.63714  Biso   1.000  O
  O64      1.0000 0.81418  0.08521  0.39340  Biso   1.000  O
  O65      1.0000 0.04138  0.75529  0.38457  Biso   1.000  O
  C97      1.0000 0.76060  0.04471  0.36494  Biso   1.000  C
  C98      1.0000 0.98331  0.72007  0.36224  Biso   1.000  C
  C99      1.0000 0.74720  0.99182  0.51227  Biso   1.000  C
  O66      1.0000 0.76519  0.99698  0.22166  Biso   1.000  O
  C100     1.0000 0.95079  0.73881  0.52282  Biso   1.000  C
  C101     1.0000 0.95209  0.76691  0.22068  Biso   1.000  C
  C102     1.0000 0.79861  0.93063  0.52956  Biso   1.000  C
  O67      1.0000 0.74590  0.04311  0.64953  Biso   1.000  O
  C103     1.0000 0.81539  0.94082  0.22571  Biso   1.000  C
  C104     1.0000 0.88282  0.71201  0.50172  Biso   1.000  C
  O68      1.0000 0.97589  0.68900  0.64990  Biso   1.000  O
  O69      1.0000 0.89020  0.73608  0.21578  Biso   1.000  O
  C105     1.0000 0.97922  0.73750  0.05213  Biso   1.000  C
  C106     1.0000 0.80482  0.88479  0.36592  Biso   1.000  C
  O70      1.0000 0.78139  0.87353  0.65530  Biso   1.000  O
  C107     1.0000 0.81760  0.90098  0.05704  Biso   1.000  C
  C108     1.0000 0.85552  0.75778  0.35868  Biso   1.000  C
  O71      1.0000 0.84859  0.73442  0.64487  Biso   1.000  O
  O72      1.0000 0.85831  0.83819  0.38776  Biso   1.000  O
  O73      1.0000 0.14169  0.16181  0.38776  Biso   1.000  O
  C109     1.0000 0.14448  0.24222  0.35868  Biso   1.000  C
  C110     1.0000 0.19518  0.11521  0.36592  Biso   1.000  C
  C111     1.0000 0.11718  0.28799  0.50172  Biso   1.000  C
  O74      1.0000 0.10980  0.26392  0.21578  Biso   1.000  O
  C112     1.0000 0.20139  0.06937  0.52956  Biso   1.000  C
  C113     1.0000 0.18461  0.05918  0.22571  Biso   1.000  C
  C114     1.0000 0.04921  0.26119  0.52282  Biso   1.000  C
  O75      1.0000 0.15141  0.26558  0.64487  Biso   1.000  O
  C115     1.0000 0.04791  0.23309  0.22068  Biso   1.000  C
  C116     1.0000 0.25280  0.00818  0.51227  Biso   1.000  C
  O76      1.0000 0.21861  0.12647  0.65530  Biso   1.000  O
  C117     1.0000 0.18240  0.09902  0.05704  Biso   1.000  C
  O77      1.0000 0.23481  0.00302  0.22166  Biso   1.000  O
  C118     1.0000 0.01669  0.27993  0.36224  Biso   1.000  C
  O78      1.0000 0.02411  0.31100  0.64990  Biso   1.000  O
  C119     1.0000 0.02078  0.26250  0.05213  Biso   1.000  C
  C120     1.0000 0.23940  0.95529  0.36494  Biso   1.000  C
  O79      1.0000 0.25410  0.95689  0.64953  Biso   1.000  O
  O80      1.0000 0.95862  0.24471  0.38457  Biso   1.000  O
  O81      1.0000 0.18582  0.91479  0.39340  Biso   1.000  O
  C121     1.0000 0.90770  0.29452  0.35206  Biso   1.000  C
  C122     1.0000 0.18218  0.83160  0.36506  Biso   1.000  C
  C123     1.0000 0.86420  0.28859  0.50221  Biso   1.000  C
  O82      1.0000 0.87612  0.26522  0.21295  Biso   1.000  O
  C124     1.0000 0.15492  0.79988  0.52417  Biso   1.000  C
  C125     1.0000 0.13922  0.82058  0.21774  Biso   1.000  C
  C126     1.0000 0.84508  0.20012  0.52417  Biso   1.000  C
  O83      1.0000 0.89762  0.31693  0.63714  Biso   1.000  O
  C127     1.0000 0.86078  0.17942  0.21774  Biso   1.000  C
  C128     1.0000 0.13580  0.71141  0.50221  Biso   1.000  C
  O84      1.0000 0.20080  0.80320  0.64696  Biso   1.000  O
  C129     1.0000 0.17179  0.83777  0.05581  Biso   1.000  C
  O85      1.0000 0.12388  0.73478  0.21295  Biso   1.000  O
  C130     1.0000 0.81782  0.16840  0.36506  Biso   1.000  C
  O86      1.0000 0.79920  0.19680  0.64696  Biso   1.000  O
  C131     1.0000 0.82821  0.16223  0.05581  Biso   1.000  C
  C132     1.0000 0.09230  0.70548  0.35206  Biso   1.000  C
  O87      1.0000 0.10238  0.68307  0.63714  Biso   1.000  O
  O88      1.0000 0.81418  0.08521  0.39340  Biso   1.000  O
  O89      1.0000 0.04138  0.75529  0.38457  Biso   1.000  O
  C133     1.0000 0.76060  0.04471  0.36494  Biso   1.000  C
  C134     1.0000 0.98331  0.72007  0.36224  Biso   1.000  C
  C135     1.0000 0.74720  0.99182  0.51227  Biso   1.000  C
  O90      1.0000 0.76519  0.99698  0.22166  Biso   1.000  O
  C136     1.0000 0.95079  0.73881  0.52282  Biso   1.000  C
  C137     1.0000 0.95209  0.76691  0.22068  Biso   1.000  C
  C138     1.0000 0.79861  0.93063  0.52956  Biso   1.000  C
  O91      1.0000 0.74590  0.04311  0.64953  Biso   1.000  O
  C139     1.0000 0.81539  0.94082  0.22571  Biso   1.000  C
  C140     1.0000 0.88282  0.71201  0.50172  Biso   1.000  C
  O92      1.0000 0.97589  0.68900  0.64990  Biso   1.000  O
  O93      1.0000 0.89020  0.73608  0.21578  Biso   1.000  O
  C141     1.0000 0.97922  0.73750  0.05213  Biso   1.000  C
  C142     1.0000 0.80482  0.88479  0.36592  Biso   1.000  C
  O94      1.0000 0.78139  0.87353  0.65530  Biso   1.000  O
  C143     1.0000 0.81760  0.90098  0.05704  Biso   1.000  C
  C144     1.0000 0.85552  0.75778  0.35868  Biso   1.000  C
  O95      1.0000 0.84859  0.73442  0.64487  Biso   1.000  O
  O96      1.0000 0.85831  0.83819  0.38776  Biso   1.000  O
  O97      1.0000 0.29922  0.30317  0.35304  Biso   1.000  O
  C145     1.0000 0.34510  0.29991  0.47583  Biso   1.000  C
  C146     1.0000 0.36422  0.21138  0.49779  Biso   1.000  C
  C147     1.0000 0.31780  0.33157  0.63494  Biso   1.000  C
  C148     1.0000 0.40772  0.20551  0.64794  Biso   1.000  C
  O98      1.0000 0.39760  0.18310  0.36286  Biso   1.000  O
  C149     1.0000 0.36080  0.32060  0.78226  Biso   1.000  C
  O99      1.0000 0.31420  0.41482  0.60660  Biso   1.000  O
  O100     1.0000 0.45859  0.25532  0.61543  Biso   1.000  O
  O101     1.0000 0.37610  0.23481  0.78705  Biso   1.000  O
  C150     1.0000 0.32819  0.33780  0.94419  Biso   1.000  C
  C151     1.0000 0.26058  0.45532  0.63506  Biso   1.000  C
  C152     1.0000 0.51671  0.22010  0.63776  Biso   1.000  C
  C153     1.0000 0.24722  0.50821  0.48773  Biso   1.000  C
  O102     1.0000 0.26522  0.50299  0.77834  Biso   1.000  O
  C154     1.0000 0.54919  0.23878  0.47718  Biso   1.000  C
  C155     1.0000 0.54788  0.26688  0.77932  Biso   1.000  C
  C156     1.0000 0.29859  0.56940  0.47044  Biso   1.000  C
  O103     1.0000 0.24592  0.45692  0.35047  Biso   1.000  O
  C157     1.0000 0.31542  0.55921  0.77429  Biso   1.000  C
  C158     1.0000 0.61720  0.21198  0.49828  Biso   1.000  C
  O104     1.0000 0.52409  0.18897  0.35010  Biso   1.000  O
  C159     1.0000 0.52080  0.23747  0.94787  Biso   1.000  C
  O105     1.0000 0.60978  0.23611  0.78422  Biso   1.000  O
  C160     1.0000 0.30480  0.61518  0.63408  Biso   1.000  C
  O106     1.0000 0.28141  0.62650  0.34470  Biso   1.000  O
  C161     1.0000 0.31762  0.59899  0.94296  Biso   1.000  C
  C162     1.0000 0.64451  0.25781  0.64132  Biso   1.000  C
  O107     1.0000 0.65139  0.23439  0.35513  Biso   1.000  O
  O108     1.0000 0.35828  0.66178  0.61224  Biso   1.000  O
  O109     1.0000 0.64172  0.33822  0.61224  Biso   1.000  O
  C163     1.0000 0.35549  0.74219  0.64132  Biso   1.000  C
  C164     1.0000 0.69520  0.38482  0.63408  Biso   1.000  C
  C165     1.0000 0.38280  0.78802  0.49828  Biso   1.000  C
  O110     1.0000 0.39022  0.76389  0.78422  Biso   1.000  O
  C166     1.0000 0.70141  0.43060  0.47044  Biso   1.000  C
  C167     1.0000 0.68458  0.44079  0.77429  Biso   1.000  C
  C168     1.0000 0.45081  0.76122  0.47718  Biso   1.000  C
  O111     1.0000 0.34861  0.76561  0.35513  Biso   1.000  O
  C169     1.0000 0.45212  0.73312  0.77932  Biso   1.000  C
  C170     1.0000 0.75278  0.49179  0.48773  Biso   1.000  C
  O112     1.0000 0.71859  0.37350  0.34470  Biso   1.000  O
  C171     1.0000 0.68238  0.40101  0.94296  Biso   1.000  C
  O113     1.0000 0.73478  0.49701  0.77834  Biso   1.000  O
  C172     1.0000 0.48329  0.77990  0.63776  Biso   1.000  C
  O114     1.0000 0.47591  0.81103  0.35010  Biso   1.000  O
  C173     1.0000 0.47920  0.76253  0.94787  Biso   1.000  C
  C174     1.0000 0.73942  0.54468  0.63506  Biso   1.000  C
  O115     1.0000 0.75408  0.54308  0.35047  Biso   1.000  O
  O116     1.0000 0.54141  0.74468  0.61543  Biso   1.000  O
  O117     1.0000 0.68580  0.58518  0.60660  Biso   1.000  O
  C175     1.0000 0.59228  0.79449  0.64794  Biso   1.000  C
  C176     1.0000 0.68220  0.66843  0.63494  Biso   1.000  C
  C177     1.0000 0.63578  0.78862  0.49779  Biso   1.000  C
  O118     1.0000 0.62390  0.76519  0.78705  Biso   1.000  O
  C178     1.0000 0.65490  0.70009  0.47583  Biso   1.000  C
  C179     1.0000 0.63920  0.67940  0.78226  Biso   1.000  C
  O119     1.0000 0.60240  0.81690  0.36286  Biso   1.000  O
  O120     1.0000 0.70078  0.69683  0.35304  Biso   1.000  O
  C180     1.0000 0.67181  0.66220  0.94419  Biso   1.000  C
