data_image0
_cell_length_a       28.017
_cell_length_b       11.626
_cell_length_c       23.255
_cell_angle_alpha    90
_cell_angle_beta     110.6
_cell_angle_gamma    90

_symmetry_space_group_name_H-M    "P 1"
_symmetry_int_tables_number       1

loop_
  _symmetry_equiv_pos_as_xyz
  'x, y, z'

loop_
  _atom_site_label
  _atom_site_occupancy
  _atom_site_fract_x
  _atom_site_fract_y
  _atom_site_fract_z
  _atom_site_thermal_displace_type
  _atom_site_B_iso_or_equiv
  _atom_site_type_symbol
  C1       1.0000 0.58142  0.40994  0.42172  Biso   1.000  C
  N1       1.0000 0.60033  0.35584  0.37941  Biso   1.000  N
  N2       1.0000 0.60204  0.36367  0.48392  Biso   1.000  N
  C2       1.0000 0.58163  0.24703  0.35070  Biso   1.000  C
  C3       1.0000 0.63003  0.41201  0.35290  Biso   1.000  C
  C4       1.0000 0.58095  0.26553  0.50321  Biso   1.000  C
  C5       1.0000 0.63264  0.42663  0.53271  Biso   1.000  C
  N3       1.0000 0.60164  0.14700  0.38722  Biso   1.000  N
  C6       1.0000 0.60572  0.23938  0.29961  Biso   1.000  C
  N4       1.0000 0.63512  0.34363  0.30839  Biso   1.000  N
  O1       1.0000 0.64843  0.50817  0.36691  Biso   1.000  O
  N5       1.0000 0.59944  0.15500  0.49040  Biso   1.000  N
  C7       1.0000 0.60375  0.27120  0.57433  Biso   1.000  C
  O2       1.0000 0.65314  0.48133  0.47542  Biso   1.000  O
  N6       1.0000 0.63644  0.37055  0.58522  Biso   1.000  N
  C8       1.0000 0.63141  0.07939  0.36521  Biso   1.000  C
  C9       1.0000 0.57953  0.10124  0.43091  Biso   1.000  C
  N7       1.0000 0.63533  0.13530  0.31509  Biso   1.000  N
  C10      1.0000 0.66050  0.37872  0.26672  Biso   1.000  C
  C11      1.0000 0.62664  0.09556  0.54212  Biso   1.000  C
  N8       1.0000 0.63014  0.16257  0.59064  Biso   1.000  N
  C12      1.0000 0.65713  0.42388  0.64383  Biso   1.000  C
  O3       1.0000 0.64983  0.98813  0.38552  Biso   1.000  O
  C13      1.0000 0.65781  0.08223  0.27471  Biso   1.000  C
  N9       1.0000 0.71050  0.32978  0.27880  Biso   1.000  N
  O4       1.0000 0.64292  0.99759  0.54323  Biso   1.000  O
  C14      1.0000 0.65504  0.12661  0.65500  Biso   1.000  C
  N10      1.0000 0.70725  0.38457  0.68334  Biso   1.000  N
  N11      1.0000 0.70891  0.11973  0.28142  Biso   1.000  N
  C15      1.0000 0.72112  0.22140  0.25220  Biso   1.000  C
  C16      1.0000 0.75302  0.38810  0.31413  Biso   1.000  C
  N12      1.0000 0.70545  0.17315  0.68412  Biso   1.000  N
  C17      1.0000 0.71786  0.28058  0.72161  Biso   1.000  C
  C18      1.0000 0.74915  0.43850  0.68210  Biso   1.000  C
  C19      1.0000 0.75090  0.06150  0.31790  Biso   1.000  C
  C20      1.0000 0.78220  0.21942  0.27839  Biso   1.000  C
  C21      1.0000 0.69620  0.22071  0.18399  Biso   1.000  C
  O5       1.0000 0.75341  0.47858  0.34091  Biso   1.000  O
  N13      1.0000 0.79462  0.32694  0.31592  Biso   1.000  N
  C22      1.0000 0.74705  0.11190  0.68591  Biso   1.000  C
  C23      1.0000 0.69296  0.28178  0.76883  Biso   1.000  C
  C24      1.0000 0.77895  0.27860  0.74784  Biso   1.000  C
  O6       1.0000 0.75052  0.52770  0.65550  Biso   1.000  O
  N14      1.0000 0.79116  0.38027  0.71862  Biso   1.000  N
  N15      1.0000 0.79281  0.11543  0.31670  Biso   1.000  N
  O7       1.0000 0.74953  0.97230  0.34450  Biso   1.000  O
  C25      1.0000 0.80711  0.21822  0.23121  Biso   1.000  C
  C26      1.0000 0.84502  0.37339  0.34500  Biso   1.000  C
  O8       1.0000 0.74666  0.02142  0.65913  Biso   1.000  O
  N16      1.0000 0.78956  0.17022  0.72124  Biso   1.000  N
  C27      1.0000 0.80386  0.27929  0.81601  Biso   1.000  C
  C28      1.0000 0.84226  0.41777  0.72533  Biso   1.000  C
  C29      1.0000 0.84294  0.07612  0.35621  Biso   1.000  C
  N17      1.0000 0.86993  0.33743  0.40941  Biso   1.000  N
  C30      1.0000 0.83953  0.12128  0.73332  Biso   1.000  C
  N18      1.0000 0.86472  0.36470  0.68490  Biso   1.000  N
  N19      1.0000 0.86362  0.12954  0.41483  Biso   1.000  N
  C31      1.0000 0.89632  0.22880  0.42572  Biso   1.000  C
  C32      1.0000 0.87342  0.40444  0.45792  Biso   1.000  C
  N20      1.0000 0.86493  0.15637  0.69161  Biso   1.000  N
  C33      1.0000 0.89435  0.26062  0.70043  Biso   1.000  C
  C34      1.0000 0.86866  0.42061  0.63483  Biso   1.000  C
  C35      1.0000 0.86742  0.07337  0.46729  Biso   1.000  C
  C36      1.0000 0.91912  0.23447  0.49683  Biso   1.000  C
  O9       1.0000 0.85711  0.50241  0.45682  Biso   1.000  O
  N21      1.0000 0.90062  0.34500  0.50960  Biso   1.000  N
  C37      1.0000 0.87003  0.08799  0.64709  Biso   1.000  C
  C38      1.0000 0.91843  0.25297  0.64930  Biso   1.000  C
  N22      1.0000 0.89843  0.35300  0.61282  Biso   1.000  N
  O10      1.0000 0.85024  0.51196  0.61452  Biso   1.000  O
  O11      1.0000 0.84693  0.01867  0.52462  Biso   1.000  O
  N23      1.0000 0.89802  0.13633  0.51612  Biso   1.000  N
  C39      1.0000 0.92054  0.39885  0.56914  Biso   1.000  C
  N24      1.0000 0.89974  0.14425  0.62063  Biso   1.000  N
  O12      1.0000 0.85164  0.99183  0.63313  Biso   1.000  O
  C40      1.0000 0.91865  0.09014  0.57832  Biso   1.000  C
  N25      1.0000 0.36491  0.34363  0.19161  Biso   1.000  N
  C41      1.0000 0.33951  0.37872  0.23332  Biso   1.000  C
  C42      1.0000 0.39432  0.23938  0.20039  Biso   1.000  C
  C43      1.0000 0.37001  0.41201  0.14710  Biso   1.000  C
  N26      1.0000 0.28950  0.32978  0.22120  Biso   1.000  N
  N27      1.0000 0.36470  0.13530  0.18490  Biso   1.000  N
  C44      1.0000 0.41841  0.24703  0.14930  Biso   1.000  C
  O13      1.0000 0.35160  0.50817  0.13308  Biso   1.000  O
  N28      1.0000 0.39971  0.35584  0.12059  Biso   1.000  N
  C45      1.0000 0.27892  0.22140  0.24779  Biso   1.000  C
  C46      1.0000 0.24700  0.38810  0.18591  Biso   1.000  C
  C47      1.0000 0.34220  0.08223  0.22528  Biso   1.000  C
  C48      1.0000 0.36859  0.07939  0.13478  Biso   1.000  C
  N29      1.0000 0.39841  0.14700  0.11283  Biso   1.000  N
  C49      1.0000 0.41858  0.40994  0.07828  Biso   1.000  C
  N30      1.0000 0.29110  0.11973  0.21862  Biso   1.000  N
  C50      1.0000 0.21780  0.21942  0.22161  Biso   1.000  C
  C51      1.0000 0.30384  0.22071  0.31601  Biso   1.000  C
  N31      1.0000 0.20543  0.32694  0.18412  Biso   1.000  N
  O14      1.0000 0.24659  0.47858  0.15909  Biso   1.000  O
  O15      1.0000 0.35022  0.98813  0.11453  Biso   1.000  O
  C52      1.0000 0.42051  0.10124  0.06909  Biso   1.000  C
  N32      1.0000 0.39799  0.36367  0.01608  Biso   1.000  N
  C53      1.0000 0.24910  0.06150  0.18210  Biso   1.000  C
  N33      1.0000 0.20722  0.11543  0.18330  Biso   1.000  N
  C54      1.0000 0.19293  0.21822  0.26879  Biso   1.000  C
  C55      1.0000 0.15502  0.37339  0.15500  Biso   1.000  C
  N34      1.0000 0.40060  0.15500  0.00960  Biso   1.000  N
  C56      1.0000 0.41918  0.26553  0.99683  Biso   1.000  C
  C57      1.0000 0.36745  0.42663  0.96734  Biso   1.000  C
  O16      1.0000 0.25050  0.97230  0.15550  Biso   1.000  O
  C58      1.0000 0.15710  0.07612  0.14379  Biso   1.000  C
  N35      1.0000 0.13011  0.33743  0.09059  Biso   1.000  N
  C59      1.0000 0.37344  0.09556  0.95792  Biso   1.000  C
  C60      1.0000 0.39634  0.27120  0.92572  Biso   1.000  C
  O17      1.0000 0.34691  0.48133  0.02462  Biso   1.000  O
  N36      1.0000 0.36364  0.37055  0.91483  Biso   1.000  N
  N37      1.0000 0.13643  0.12954  0.08522  Biso   1.000  N
  C61      1.0000 0.10372  0.22880  0.07428  Biso   1.000  C
  C62      1.0000 0.12661  0.40444  0.04208  Biso   1.000  C
  O18      1.0000 0.35716  0.99759  0.95682  Biso   1.000  O
  N38      1.0000 0.36995  0.16257  0.90941  Biso   1.000  N
  C63      1.0000 0.34295  0.42388  0.85621  Biso   1.000  C
  C64      1.0000 0.13262  0.07337  0.03271  Biso   1.000  C
  C65      1.0000 0.08089  0.23447  0.00322  Biso   1.000  C
  O19      1.0000 0.14289  0.50241  0.04318  Biso   1.000  O
  N39      1.0000 0.09947  0.34500  0.99044  Biso   1.000  N
  C66      1.0000 0.34503  0.12661  0.84500  Biso   1.000  C
  N40      1.0000 0.29283  0.38457  0.81670  Biso   1.000  N
  O20      1.0000 0.15315  0.01867  0.97542  Biso   1.000  O
  N41      1.0000 0.10206  0.13633  0.98392  Biso   1.000  N
  C67      1.0000 0.07955  0.39885  0.93091  Biso   1.000  C
  N42      1.0000 0.29464  0.17315  0.81592  Biso   1.000  N
  C68      1.0000 0.28226  0.28058  0.77844  Biso   1.000  C
  C69      1.0000 0.25097  0.43850  0.81794  Biso   1.000  C
  C70      1.0000 0.08147  0.09014  0.92172  Biso   1.000  C
  N43      1.0000 0.10166  0.35300  0.88722  Biso   1.000  N
  C71      1.0000 0.25307  0.11190  0.81413  Biso   1.000  C
  C72      1.0000 0.30713  0.28178  0.73121  Biso   1.000  C
  C73      1.0000 0.22113  0.27860  0.75221  Biso   1.000  C
  N44      1.0000 0.20893  0.38027  0.78142  Biso   1.000  N
  O21      1.0000 0.24956  0.52770  0.84454  Biso   1.000  O
  N45      1.0000 0.10034  0.14425  0.87941  Biso   1.000  N
  C74      1.0000 0.08166  0.25297  0.85074  Biso   1.000  C
  C75      1.0000 0.13146  0.42061  0.86522  Biso   1.000  C
  N46      1.0000 0.21056  0.17022  0.77880  Biso   1.000  N
  O22      1.0000 0.25343  0.02142  0.84091  Biso   1.000  O
  C76      1.0000 0.19623  0.27929  0.68403  Biso   1.000  C
  C77      1.0000 0.15786  0.41777  0.77472  Biso   1.000  C
  C78      1.0000 0.13004  0.08799  0.85290  Biso   1.000  C
  C79      1.0000 0.10574  0.26062  0.79961  Biso   1.000  C
  O23      1.0000 0.14985  0.51196  0.88552  Biso   1.000  O
  N47      1.0000 0.13536  0.36470  0.81514  Biso   1.000  N
  C80      1.0000 0.16056  0.12128  0.76672  Biso   1.000  C
  O24      1.0000 0.14845  0.99183  0.86692  Biso   1.000  O
  N48      1.0000 0.13515  0.15637  0.80843  Biso   1.000  N
  C81      1.0000 0.34292  0.57612  0.35621  Biso   1.000  C
  N49      1.0000 0.29283  0.61543  0.31670  Biso   1.000  N
  N50      1.0000 0.36364  0.62954  0.41483  Biso   1.000  N
  C82      1.0000 0.25092  0.56150  0.31790  Biso   1.000  C
  C83      1.0000 0.28221  0.71942  0.27839  Biso   1.000  C
  C84      1.0000 0.36743  0.57346  0.46729  Biso   1.000  C
  C85      1.0000 0.39634  0.72880  0.42572  Biso   1.000  C
  O25      1.0000 0.24952  0.47230  0.34450  Biso   1.000  O
  N51      1.0000 0.20893  0.61973  0.28142  Biso   1.000  N
  C86      1.0000 0.22110  0.72140  0.25220  Biso   1.000  C
  N52      1.0000 0.29464  0.82694  0.31592  Biso   1.000  N
  C87      1.0000 0.30713  0.71822  0.23121  Biso   1.000  C
  O26      1.0000 0.34695  0.51875  0.52462  Biso   1.000  O
  N53      1.0000 0.39804  0.63633  0.51612  Biso   1.000  N
  N54      1.0000 0.36991  0.83743  0.40941  Biso   1.000  N
  C88      1.0000 0.41914  0.73456  0.49683  Biso   1.000  C
  C89      1.0000 0.15782  0.58223  0.27471  Biso   1.000  C
  N55      1.0000 0.21052  0.82986  0.27880  Biso   1.000  N
  C90      1.0000 0.19622  0.72071  0.18399  Biso   1.000  C
  C91      1.0000 0.34503  0.87339  0.34500  Biso   1.000  C
  C92      1.0000 0.25303  0.88810  0.31413  Biso   1.000  C
  C93      1.0000 0.41863  0.59014  0.57832  Biso   1.000  C
  C94      1.0000 0.37344  0.90444  0.45792  Biso   1.000  C
  N56      1.0000 0.40063  0.84500  0.50960  Biso   1.000  N
  N57      1.0000 0.13532  0.63530  0.31509  Biso   1.000  N
  C95      1.0000 0.16052  0.87872  0.26672  Biso   1.000  C
  O27      1.0000 0.25343  0.97858  0.34091  Biso   1.000  O
  N58      1.0000 0.39976  0.64425  0.62063  Biso   1.000  N
  O28      1.0000 0.35713  0.00241  0.45682  Biso   1.000  O
  C96      1.0000 0.42056  0.89885  0.56914  Biso   1.000  C
  C97      1.0000 0.13143  0.57939  0.36521  Biso   1.000  C
  C98      1.0000 0.10574  0.73938  0.29961  Biso   1.000  C
  N59      1.0000 0.13511  0.84363  0.30839  Biso   1.000  N
  C99      1.0000 0.41845  0.75305  0.64930  Biso   1.000  C
  C100     1.0000 0.37005  0.58799  0.64709  Biso   1.000  C
  N60      1.0000 0.39844  0.85300  0.61282  Biso   1.000  N
  O29      1.0000 0.14981  0.48813  0.38552  Biso   1.000  O
  N61      1.0000 0.10163  0.64700  0.38722  Biso   1.000  N
  C101     1.0000 0.08161  0.74703  0.35070  Biso   1.000  C
  C102     1.0000 0.13001  0.91201  0.35290  Biso   1.000  C
  C103     1.0000 0.39433  0.76062  0.70043  Biso   1.000  C
  O30      1.0000 0.35165  0.49183  0.63313  Biso   1.000  O
  N62      1.0000 0.36495  0.65646  0.69161  Biso   1.000  N
  C104     1.0000 0.36864  0.92061  0.63483  Biso   1.000  C
  C105     1.0000 0.07951  0.60124  0.43091  Biso   1.000  C
  N63      1.0000 0.10031  0.85584  0.37941  Biso   1.000  N
  O31      1.0000 0.14841  0.00817  0.36691  Biso   1.000  O
  N64      1.0000 0.36474  0.86470  0.68490  Biso   1.000  N
  C106     1.0000 0.33955  0.62128  0.73332  Biso   1.000  C
  O32      1.0000 0.35025  0.01187  0.61452  Biso   1.000  O
  N65      1.0000 0.09942  0.65500  0.49040  Biso   1.000  N
  C107     1.0000 0.08143  0.90994  0.42172  Biso   1.000  C
  C108     1.0000 0.34225  0.91786  0.72533  Biso   1.000  C
  N66      1.0000 0.28955  0.67022  0.72124  Biso   1.000  N
  C109     1.0000 0.08093  0.76553  0.50321  Biso   1.000  C
  C110     1.0000 0.12663  0.59565  0.54212  Biso   1.000  C
  N67      1.0000 0.10203  0.86375  0.48392  Biso   1.000  N
  N68      1.0000 0.29114  0.88035  0.71862  Biso   1.000  N
  C111     1.0000 0.27897  0.77860  0.74784  Biso   1.000  C
  C112     1.0000 0.24704  0.61190  0.68591  Biso   1.000  C
  C113     1.0000 0.10373  0.77120  0.57433  Biso   1.000  C
  O33      1.0000 0.14294  0.49759  0.54323  Biso   1.000  O
  N69      1.0000 0.13016  0.66265  0.59064  Biso   1.000  N
  C114     1.0000 0.13262  0.92663  0.53271  Biso   1.000  C
  C115     1.0000 0.24913  0.93850  0.68210  Biso   1.000  C
  C116     1.0000 0.21784  0.78058  0.72161  Biso   1.000  C
  C117     1.0000 0.30384  0.77929  0.81601  Biso   1.000  C
  N70      1.0000 0.20543  0.67315  0.68412  Biso   1.000  N
  O34      1.0000 0.24664  0.52142  0.65913  Biso   1.000  O
  N71      1.0000 0.13643  0.87055  0.58522  Biso   1.000  N
  C118     1.0000 0.15502  0.62661  0.65500  Biso   1.000  C
  O35      1.0000 0.15312  0.98133  0.47542  Biso   1.000  O
  N72      1.0000 0.20724  0.88466  0.68334  Biso   1.000  N
  O36      1.0000 0.25054  0.02770  0.65550  Biso   1.000  O
  C119     1.0000 0.19294  0.78178  0.76883  Biso   1.000  C
  C120     1.0000 0.15715  0.92396  0.64383  Biso   1.000  C
  C121     1.0000 0.69291  0.71822  0.26879  Biso   1.000  C
  C122     1.0000 0.71782  0.71942  0.22161  Biso   1.000  C
  N73      1.0000 0.70720  0.61543  0.18330  Biso   1.000  N
  N74      1.0000 0.70541  0.82694  0.18412  Biso   1.000  N
  C123     1.0000 0.77890  0.72140  0.24779  Biso   1.000  C
  C124     1.0000 0.65712  0.57612  0.14379  Biso   1.000  C
  C125     1.0000 0.74912  0.56150  0.18210  Biso   1.000  C
  C126     1.0000 0.65500  0.87339  0.15500  Biso   1.000  C
  C127     1.0000 0.74702  0.88810  0.18591  Biso   1.000  C
  N75      1.0000 0.79112  0.61973  0.21862  Biso   1.000  N
  N76      1.0000 0.78951  0.82986  0.22120  Biso   1.000  N
  C128     1.0000 0.80382  0.72071  0.31601  Biso   1.000  C
  N77      1.0000 0.63641  0.62954  0.08522  Biso   1.000  N
  O37      1.0000 0.75052  0.47230  0.15550  Biso   1.000  O
  N78      1.0000 0.63009  0.83743  0.09059  Biso   1.000  N
  O38      1.0000 0.74661  0.97858  0.15909  Biso   1.000  O
  C129     1.0000 0.84221  0.58223  0.22528  Biso   1.000  C
  C130     1.0000 0.83953  0.87872  0.23332  Biso   1.000  C
  C131     1.0000 0.63260  0.57346  0.03271  Biso   1.000  C
  C132     1.0000 0.60370  0.72880  0.07428  Biso   1.000  C
  C133     1.0000 0.62659  0.90444  0.04208  Biso   1.000  C
  N79      1.0000 0.86472  0.63530  0.18490  Biso   1.000  N
  N80      1.0000 0.86493  0.84363  0.19161  Biso   1.000  N
  O39      1.0000 0.65317  0.51875  0.97542  Biso   1.000  O
  N81      1.0000 0.60204  0.63633  0.98392  Biso   1.000  N
  C134     1.0000 0.58091  0.73456  0.00322  Biso   1.000  C
  N82      1.0000 0.59945  0.84500  0.99044  Biso   1.000  N
  O40      1.0000 0.64291  0.00241  0.04318  Biso   1.000  O
  C135     1.0000 0.86861  0.57939  0.13478  Biso   1.000  C
  C136     1.0000 0.89430  0.73938  0.20039  Biso   1.000  C
  C137     1.0000 0.86999  0.91201  0.14710  Biso   1.000  C
  C138     1.0000 0.58145  0.59014  0.92172  Biso   1.000  C
  C139     1.0000 0.57957  0.89885  0.93091  Biso   1.000  C
  O41      1.0000 0.85020  0.48813  0.11453  Biso   1.000  O
  N83      1.0000 0.89842  0.64700  0.11283  Biso   1.000  N
  C140     1.0000 0.91839  0.74703  0.14930  Biso   1.000  C
  N84      1.0000 0.89969  0.85584  0.12059  Biso   1.000  N
  O42      1.0000 0.85159  0.00817  0.13308  Biso   1.000  O
  N85      1.0000 0.60036  0.64425  0.87941  Biso   1.000  N
  N86      1.0000 0.60164  0.85300  0.88722  Biso   1.000  N
  C141     1.0000 0.92049  0.60124  0.06909  Biso   1.000  C
  C142     1.0000 0.91860  0.90994  0.07828  Biso   1.000  C
  C143     1.0000 0.58164  0.75305  0.85074  Biso   1.000  C
  C144     1.0000 0.63006  0.58799  0.85290  Biso   1.000  C
  C145     1.0000 0.63144  0.92061  0.86522  Biso   1.000  C
  N87      1.0000 0.90062  0.65500  0.00960  Biso   1.000  N
  N88      1.0000 0.89801  0.86375  0.01608  Biso   1.000  N
  C146     1.0000 0.60575  0.76062  0.79961  Biso   1.000  C
  O43      1.0000 0.64843  0.49183  0.86692  Biso   1.000  O
  N89      1.0000 0.63514  0.65646  0.80843  Biso   1.000  N
  N90      1.0000 0.63535  0.86470  0.81514  Biso   1.000  N
  O44      1.0000 0.64987  0.01187  0.88552  Biso   1.000  O
  C147     1.0000 0.91916  0.76553  0.99683  Biso   1.000  C
  C148     1.0000 0.87346  0.59565  0.95792  Biso   1.000  C
  C149     1.0000 0.86746  0.92663  0.96734  Biso   1.000  C
  C150     1.0000 0.66054  0.62128  0.76672  Biso   1.000  C
  C151     1.0000 0.65784  0.91786  0.77472  Biso   1.000  C
  C152     1.0000 0.89636  0.77120  0.92572  Biso   1.000  C
  O45      1.0000 0.85715  0.49759  0.95682  Biso   1.000  O
  N91      1.0000 0.86996  0.66265  0.90941  Biso   1.000  N
  N92      1.0000 0.86366  0.87055  0.91483  Biso   1.000  N
  O46      1.0000 0.84690  0.98133  0.02462  Biso   1.000  O
  N93      1.0000 0.71054  0.67022  0.77880  Biso   1.000  N
  N94      1.0000 0.70895  0.88035  0.78142  Biso   1.000  N
  C153     1.0000 0.84505  0.62661  0.84500  Biso   1.000  C
  C154     1.0000 0.84294  0.92396  0.85621  Biso   1.000  C
  C155     1.0000 0.72115  0.77860  0.75221  Biso   1.000  C
  C156     1.0000 0.75305  0.61190  0.81413  Biso   1.000  C
  C157     1.0000 0.75095  0.93850  0.81794  Biso   1.000  C
  N95      1.0000 0.79466  0.67315  0.81592  Biso   1.000  N
  N96      1.0000 0.79285  0.88466  0.81670  Biso   1.000  N
  C158     1.0000 0.78224  0.78058  0.77844  Biso   1.000  C
  C159     1.0000 0.69625  0.77929  0.68403  Biso   1.000  C
  O47      1.0000 0.75345  0.52142  0.84091  Biso   1.000  O
  O48      1.0000 0.74955  0.02770  0.84454  Biso   1.000  O
  C160     1.0000 0.80714  0.78178  0.73121  Biso   1.000  C
