data_image0
_cell_length_a       20.606
_cell_length_b       23.332
_cell_length_c       13.799
_cell_angle_alpha    90
_cell_angle_beta     90
_cell_angle_gamma    90

_symmetry_space_group_name_H-M    "P 1"
_symmetry_int_tables_number       1

loop_
  _symmetry_equiv_pos_as_xyz
  'x, y, z'

loop_
  _atom_site_label
  _atom_site_occupancy
  _atom_site_fract_x
  _atom_site_fract_y
  _atom_site_fract_z
  _atom_site_thermal_displace_type
  _atom_site_B_iso_or_equiv
  _atom_site_type_symbol
  O1       1.0000 0.10759  0.29702  0.34778  Biso   1.000  O
  B1       1.0000 0.13399  0.33979  0.29183  Biso   1.000  B
  C1       1.0000 0.08342  0.25321  0.28473  Biso   1.000  C
  O2       1.0000 0.12880  0.32912  0.19458  Biso   1.000  O
  C2       1.0000 0.15961  0.39688  0.33227  Biso   1.000  C
  C3       1.0000 0.08459  0.28099  0.18567  Biso   1.000  C
  C4       1.0000 0.01179  0.23761  0.30633  Biso   1.000  C
  H1       1.0000 0.11172  0.21841  0.28640  Biso   1.000  H
  C5       1.0000 0.16398  0.40558  0.43329  Biso   1.000  C
  C6       1.0000 0.16859  0.44330  0.27227  Biso   1.000  C
  H2       1.0000 0.09832  0.25369  0.13378  Biso   1.000  H
  C7       1.0000 0.01699  0.30070  0.17269  Biso   1.000  C
  C8       1.0000 0.97680  0.28000  0.24408  Biso   1.000  C
  C9       1.0000 0.99612  0.17658  0.26763  Biso   1.000  C
  C10      1.0000 0.99592  0.24160  0.41546  Biso   1.000  C
  H3       1.0000 0.15908  0.37369  0.47547  Biso   1.000  H
  C11      1.0000 0.17548  0.46018  0.47301  Biso   1.000  C
  C12      1.0000 0.18140  0.49790  0.30749  Biso   1.000  C
  H4       1.0000 0.16602  0.43768  0.20422  Biso   1.000  H
  C13      1.0000 0.99219  0.33932  0.10247  Biso   1.000  C
  C14      1.0000 0.91192  0.29680  0.24893  Biso   1.000  C
  H5       1.0000 0.01839  0.14799  0.30749  Biso   1.000  H
  H6       1.0000 0.01082  0.17328  0.20030  Biso   1.000  H
  H7       1.0000 0.94909  0.17011  0.27060  Biso   1.000  H
  H8       1.0000 0.02980  0.22210  0.45293  Biso   1.000  H
  H9       1.0000 0.99379  0.28202  0.43489  Biso   1.000  H
  H10      1.0000 0.95390  0.22330  0.42807  Biso   1.000  H
  C15      1.0000 0.18218  0.50621  0.40793  Biso   1.000  C
  B2       1.0000 0.16908  0.46618  0.58251  Biso   1.000  B
  B3       1.0000 0.18291  0.54959  0.23639  Biso   1.000  B
  H11      1.0000 0.01999  0.35321  0.05290  Biso   1.000  H
  C16      1.0000 0.93012  0.35651  0.10479  Biso   1.000  C
  C17      1.0000 0.88930  0.33542  0.17900  Biso   1.000  C
  H12      1.0000 0.88392  0.28249  0.29799  Biso   1.000  H
  H13      1.0000 0.18752  0.54389  0.43278  Biso   1.000  H
  O3       1.0000 0.15559  0.51329  0.63229  Biso   1.000  O
  O4       1.0000 0.17262  0.41690  0.64063  Biso   1.000  O
  O5       1.0000 0.17359  0.54059  0.13784  Biso   1.000  O
  O6       1.0000 0.18970  0.60539  0.26060  Biso   1.000  O
  C18      1.0000 0.89319  0.39559  0.03863  Biso   1.000  C
  C19      1.0000 0.82238  0.36109  0.17327  Biso   1.000  C
  C20      1.0000 0.13802  0.49601  0.73223  Biso   1.000  C
  C21      1.0000 0.14991  0.43010  0.73440  Biso   1.000  C
  C22      1.0000 0.17102  0.59421  0.08827  Biso   1.000  C
  C23      1.0000 0.17762  0.63891  0.17327  Biso   1.000  C
  C24      1.0000 0.87979  0.36349  0.94050  Biso   1.000  C
  C25      1.0000 0.82898  0.40579  0.08827  Biso   1.000  C
  C26      1.0000 0.93002  0.45208  0.01732  Biso   1.000  C
  H14      1.0000 0.78802  0.33182  0.16088  Biso   1.000  H
  O7       1.0000 0.81030  0.39461  0.26060  Biso   1.000  O
  C27      1.0000 0.06649  0.50261  0.74571  Biso   1.000  C
  H15      1.0000 0.16369  0.51689  0.78259  Biso   1.000  H
  H16      1.0000 0.18330  0.42011  0.78411  Biso   1.000  H
  C28      1.0000 0.08400  0.40138  0.75933  Biso   1.000  C
  C29      1.0000 0.10681  0.60441  0.03863  Biso   1.000  C
  H17      1.0000 0.20780  0.59789  0.04152  Biso   1.000  H
  H18      1.0000 0.21198  0.66818  0.16088  Biso   1.000  H
  C30      1.0000 0.11070  0.66458  0.17900  Biso   1.000  C
  H19      1.0000 0.86732  0.32380  0.95413  Biso   1.000  H
  H20      1.0000 0.91910  0.36392  0.90057  Biso   1.000  H
  H21      1.0000 0.84451  0.38278  0.90572  Biso   1.000  H
  H22      1.0000 0.79220  0.40211  0.04152  Biso   1.000  H
  O8       1.0000 0.82641  0.45941  0.13784  Biso   1.000  O
  H23      1.0000 0.90042  0.47951  0.98659  Biso   1.000  H
  H24      1.0000 0.96651  0.44428  0.97362  Biso   1.000  H
  H25      1.0000 0.94642  0.46820  0.07812  Biso   1.000  H
  B4       1.0000 0.81709  0.45041  0.23639  Biso   1.000  B
  C31      1.0000 0.03048  0.55319  0.74737  Biso   1.000  C
  C32      1.0000 0.03640  0.44981  0.74976  Biso   1.000  C
  C33      1.0000 0.06949  0.35321  0.68730  Biso   1.000  C
  C34      1.0000 0.08672  0.38111  0.86253  Biso   1.000  C
  C35      1.0000 0.06988  0.64349  0.10479  Biso   1.000  C
  C36      1.0000 0.06998  0.54792  0.01732  Biso   1.000  C
  C37      1.0000 0.12021  0.63651  0.94050  Biso   1.000  C
  C38      1.0000 0.08808  0.70320  0.24893  Biso   1.000  C
  C39      1.0000 0.81860  0.50210  0.30749  Biso   1.000  C
  H26      1.0000 0.06571  0.57929  0.75303  Biso   1.000  H
  C40      1.0000 0.96360  0.55019  0.74976  Biso   1.000  C
  C41      1.0000 0.96952  0.44681  0.74737  Biso   1.000  C
  H27      1.0000 0.02980  0.33319  0.70694  Biso   1.000  H
  H28      1.0000 0.10589  0.32612  0.68643  Biso   1.000  H
  H29      1.0000 0.06362  0.36941  0.62236  Biso   1.000  H
  H30      1.0000 0.08910  0.41428  0.90594  Biso   1.000  H
  H31      1.0000 0.12521  0.35702  0.87173  Biso   1.000  H
  H32      1.0000 0.04761  0.35882  0.87731  Biso   1.000  H
  C42      1.0000 0.00781  0.66068  0.10247  Biso   1.000  C
  H33      1.0000 0.05358  0.53180  0.07812  Biso   1.000  H
  H34      1.0000 0.09958  0.52049  0.98659  Biso   1.000  H
  H35      1.0000 0.03349  0.55572  0.97362  Biso   1.000  H
  H36      1.0000 0.13268  0.67620  0.95413  Biso   1.000  H
  H37      1.0000 0.08090  0.63608  0.90057  Biso   1.000  H
  H38      1.0000 0.15549  0.61722  0.90572  Biso   1.000  H
  H39      1.0000 0.11608  0.71751  0.29799  Biso   1.000  H
  C43      1.0000 0.02320  0.72000  0.24408  Biso   1.000  C
  C44      1.0000 0.81782  0.49379  0.40793  Biso   1.000  C
  C45      1.0000 0.83141  0.55670  0.27227  Biso   1.000  C
  C46      1.0000 0.91600  0.59862  0.75933  Biso   1.000  C
  C47      1.0000 0.93351  0.49739  0.74571  Biso   1.000  C
  H40      1.0000 0.93429  0.42071  0.75303  Biso   1.000  H
  C48      1.0000 0.98301  0.69930  0.17269  Biso   1.000  C
  H41      1.0000 0.98001  0.64679  0.05290  Biso   1.000  H
  C49      1.0000 0.98821  0.76239  0.30633  Biso   1.000  C
  C50      1.0000 0.82452  0.53982  0.47301  Biso   1.000  C
  H42      1.0000 0.81248  0.45611  0.43278  Biso   1.000  H
  C51      1.0000 0.84039  0.60312  0.33227  Biso   1.000  C
  H43      1.0000 0.83398  0.56232  0.20422  Biso   1.000  H
  C52      1.0000 0.93051  0.64679  0.68730  Biso   1.000  C
  C53      1.0000 0.85009  0.56990  0.73440  Biso   1.000  C
  C54      1.0000 0.91328  0.61889  0.86253  Biso   1.000  C
  C55      1.0000 0.86198  0.50399  0.73223  Biso   1.000  C
  C56      1.0000 0.91541  0.71901  0.18567  Biso   1.000  C
  C57      1.0000 0.00388  0.82342  0.26763  Biso   1.000  C
  C58      1.0000 0.00408  0.75840  0.41546  Biso   1.000  C
  C59      1.0000 0.91658  0.74679  0.28473  Biso   1.000  C
  C60      1.0000 0.83602  0.59442  0.43329  Biso   1.000  C
  B5       1.0000 0.83092  0.53382  0.58251  Biso   1.000  B
  B6       1.0000 0.86601  0.66021  0.29183  Biso   1.000  B
  H44      1.0000 0.97020  0.66681  0.70694  Biso   1.000  H
  H45      1.0000 0.89411  0.67388  0.68643  Biso   1.000  H
  H46      1.0000 0.93638  0.63059  0.62236  Biso   1.000  H
  O9       1.0000 0.82738  0.58310  0.64063  Biso   1.000  O
  H47      1.0000 0.81670  0.57989  0.78411  Biso   1.000  H
  H48      1.0000 0.91090  0.58572  0.90594  Biso   1.000  H
  H49      1.0000 0.87479  0.64298  0.87173  Biso   1.000  H
  H50      1.0000 0.95239  0.64118  0.87731  Biso   1.000  H
  O10      1.0000 0.84441  0.48671  0.63229  Biso   1.000  O
  H51      1.0000 0.83631  0.48311  0.78259  Biso   1.000  H
  O11      1.0000 0.87120  0.67088  0.19458  Biso   1.000  O
  H52      1.0000 0.90168  0.74631  0.13378  Biso   1.000  H
  H53      1.0000 0.05091  0.82989  0.27060  Biso   1.000  H
  H54      1.0000 0.98161  0.85201  0.30749  Biso   1.000  H
  H55      1.0000 0.98918  0.82672  0.20030  Biso   1.000  H
  H56      1.0000 0.00621  0.71798  0.43489  Biso   1.000  H
  H57      1.0000 0.04610  0.77670  0.42807  Biso   1.000  H
  H58      1.0000 0.97020  0.77790  0.45293  Biso   1.000  H
  O12      1.0000 0.89241  0.70298  0.34778  Biso   1.000  O
  H59      1.0000 0.88828  0.78159  0.28640  Biso   1.000  H
  H60      1.0000 0.84092  0.62631  0.47547  Biso   1.000  H
  O13      1.0000 0.12370  0.09421  0.36466  Biso   1.000  O
  B7       1.0000 0.16049  0.06022  0.30662  Biso   1.000  B
  C61      1.0000 0.11832  0.06442  0.45663  Biso   1.000  C
  C62      1.0000 0.16922  0.06729  0.19422  Biso   1.000  C
  O14      1.0000 0.18820  0.01410  0.35401  Biso   1.000  O
  C63      1.0000 0.16752  0.01522  0.45119  Biso   1.000  C
  H61      1.0000 0.12671  0.09031  0.51294  Biso   1.000  H
  C64      1.0000 0.05338  0.03450  0.46460  Biso   1.000  C
  C65      1.0000 0.14209  0.11032  0.14037  Biso   1.000  C
  C66      1.0000 0.19800  0.02182  0.14421  Biso   1.000  C
  H62      1.0000 0.20479  0.02212  0.49591  Biso   1.000  H
  C67      1.0000 0.13142  0.95830  0.47772  Biso   1.000  C
  C68      1.0000 0.99291  0.06039  0.46779  Biso   1.000  C
  C69      1.0000 0.06139  0.97600  0.46714  Biso   1.000  C
  H63      1.0000 0.12210  0.14178  0.17219  Biso   1.000  H
  C70      1.0000 0.14340  0.10839  0.03689  Biso   1.000  C
  C71      1.0000 0.19950  0.01830  0.04413  Biso   1.000  C
  H64      1.0000 0.21751  0.99190  0.18067  Biso   1.000  H
  C72      1.0000 0.14428  0.94488  0.58577  Biso   1.000  C
  C73      1.0000 0.15000  0.90909  0.41402  Biso   1.000  C
  H65      1.0000 0.98840  0.10081  0.47040  Biso   1.000  H
  C74      1.0000 0.93861  0.02400  0.46714  Biso   1.000  C
  C75      1.0000 0.00709  0.93961  0.46779  Biso   1.000  C
  B8       1.0000 0.10541  0.15309  0.97782  Biso   1.000  B
  C76      1.0000 0.17131  0.06240  0.99217  Biso   1.000  C
  B9       1.0000 0.22149  0.96181  0.99551  Biso   1.000  B
  H66      1.0000 0.17689  0.91441  0.59077  Biso   1.000  H
  H67      1.0000 0.10390  0.93228  0.61657  Biso   1.000  H
  H68      1.0000 0.16029  0.97938  0.61831  Biso   1.000  H
  H69      1.0000 0.16092  0.92328  0.34923  Biso   1.000  H
  H70      1.0000 0.11361  0.88218  0.40938  Biso   1.000  H
  H71      1.0000 0.18781  0.88938  0.44163  Biso   1.000  H
  C77      1.0000 0.94662  0.96550  0.46460  Biso   1.000  C
  C78      1.0000 0.86858  0.04170  0.47772  Biso   1.000  C
  H72      1.0000 0.01160  0.89919  0.47040  Biso   1.000  H
  O15      1.0000 0.06120  0.19120  0.01080  Biso   1.000  O
  O16      1.0000 0.10900  0.15399  0.87622  Biso   1.000  O
  H73      1.0000 0.17121  0.06069  0.92347  Biso   1.000  H
  O17      1.0000 0.21232  0.94810  0.89978  Biso   1.000  O
  O18      1.0000 0.24721  0.91801  0.04768  Biso   1.000  O
  C79      1.0000 0.88168  0.93558  0.45663  Biso   1.000  C
  C80      1.0000 0.83248  0.98478  0.45119  Biso   1.000  C
  C81      1.0000 0.85572  0.05512  0.58577  Biso   1.000  C
  C82      1.0000 0.85000  0.09091  0.41402  Biso   1.000  C
  C83      1.0000 0.02761  0.21738  0.93007  Biso   1.000  C
  C84      1.0000 0.06071  0.19300  0.83818  Biso   1.000  C
  C85      1.0000 0.22178  0.88651  0.89391  Biso   1.000  C
  C86      1.0000 0.25371  0.86761  0.98717  Biso   1.000  C
  H74      1.0000 0.87329  0.90969  0.51294  Biso   1.000  H
  O19      1.0000 0.87630  0.90579  0.36466  Biso   1.000  O
  H75      1.0000 0.79521  0.97788  0.49591  Biso   1.000  H
  O20      1.0000 0.81180  0.98590  0.35401  Biso   1.000  O
  H76      1.0000 0.82311  0.08559  0.59077  Biso   1.000  H
  H77      1.0000 0.89610  0.06772  0.61657  Biso   1.000  H
  H78      1.0000 0.83971  0.02062  0.61831  Biso   1.000  H
  H79      1.0000 0.83908  0.07672  0.34923  Biso   1.000  H
  H80      1.0000 0.88639  0.11782  0.40938  Biso   1.000  H
  H81      1.0000 0.81219  0.11062  0.44163  Biso   1.000  H
  C87      1.0000 0.95788  0.19630  0.92318  Biso   1.000  C
  H82      1.0000 0.02999  0.26020  0.93260  Biso   1.000  H
  C88      1.0000 0.01000  0.16029  0.77701  Biso   1.000  C
  H83      1.0000 0.08138  0.22420  0.79948  Biso   1.000  H
  C89      1.0000 0.15782  0.85749  0.89289  Biso   1.000  C
  H84      1.0000 0.24852  0.87571  0.83608  Biso   1.000  H
  H85      1.0000 0.30020  0.85702  0.97717  Biso   1.000  H
  C90      1.0000 0.21358  0.81660  0.02971  Biso   1.000  C
  B10      1.0000 0.83951  0.93978  0.30662  Biso   1.000  B
  C91      1.0000 0.90881  0.20521  0.98993  Biso   1.000  C
  C92      1.0000 0.95089  0.16171  0.84158  Biso   1.000  C
  C93      1.0000 0.99811  0.19218  0.68570  Biso   1.000  C
  C94      1.0000 0.02980  0.09751  0.75107  Biso   1.000  C
  C95      1.0000 0.15112  0.82140  0.97203  Biso   1.000  C
  C96      1.0000 0.10842  0.86619  0.82673  Biso   1.000  C
  C97      1.0000 0.25090  0.76131  0.00283  Biso   1.000  C
  C98      1.0000 0.20159  0.82140  0.13530  Biso   1.000  C
  C99      1.0000 0.83078  0.93271  0.19422  Biso   1.000  C
  C100     1.0000 0.84888  0.17860  0.97203  Biso   1.000  C
  H86      1.0000 0.91541  0.22848  0.04558  Biso   1.000  H
  C101     1.0000 0.89158  0.13381  0.82673  Biso   1.000  C
  H87      1.0000 0.95128  0.19548  0.67469  Biso   1.000  H
  H88      1.0000 0.01810  0.17170  0.63150  Biso   1.000  H
  H89      1.0000 0.01708  0.23058  0.69077  Biso   1.000  H
  H90      1.0000 0.00010  0.08229  0.70193  Biso   1.000  H
  H91      1.0000 0.02752  0.07359  0.80948  Biso   1.000  H
  H92      1.0000 0.07430  0.09721  0.72578  Biso   1.000  H
  C102     1.0000 0.09119  0.79479  0.98993  Biso   1.000  C
  C103     1.0000 0.04911  0.83829  0.84158  Biso   1.000  C
  H93      1.0000 0.11458  0.89058  0.77230  Biso   1.000  H
  H94      1.0000 0.26900  0.76509  0.93739  Biso   1.000  H
  H95      1.0000 0.28618  0.75510  0.04921  Biso   1.000  H
  H96      1.0000 0.22110  0.72861  0.00457  Biso   1.000  H
  H97      1.0000 0.20091  0.78309  0.16421  Biso   1.000  H
  H98      1.0000 0.15971  0.84022  0.14631  Biso   1.000  H
  H99      1.0000 0.23619  0.84421  0.16523  Biso   1.000  H
  C104     1.0000 0.80200  0.97818  0.14421  Biso   1.000  C
  C105     1.0000 0.85791  0.88968  0.14037  Biso   1.000  C
  C106     1.0000 0.84218  0.14251  0.89289  Biso   1.000  C
  C107     1.0000 0.78642  0.18340  0.02971  Biso   1.000  C
  H100     1.0000 0.88542  0.10942  0.77230  Biso   1.000  H
  C108     1.0000 0.04212  0.80370  0.92318  Biso   1.000  C
  H101     1.0000 0.08459  0.77152  0.04558  Biso   1.000  H
  C109     1.0000 0.99000  0.83971  0.77701  Biso   1.000  C
  C110     1.0000 0.80050  0.98170  0.04413  Biso   1.000  C
  H102     1.0000 0.78249  0.00810  0.18067  Biso   1.000  H
  C111     1.0000 0.85660  0.89161  0.03689  Biso   1.000  C
  H103     1.0000 0.87790  0.85822  0.17219  Biso   1.000  H
  C112     1.0000 0.77822  0.11349  0.89391  Biso   1.000  C
  C113     1.0000 0.74629  0.13239  0.98717  Biso   1.000  C
  C114     1.0000 0.74910  0.23869  0.00283  Biso   1.000  C
  C115     1.0000 0.79841  0.17860  0.13530  Biso   1.000  C
  C116     1.0000 0.97239  0.78262  0.93007  Biso   1.000  C
  C117     1.0000 0.93929  0.80700  0.83818  Biso   1.000  C
  C118     1.0000 0.97020  0.90249  0.75107  Biso   1.000  C
  C119     1.0000 0.00189  0.80782  0.68570  Biso   1.000  C
  B11      1.0000 0.77851  0.03819  0.99551  Biso   1.000  B
  C120     1.0000 0.82869  0.93760  0.99217  Biso   1.000  C
  B12      1.0000 0.89459  0.84691  0.97782  Biso   1.000  B
  H104     1.0000 0.75148  0.12429  0.83608  Biso   1.000  H
  O21      1.0000 0.78768  0.05190  0.89978  Biso   1.000  O
  H105     1.0000 0.69980  0.14298  0.97717  Biso   1.000  H
  O22      1.0000 0.75279  0.08199  0.04768  Biso   1.000  O
  H106     1.0000 0.73100  0.23491  0.93739  Biso   1.000  H
  H107     1.0000 0.71382  0.24490  0.04921  Biso   1.000  H
  H108     1.0000 0.77890  0.27139  0.00457  Biso   1.000  H
  H109     1.0000 0.79909  0.21691  0.16421  Biso   1.000  H
  H110     1.0000 0.84029  0.15978  0.14631  Biso   1.000  H
  H111     1.0000 0.76381  0.15579  0.16523  Biso   1.000  H
  H112     1.0000 0.97001  0.73980  0.93260  Biso   1.000  H
  O23      1.0000 0.93880  0.80880  0.01080  Biso   1.000  O
  O24      1.0000 0.89100  0.84601  0.87622  Biso   1.000  O
  H113     1.0000 0.91862  0.77580  0.79948  Biso   1.000  H
  H114     1.0000 0.99990  0.91771  0.70193  Biso   1.000  H
  H115     1.0000 0.97248  0.92641  0.80948  Biso   1.000  H
  H116     1.0000 0.92570  0.90279  0.72578  Biso   1.000  H
  H117     1.0000 0.98190  0.82830  0.63150  Biso   1.000  H
  H118     1.0000 0.98292  0.76942  0.69077  Biso   1.000  H
  H119     1.0000 0.04872  0.80452  0.67469  Biso   1.000  H
  H120     1.0000 0.82879  0.93931  0.92347  Biso   1.000  H
  O25      1.0000 0.34441  0.01329  0.36771  Biso   1.000  O
  C121     1.0000 0.36198  0.99601  0.26777  Biso   1.000  C
  B13      1.0000 0.33092  0.96618  0.41749  Biso   1.000  B
  C122     1.0000 0.43351  0.00261  0.25429  Biso   1.000  C
  H121     1.0000 0.33631  0.01689  0.21741  Biso   1.000  H
  C123     1.0000 0.35009  0.93010  0.26560  Biso   1.000  C
  C124     1.0000 0.32452  0.96018  0.52699  Biso   1.000  C
  O26      1.0000 0.32738  0.91690  0.35937  Biso   1.000  O
  C125     1.0000 0.46952  0.05319  0.25263  Biso   1.000  C
  C126     1.0000 0.46360  0.94981  0.25024  Biso   1.000  C
  H122     1.0000 0.31670  0.92011  0.21589  Biso   1.000  H
  C127     1.0000 0.41600  0.90138  0.24067  Biso   1.000  C
  C128     1.0000 0.31782  0.00621  0.59207  Biso   1.000  C
  C129     1.0000 0.33602  0.90558  0.56671  Biso   1.000  C
  H123     1.0000 0.43429  0.07929  0.24697  Biso   1.000  H
  C130     1.0000 0.53640  0.05019  0.25024  Biso   1.000  C
  C131     1.0000 0.53048  0.94681  0.25263  Biso   1.000  C
  C132     1.0000 0.43051  0.85321  0.31270  Biso   1.000  C
  C133     1.0000 0.41328  0.88111  0.13747  Biso   1.000  C
  H124     1.0000 0.31248  0.04389  0.56722  Biso   1.000  H
  C134     1.0000 0.31860  0.99790  0.69251  Biso   1.000  C
  C135     1.0000 0.34039  0.89688  0.66773  Biso   1.000  C
  H125     1.0000 0.34092  0.87369  0.52453  Biso   1.000  H
  C136     1.0000 0.58400  0.09862  0.24067  Biso   1.000  C
  C137     1.0000 0.56649  0.99739  0.25429  Biso   1.000  C
  H126     1.0000 0.56571  0.92071  0.24697  Biso   1.000  H
  H127     1.0000 0.47020  0.83319  0.29306  Biso   1.000  H
  H128     1.0000 0.39411  0.82612  0.31357  Biso   1.000  H
  H129     1.0000 0.43638  0.86941  0.37764  Biso   1.000  H
  H130     1.0000 0.41090  0.91428  0.09406  Biso   1.000  H
  H131     1.0000 0.37479  0.85702  0.12827  Biso   1.000  H
  H132     1.0000 0.45239  0.85882  0.12269  Biso   1.000  H
  B14      1.0000 0.31709  0.04959  0.76361  Biso   1.000  B
  C138     1.0000 0.33141  0.94330  0.72773  Biso   1.000  C
  B15      1.0000 0.36601  0.83979  0.70817  Biso   1.000  B
  C139     1.0000 0.56949  0.14679  0.31270  Biso   1.000  C
  C140     1.0000 0.64991  0.06990  0.26560  Biso   1.000  C
  C141     1.0000 0.58672  0.11889  0.13747  Biso   1.000  C
  C142     1.0000 0.63802  0.00399  0.26777  Biso   1.000  C
  O27      1.0000 0.32641  0.04059  0.86216  Biso   1.000  O
  O28      1.0000 0.31030  0.10539  0.73940  Biso   1.000  O
  H133     1.0000 0.33398  0.93768  0.79578  Biso   1.000  H
  O29      1.0000 0.37120  0.82912  0.80542  Biso   1.000  O
  O30      1.0000 0.39241  0.79702  0.65222  Biso   1.000  O
  H134     1.0000 0.52980  0.16681  0.29306  Biso   1.000  H
  H135     1.0000 0.60589  0.17388  0.31357  Biso   1.000  H
  H136     1.0000 0.56362  0.13059  0.37764  Biso   1.000  H
  H137     1.0000 0.68330  0.07989  0.21589  Biso   1.000  H
  O31      1.0000 0.67262  0.08310  0.35937  Biso   1.000  O
  H138     1.0000 0.58910  0.08572  0.09406  Biso   1.000  H
  H139     1.0000 0.62521  0.14298  0.12827  Biso   1.000  H
  H140     1.0000 0.54761  0.14118  0.12269  Biso   1.000  H
  H141     1.0000 0.66369  0.98311  0.21741  Biso   1.000  H
  O32      1.0000 0.65559  0.98671  0.36771  Biso   1.000  O
  C143     1.0000 0.32898  0.09421  0.91173  Biso   1.000  C
  C144     1.0000 0.32238  0.13891  0.82673  Biso   1.000  C
  C145     1.0000 0.41541  0.78099  0.81433  Biso   1.000  C
  C146     1.0000 0.41658  0.75321  0.71527  Biso   1.000  C
  B16      1.0000 0.66908  0.03382  0.41749  Biso   1.000  B
  C147     1.0000 0.39319  0.10441  0.96137  Biso   1.000  C
  H142     1.0000 0.29220  0.09789  0.95848  Biso   1.000  H
  H143     1.0000 0.28802  0.16818  0.83912  Biso   1.000  H
  C148     1.0000 0.38930  0.16458  0.82100  Biso   1.000  C
  H144     1.0000 0.40168  0.75369  0.86622  Biso   1.000  H
  C149     1.0000 0.48301  0.80070  0.82731  Biso   1.000  C
  C150     1.0000 0.48821  0.73761  0.69367  Biso   1.000  C
  H145     1.0000 0.38828  0.71841  0.71360  Biso   1.000  H
  C151     1.0000 0.67548  0.03982  0.52699  Biso   1.000  C
  C152     1.0000 0.43012  0.14349  0.89521  Biso   1.000  C
  C153     1.0000 0.43002  0.04792  0.98268  Biso   1.000  C
  C154     1.0000 0.37979  0.13651  0.05950  Biso   1.000  C
  C155     1.0000 0.41192  0.20320  0.75107  Biso   1.000  C
  C156     1.0000 0.52320  0.78000  0.75592  Biso   1.000  C
  C157     1.0000 0.50781  0.83932  0.89753  Biso   1.000  C
  C158     1.0000 0.50388  0.67658  0.73237  Biso   1.000  C
  C159     1.0000 0.50408  0.74160  0.58454  Biso   1.000  C
  C160     1.0000 0.66398  0.09442  0.56671  Biso   1.000  C
  C161     1.0000 0.68218  0.99379  0.59207  Biso   1.000  C
  C162     1.0000 0.49219  0.16068  0.89753  Biso   1.000  C
  H146     1.0000 0.44642  0.03180  0.92188  Biso   1.000  H
  H147     1.0000 0.40042  0.02049  0.01341  Biso   1.000  H
  H148     1.0000 0.46651  0.05572  0.02638  Biso   1.000  H
  H149     1.0000 0.36732  0.17620  0.04587  Biso   1.000  H
  H150     1.0000 0.41910  0.13608  0.09943  Biso   1.000  H
  H151     1.0000 0.34451  0.11722  0.09428  Biso   1.000  H
  H152     1.0000 0.38392  0.21751  0.70201  Biso   1.000  H
  C163     1.0000 0.47680  0.22000  0.75592  Biso   1.000  C
  C164     1.0000 0.58808  0.79680  0.75107  Biso   1.000  C
  H153     1.0000 0.48001  0.85321  0.94710  Biso   1.000  H
  C165     1.0000 0.56988  0.85651  0.89521  Biso   1.000  C
  H154     1.0000 0.55091  0.67011  0.72940  Biso   1.000  H
  H155     1.0000 0.48161  0.64799  0.69251  Biso   1.000  H
  H156     1.0000 0.48918  0.67328  0.79970  Biso   1.000  H
  H157     1.0000 0.50621  0.78202  0.56511  Biso   1.000  H
  H158     1.0000 0.47020  0.72210  0.54707  Biso   1.000  H
  H159     1.0000 0.54610  0.72330  0.57193  Biso   1.000  H
  C166     1.0000 0.65961  0.10312  0.66773  Biso   1.000  C
  H160     1.0000 0.65908  0.12631  0.52453  Biso   1.000  H
  C167     1.0000 0.68140  0.00210  0.69251  Biso   1.000  C
  H161     1.0000 0.68752  0.95611  0.56722  Biso   1.000  H
  C168     1.0000 0.51699  0.19930  0.82731  Biso   1.000  C
  H162     1.0000 0.51999  0.14679  0.94710  Biso   1.000  H
  C169     1.0000 0.51179  0.26239  0.69367  Biso   1.000  C
  C170     1.0000 0.61070  0.83542  0.82100  Biso   1.000  C
  H163     1.0000 0.61608  0.78249  0.70201  Biso   1.000  H
  C171     1.0000 0.60681  0.89559  0.96137  Biso   1.000  C
  C172     1.0000 0.66859  0.05670  0.72773  Biso   1.000  C
  B17      1.0000 0.63399  0.16021  0.70817  Biso   1.000  B
  B18      1.0000 0.68291  0.95041  0.76361  Biso   1.000  B
  C173     1.0000 0.58459  0.21901  0.81433  Biso   1.000  C
  C174     1.0000 0.58342  0.24679  0.71527  Biso   1.000  C
  C175     1.0000 0.49612  0.32342  0.73237  Biso   1.000  C
  C176     1.0000 0.49592  0.25840  0.58454  Biso   1.000  C
  C177     1.0000 0.67762  0.86109  0.82673  Biso   1.000  C
  C178     1.0000 0.67102  0.90579  0.91173  Biso   1.000  C
  C179     1.0000 0.56998  0.95208  0.98268  Biso   1.000  C
  C180     1.0000 0.62021  0.86349  0.05950  Biso   1.000  C
  H164     1.0000 0.66602  0.06232  0.79578  Biso   1.000  H
  O33      1.0000 0.62880  0.17088  0.80542  Biso   1.000  O
  O34      1.0000 0.60759  0.20298  0.65222  Biso   1.000  O
  O35      1.0000 0.67359  0.95941  0.86216  Biso   1.000  O
  O36      1.0000 0.68970  0.89461  0.73940  Biso   1.000  O
  H165     1.0000 0.59832  0.24631  0.86622  Biso   1.000  H
  H166     1.0000 0.61172  0.28159  0.71360  Biso   1.000  H
  H167     1.0000 0.44909  0.32989  0.72940  Biso   1.000  H
  H168     1.0000 0.51839  0.35201  0.69251  Biso   1.000  H
  H169     1.0000 0.51082  0.32672  0.79970  Biso   1.000  H
  H170     1.0000 0.49379  0.21798  0.56511  Biso   1.000  H
  H171     1.0000 0.52980  0.27790  0.54707  Biso   1.000  H
  H172     1.0000 0.45390  0.27670  0.57193  Biso   1.000  H
  H173     1.0000 0.71198  0.83182  0.83912  Biso   1.000  H
  H174     1.0000 0.70780  0.90211  0.95848  Biso   1.000  H
  H175     1.0000 0.55358  0.96820  0.92188  Biso   1.000  H
  H176     1.0000 0.59958  0.97951  0.01341  Biso   1.000  H
  H177     1.0000 0.53349  0.94428  0.02638  Biso   1.000  H
  H178     1.0000 0.63268  0.82380  0.04587  Biso   1.000  H
  H179     1.0000 0.58090  0.86392  0.09943  Biso   1.000  H
  H180     1.0000 0.65549  0.88278  0.09428  Biso   1.000  H
  C181     1.0000 0.35000  0.40909  0.58598  Biso   1.000  C
  C182     1.0000 0.36858  0.45830  0.52228  Biso   1.000  C
  H181     1.0000 0.33908  0.42328  0.65077  Biso   1.000  H
  H182     1.0000 0.38639  0.38218  0.59062  Biso   1.000  H
  H183     1.0000 0.31219  0.38938  0.55837  Biso   1.000  H
  C183     1.0000 0.35572  0.44488  0.41423  Biso   1.000  C
  C184     1.0000 0.33248  0.51522  0.54881  Biso   1.000  C
  C185     1.0000 0.43861  0.47600  0.53286  Biso   1.000  C
  H184     1.0000 0.32311  0.41441  0.40923  Biso   1.000  H
  H185     1.0000 0.39610  0.43228  0.38343  Biso   1.000  H
  H186     1.0000 0.33971  0.47938  0.38169  Biso   1.000  H
  C186     1.0000 0.38168  0.56442  0.54337  Biso   1.000  C
  H187     1.0000 0.29521  0.52212  0.50409  Biso   1.000  H
  O37      1.0000 0.31180  0.51410  0.64599  Biso   1.000  O
  C187     1.0000 0.49291  0.43961  0.53221  Biso   1.000  C
  C188     1.0000 0.44662  0.53450  0.53540  Biso   1.000  C
  H188     1.0000 0.37329  0.59031  0.48706  Biso   1.000  H
  O38      1.0000 0.37630  0.59421  0.63534  Biso   1.000  O
  B19      1.0000 0.33951  0.56022  0.69338  Biso   1.000  B
  C189     1.0000 0.55338  0.46550  0.53540  Biso   1.000  C
  H189     1.0000 0.48840  0.39919  0.52960  Biso   1.000  H
  C190     1.0000 0.50709  0.56039  0.53221  Biso   1.000  C
  C191     1.0000 0.33078  0.56729  0.80578  Biso   1.000  C
  C192     1.0000 0.61832  0.43558  0.54337  Biso   1.000  C
  C193     1.0000 0.56139  0.52400  0.53286  Biso   1.000  C
  H190     1.0000 0.51160  0.60081  0.52960  Biso   1.000  H
  C194     1.0000 0.30200  0.52182  0.85579  Biso   1.000  C
  C195     1.0000 0.35791  0.61032  0.85963  Biso   1.000  C
  H191     1.0000 0.62671  0.40969  0.48706  Biso   1.000  H
  C196     1.0000 0.66752  0.48478  0.54881  Biso   1.000  C
  O39      1.0000 0.62370  0.40579  0.63534  Biso   1.000  O
  C197     1.0000 0.63142  0.54170  0.52228  Biso   1.000  C
  C198     1.0000 0.30050  0.51830  0.95587  Biso   1.000  C
  H192     1.0000 0.28249  0.49190  0.81933  Biso   1.000  H
  H193     1.0000 0.37790  0.64178  0.82781  Biso   1.000  H
  C199     1.0000 0.35660  0.60839  0.96311  Biso   1.000  C
  H194     1.0000 0.70479  0.47788  0.50409  Biso   1.000  H
  O40      1.0000 0.68820  0.48590  0.64599  Biso   1.000  O
  B20      1.0000 0.66049  0.43978  0.69338  Biso   1.000  B
  C200     1.0000 0.64428  0.55512  0.41423  Biso   1.000  C
  C201     1.0000 0.65000  0.59091  0.58598  Biso   1.000  C
  C202     1.0000 0.32869  0.56240  0.00783  Biso   1.000  C
  B21      1.0000 0.27851  0.46181  0.00449  Biso   1.000  B
  B22      1.0000 0.39459  0.65309  0.02218  Biso   1.000  B
  C203     1.0000 0.66922  0.43271  0.80578  Biso   1.000  C
  H195     1.0000 0.67689  0.58559  0.40923  Biso   1.000  H
  H196     1.0000 0.60390  0.56772  0.38343  Biso   1.000  H
  H197     1.0000 0.66029  0.52062  0.38169  Biso   1.000  H
  H198     1.0000 0.66092  0.57672  0.65077  Biso   1.000  H
  H199     1.0000 0.61361  0.61782  0.59062  Biso   1.000  H
  H200     1.0000 0.68781  0.61062  0.55837  Biso   1.000  H
  H201     1.0000 0.32879  0.56069  0.07653  Biso   1.000  H
  O41      1.0000 0.25279  0.41801  0.95232  Biso   1.000  O
  O42      1.0000 0.28768  0.44810  0.10022  Biso   1.000  O
  O43      1.0000 0.43880  0.69120  0.98920  Biso   1.000  O
  O44      1.0000 0.39100  0.65399  0.12378  Biso   1.000  O
  C204     1.0000 0.69800  0.47818  0.85579  Biso   1.000  C
  C205     1.0000 0.64209  0.38968  0.85963  Biso   1.000  C
  C206     1.0000 0.24629  0.36761  0.01283  Biso   1.000  C
  C207     1.0000 0.27822  0.38651  0.10609  Biso   1.000  C
  C208     1.0000 0.47239  0.71738  0.06993  Biso   1.000  C
  C209     1.0000 0.43929  0.69300  0.16182  Biso   1.000  C
  C210     1.0000 0.69950  0.48170  0.95587  Biso   1.000  C
  H202     1.0000 0.71751  0.50810  0.81933  Biso   1.000  H
  H203     1.0000 0.62210  0.35822  0.82781  Biso   1.000  H
  C211     1.0000 0.64340  0.39161  0.96311  Biso   1.000  C
  C212     1.0000 0.28642  0.31660  0.97029  Biso   1.000  C
  H204     1.0000 0.19980  0.35702  0.02283  Biso   1.000  H
  C213     1.0000 0.34218  0.35749  0.10711  Biso   1.000  C
  H205     1.0000 0.25148  0.37571  0.16392  Biso   1.000  H
  H206     1.0000 0.47001  0.76020  0.06740  Biso   1.000  H
  C214     1.0000 0.54212  0.69630  0.07682  Biso   1.000  C
  C215     1.0000 0.49000  0.66029  0.22299  Biso   1.000  C
  H207     1.0000 0.41862  0.72420  0.20052  Biso   1.000  H
  C216     1.0000 0.67131  0.43760  0.00783  Biso   1.000  C
  B23      1.0000 0.72149  0.53819  0.00449  Biso   1.000  B
  B24      1.0000 0.60541  0.34691  0.02218  Biso   1.000  B
  C217     1.0000 0.24910  0.26131  0.99717  Biso   1.000  C
  C218     1.0000 0.29841  0.32140  0.86470  Biso   1.000  C
  C219     1.0000 0.34888  0.32140  0.02797  Biso   1.000  C
  C220     1.0000 0.39158  0.36619  0.17327  Biso   1.000  C
  C221     1.0000 0.59119  0.70521  0.01007  Biso   1.000  C
  C222     1.0000 0.54911  0.66171  0.15842  Biso   1.000  C
  C223     1.0000 0.50189  0.69218  0.31430  Biso   1.000  C
  C224     1.0000 0.47020  0.59751  0.24893  Biso   1.000  C
  H208     1.0000 0.67121  0.43931  0.07653  Biso   1.000  H
  O45      1.0000 0.74721  0.58199  0.95232  Biso   1.000  O
  O46      1.0000 0.71232  0.55190  0.10022  Biso   1.000  O
  O47      1.0000 0.56120  0.30880  0.98920  Biso   1.000  O
  O48      1.0000 0.60900  0.34601  0.12378  Biso   1.000  O
  H209     1.0000 0.21382  0.25510  0.95079  Biso   1.000  H
  H210     1.0000 0.27890  0.22861  0.99543  Biso   1.000  H
  H211     1.0000 0.23100  0.26509  0.06261  Biso   1.000  H
  H212     1.0000 0.29909  0.28309  0.83579  Biso   1.000  H
  H213     1.0000 0.34029  0.34022  0.85369  Biso   1.000  H
  H214     1.0000 0.26381  0.34421  0.83477  Biso   1.000  H
  C225     1.0000 0.40881  0.29479  0.01007  Biso   1.000  C
  C226     1.0000 0.45089  0.33829  0.15842  Biso   1.000  C
  H215     1.0000 0.38542  0.39058  0.22770  Biso   1.000  H
  H216     1.0000 0.58459  0.72848  0.95442  Biso   1.000  H
  C227     1.0000 0.65112  0.67860  0.02797  Biso   1.000  C
  C228     1.0000 0.60842  0.63381  0.17327  Biso   1.000  C
  H217     1.0000 0.48190  0.67170  0.36850  Biso   1.000  H
  H218     1.0000 0.48292  0.73058  0.30923  Biso   1.000  H
  H219     1.0000 0.54872  0.69548  0.32531  Biso   1.000  H
  H220     1.0000 0.49990  0.58229  0.29807  Biso   1.000  H
  H221     1.0000 0.47248  0.57359  0.19052  Biso   1.000  H
  H222     1.0000 0.42570  0.59721  0.27422  Biso   1.000  H
  C229     1.0000 0.75371  0.63239  0.01283  Biso   1.000  C
  C230     1.0000 0.72178  0.61349  0.10609  Biso   1.000  C
  C231     1.0000 0.52761  0.28262  0.06993  Biso   1.000  C
  C232     1.0000 0.56071  0.30700  0.16182  Biso   1.000  C
  H223     1.0000 0.41541  0.27152  0.95442  Biso   1.000  H
  C233     1.0000 0.45788  0.30370  0.07682  Biso   1.000  C
  C234     1.0000 0.51000  0.33971  0.22299  Biso   1.000  C
  C235     1.0000 0.71358  0.68340  0.97029  Biso   1.000  C
  C236     1.0000 0.65782  0.64251  0.10711  Biso   1.000  C
  H224     1.0000 0.61458  0.60942  0.22770  Biso   1.000  H
  H225     1.0000 0.80020  0.64298  0.02283  Biso   1.000  H
  H226     1.0000 0.74852  0.62429  0.16392  Biso   1.000  H
  H227     1.0000 0.52999  0.23980  0.06740  Biso   1.000  H
  H228     1.0000 0.58138  0.27580  0.20052  Biso   1.000  H
  C237     1.0000 0.49811  0.30782  0.31430  Biso   1.000  C
  C238     1.0000 0.52980  0.40249  0.24893  Biso   1.000  C
  C239     1.0000 0.75090  0.73869  0.99717  Biso   1.000  C
  C240     1.0000 0.70159  0.67860  0.86470  Biso   1.000  C
  H229     1.0000 0.51810  0.32830  0.36850  Biso   1.000  H
  H230     1.0000 0.51708  0.26942  0.30923  Biso   1.000  H
  H231     1.0000 0.45128  0.30452  0.32531  Biso   1.000  H
  H232     1.0000 0.50010  0.41771  0.29807  Biso   1.000  H
  H233     1.0000 0.52752  0.42641  0.19052  Biso   1.000  H
  H234     1.0000 0.57430  0.40279  0.27422  Biso   1.000  H
  H235     1.0000 0.78618  0.74490  0.95079  Biso   1.000  H
  H236     1.0000 0.72110  0.77139  0.99543  Biso   1.000  H
  H237     1.0000 0.76900  0.73491  0.06261  Biso   1.000  H
  H238     1.0000 0.70091  0.71691  0.83579  Biso   1.000  H
  H239     1.0000 0.65971  0.65978  0.85369  Biso   1.000  H
  H240     1.0000 0.73619  0.65579  0.83477  Biso   1.000  H
