data_image0
_cell_length_a       9.946
_cell_length_b       12.038
_cell_length_c       14.418
_cell_angle_alpha    106.36
_cell_angle_beta     103.64
_cell_angle_gamma    91.49

_symmetry_space_group_name_H-M    "P 1"
_symmetry_int_tables_number       1

loop_
  _symmetry_equiv_pos_as_xyz
  'x, y, z'

loop_
  _atom_site_label
  _atom_site_occupancy
  _atom_site_fract_x
  _atom_site_fract_y
  _atom_site_fract_z
  _atom_site_thermal_displace_type
  _atom_site_B_iso_or_equiv
  _atom_site_type_symbol
  O1       1.0000 0.22724  0.67700  0.72416  Biso   1.000  O
  C1       1.0000 0.32941  0.59789  0.72416  Biso   1.000  C
  C2       1.0000 0.16342  0.70019  0.63240  Biso   1.000  C
  O2       1.0000 0.46373  0.65721  0.76750  Biso   1.000  O
  C3       1.0000 0.29714  0.51761  0.78245  Biso   1.000  C
  H1       1.0000 0.32350  0.55087  0.65385  Biso   1.000  H
  C4       1.0000 0.00777  0.67391  0.61596  Biso   1.000  C
  H2       1.0000 0.19603  0.64885  0.57606  Biso   1.000  H
  C5       1.0000 0.19761  0.82722  0.64219  Biso   1.000  C
  C6       1.0000 0.48358  0.72762  0.86995  Biso   1.000  C
  O3       1.0000 0.15784  0.46563  0.73679  Biso   1.000  O
  H3       1.0000 0.36171  0.45522  0.77766  Biso   1.000  H
  C7       1.0000 0.31607  0.58488  0.89072  Biso   1.000  C
  O4       1.0000 0.97119  0.55337  0.60064  Biso   1.000  O
  C8       1.0000 0.92865  0.70746  0.52554  Biso   1.000  C
  H4       1.0000 0.97945  0.72053  0.67619  Biso   1.000  H
  O5       1.0000 0.12206  0.85022  0.55229  Biso   1.000  O
  H5       1.0000 0.16561  0.87639  0.69995  Biso   1.000  H
  C9       1.0000 0.34848  0.86489  0.65624  Biso   1.000  C
  C10      1.0000 0.46007  0.65019  0.93362  Biso   1.000  C
  H6       1.0000 0.41332  0.78553  0.87234  Biso   1.000  H
  C11      1.0000 0.62703  0.79277  0.90006  Biso   1.000  C
  H7       1.0000 0.15483  0.39324  0.72640  Biso   1.000  H
  O6       1.0000 0.29747  0.50803  0.94811  Biso   1.000  O
  H8       1.0000 0.24528  0.64228  0.89573  Biso   1.000  H
  H9       1.0000 0.02535  0.54206  0.65071  Biso   1.000  H
  O7       1.0000 0.78347  0.69732  0.51710  Biso   1.000  O
  H10      1.0000 0.94831  0.65540  0.46374  Biso   1.000  H
  C12      1.0000 0.97489  0.83301  0.53660  Biso   1.000  C
  O8       1.0000 0.39347  0.80474  0.57075  Biso   1.000  O
  H11      1.0000 0.36093  0.94974  0.66662  Biso   1.000  H
  H12      1.0000 0.40531  0.84806  0.71609  Biso   1.000  H
  H13      1.0000 0.53305  0.59482  0.93690  Biso   1.000  H
  O9       1.0000 0.46182  0.72225  0.03121  Biso   1.000  O
  N1       1.0000 0.73343  0.71272  0.88721  Biso   1.000  N
  H14      1.0000 0.62905  0.84582  0.85874  Biso   1.000  H
  H15      1.0000 0.64730  0.84070  0.97083  Biso   1.000  H
  H16      1.0000 0.21404  0.50563  0.95103  Biso   1.000  H
  H17      1.0000 0.73652  0.65932  0.45971  Biso   1.000  H
  O10      1.0000 0.93402  0.90595  0.61798  Biso   1.000  O
  H18      1.0000 0.92831  0.85245  0.47443  Biso   1.000  H
  H19      1.0000 0.46442  0.84033  0.56649  Biso   1.000  H
  C13      1.0000 0.57725  0.72619  0.11176  Biso   1.000  C
  H20      1.0000 0.72350  0.68380  0.82026  Biso   1.000  H
  C14      1.0000 0.87794  0.76838  0.91247  Biso   1.000  C
  C15      1.0000 0.86582  0.00635  0.60453  Biso   1.000  C
  O11      1.0000 0.63596  0.84219  0.15899  Biso   1.000  O
  C16      1.0000 0.52767  0.67679  0.18537  Biso   1.000  C
  H21      1.0000 0.64857  0.67807  0.08598  Biso   1.000  H
  H22      1.0000 0.93280  0.70735  0.88034  Biso   1.000  H
  C17      1.0000 0.89538  0.87110  0.87227  Biso   1.000  C
  C18      1.0000 0.94241  0.79971  0.02523  Biso   1.000  C
  C19      1.0000 0.72517  0.99185  0.62560  Biso   1.000  C
  H23      1.0000 0.85414  0.00929  0.53451  Biso   1.000  H
  C20      1.0000 0.95309  0.11634  0.67910  Biso   1.000  C
  C21      1.0000 0.53775  0.91912  0.19433  Biso   1.000  C
  O12      1.0000 0.47727  0.55750  0.14188  Biso   1.000  O
  H24      1.0000 0.60928  0.68270  0.24298  Biso   1.000  H
  C22      1.0000 0.42096  0.74947  0.22504  Biso   1.000  C
  H25      1.0000 0.84246  0.93441  0.90163  Biso   1.000  H
  H26      1.0000 0.85752  0.84634  0.79881  Biso   1.000  H
  C23      1.0000 0.05015  0.91661  0.89820  Biso   1.000  C
  N2       1.0000 0.93417  0.69401  0.05557  Biso   1.000  N
  H27      1.0000 0.88878  0.85856  0.06117  Biso   1.000  H
  C24      1.0000 0.09440  0.84931  0.05146  Biso   1.000  C
  O13      1.0000 0.63940  0.89610  0.55087  Biso   1.000  O
  H28      1.0000 0.73833  0.97833  0.69240  Biso   1.000  H
  C25      1.0000 0.65380  0.10149  0.62642  Biso   1.000  C
  O14      1.0000 0.87653  0.21561  0.67806  Biso   1.000  O
  H29      1.0000 0.97722  0.10748  0.74785  Biso   1.000  H
  C26      1.0000 0.08411  0.14260  0.64996  Biso   1.000  C
  C27      1.0000 0.47921  0.87665  0.26876  Biso   1.000  C
  H30      1.0000 0.45939  0.91838  0.13605  Biso   1.000  H
  C28      1.0000 0.61295  0.03900  0.23737  Biso   1.000  C
  H31      1.0000 0.39907  0.55622  0.10324  Biso   1.000  H
  O15      1.0000 0.38293  0.70492  0.29850  Biso   1.000  O
  H32      1.0000 0.33687  0.74231  0.16885  Biso   1.000  H
  H33      1.0000 0.10213  0.85505  0.86502  Biso   1.000  H
  H34      1.0000 0.05954  0.98436  0.87324  Biso   1.000  H
  C29      1.0000 0.11136  0.95220  0.01103  Biso   1.000  C
  H35      1.0000 0.94070  0.71913  0.12237  Biso   1.000  H
  H36      1.0000 0.84451  0.66162  0.03539  Biso   1.000  H
  H37      1.0000 0.14983  0.78738  0.02344  Biso   1.000  H
  H38      1.0000 0.13103  0.87503  0.12506  Biso   1.000  H
  H39      1.0000 0.68664  0.83943  0.53810  Biso   1.000  H
  O16      1.0000 0.52614  0.08829  0.65272  Biso   1.000  O
  H40      1.0000 0.63401  0.11161  0.55820  Biso   1.000  H
  C30      1.0000 0.74704  0.20725  0.70152  Biso   1.000  C
  O17      1.0000 0.17469  0.23611  0.72543  Biso   1.000  O
  H41      1.0000 0.13405  0.07196  0.63815  Biso   1.000  H
  H42      1.0000 0.05863  0.16334  0.58674  Biso   1.000  H
  O18      1.0000 0.36810  0.94433  0.29103  Biso   1.000  O
  H43      1.0000 0.55385  0.88681  0.33145  Biso   1.000  H
  O19      1.0000 0.72467  0.04355  0.32114  Biso   1.000  O
  H44      1.0000 0.64961  0.06030  0.18589  Biso   1.000  H
  H45      1.0000 0.54743  0.09578  0.25815  Biso   1.000  H
  H46      1.0000 0.32805  0.75114  0.32047  Biso   1.000  H
  H47      1.0000 0.21126  0.97911  0.02665  Biso   1.000  H
  H48      1.0000 0.06378  0.01742  0.04376  Biso   1.000  H
  H49      1.0000 0.48899  0.14757  0.64391  Biso   1.000  H
  O20      1.0000 0.76648  0.19670  0.79934  Biso   1.000  O
  H50      1.0000 0.70050  0.27922  0.69816  Biso   1.000  H
  H51      1.0000 0.19446  0.22153  0.78050  Biso   1.000  H
  C31      1.0000 0.37797  0.00140  0.39288  Biso   1.000  C
  H52      1.0000 0.75201  0.11331  0.35380  Biso   1.000  H
  C32      1.0000 0.72139  0.28675  0.87032  Biso   1.000  C
  C33      1.0000 0.23944  0.97562  0.41500  Biso   1.000  C
  H53      1.0000 0.45306  0.97018  0.43510  Biso   1.000  H
  O21      1.0000 0.40950  0.12294  0.41567  Biso   1.000  O
  C34      1.0000 0.64469  0.22721  0.92584  Biso   1.000  C
  H54      1.0000 0.65648  0.33199  0.83453  Biso   1.000  H
  C35      1.0000 0.84344  0.36858  0.94423  Biso   1.000  C
  O22      1.0000 0.20331  0.85226  0.38331  Biso   1.000  O
  H55      1.0000 0.25167  0.00463  0.48897  Biso   1.000  H
  C36      1.0000 0.12290  0.03587  0.36560  Biso   1.000  C
  C37      1.0000 0.30510  0.17989  0.36299  Biso   1.000  C
  O23      1.0000 0.52479  0.15517  0.85792  Biso   1.000  O
  H56      1.0000 0.70820  0.17829  0.95820  Biso   1.000  H
  C38      1.0000 0.59789  0.31826  0.00528  Biso   1.000  C
  H57      1.0000 0.90822  0.32280  0.97942  Biso   1.000  H
  C39      1.0000 0.92348  0.43617  0.89685  Biso   1.000  C
  O24      1.0000 0.79036  0.45309  0.01649  Biso   1.000  O
  H58      1.0000 0.19997  0.83815  0.43659  Biso   1.000  H
  O25      1.0000 0.00458  0.01245  0.39841  Biso   1.000  O
  H59      1.0000 0.10251  0.00229  0.29140  Biso   1.000  H
  C40      1.0000 0.17045  0.16464  0.39489  Biso   1.000  C
  H60      1.0000 0.28764  0.14095  0.28961  Biso   1.000  H
  C41      1.0000 0.36403  0.30332  0.38548  Biso   1.000  C
  H61      1.0000 0.54912  0.11328  0.80853  Biso   1.000  H
  H62      1.0000 0.52894  0.36307  0.97210  Biso   1.000  H
  O26      1.0000 0.53584  0.26667  0.06409  Biso   1.000  O
  C42      1.0000 0.72411  0.40239  0.07380  Biso   1.000  C
  H63      1.0000 0.95232  0.38143  0.84126  Biso   1.000  H
  H64      1.0000 0.86247  0.48875  0.86883  Biso   1.000  H
  O27      1.0000 0.04325  0.50281  0.96814  Biso   1.000  O
  H65      1.0000 0.94230  0.03804  0.36179  Biso   1.000  H
  O28      1.0000 0.05914  0.21839  0.34670  Biso   1.000  O
  H66      1.0000 0.18858  0.19841  0.46895  Biso   1.000  H
  O29      1.0000 0.37753  0.36204  0.48897  Biso   1.000  O
  H67      1.0000 0.45617  0.30479  0.37046  Biso   1.000  H
  H68      1.0000 0.30174  0.34307  0.34341  Biso   1.000  H
  H69      1.0000 0.45214  0.27659  0.06274  Biso   1.000  H
  O30      1.0000 0.81633  0.34068  0.12544  Biso   1.000  O
  H70      1.0000 0.69195  0.46542  0.12304  Biso   1.000  H
  H71      1.0000 0.02623  0.56380  0.00715  Biso   1.000  H
  C43      1.0000 0.03573  0.33265  0.39945  Biso   1.000  C
  H72      1.0000 0.39025  0.43506  0.50915  Biso   1.000  H
  C44      1.0000 0.86944  0.38997  0.23125  Biso   1.000  C
  C45      1.0000 0.88113  0.33718  0.38944  Biso   1.000  C
  O31      1.0000 0.08565  0.41694  0.36097  Biso   1.000  O
  H73      1.0000 0.08490  0.34985  0.47171  Biso   1.000  H
  C46      1.0000 0.80760  0.30912  0.27870  Biso   1.000  C
  C47      1.0000 0.02870  0.39490  0.25493  Biso   1.000  C
  H74      1.0000 0.83990  0.46992  0.25366  Biso   1.000  H
  O32      1.0000 0.83288  0.25718  0.43360  Biso   1.000  O
  H75      1.0000 0.86398  0.41761  0.42508  Biso   1.000  H
  O33      1.0000 0.66269  0.32169  0.26891  Biso   1.000  O
  H76      1.0000 0.81915  0.22680  0.24388  Biso   1.000  H
  H77      1.0000 0.05689  0.31938  0.21787  Biso   1.000  H
  C48      1.0000 0.08971  0.49315  0.22729  Biso   1.000  C
  H78      1.0000 0.79766  0.30065  0.47627  Biso   1.000  H
  H79      1.0000 0.62492  0.30787  0.20763  Biso   1.000  H
  O34      1.0000 0.23203  0.47582  0.22669  Biso   1.000  O
  H80      1.0000 0.03647  0.49437  0.16026  Biso   1.000  H
  H81      1.0000 0.08505  0.56842  0.27616  Biso   1.000  H
  H82      1.0000 0.27226  0.53887  0.22856  Biso   1.000  H
  Ne1      1.0000 0.18203  0.99913  0.99339  Biso   1.000  Ne
  He1      1.0000 0.04926  0.94981  0.98115  Biso   1.000  He
  He2      1.0000 0.42918  0.10675  0.96039  Biso   1.000  He
  Ar1      1.0000 0.06887  0.98512  0.99521  Biso   1.000  Ar
