data_image0
_cell_length_a       15.953
_cell_length_b       11.267
_cell_length_c       22.062
_cell_angle_alpha    90
_cell_angle_beta     98.71
_cell_angle_gamma    90

_symmetry_space_group_name_H-M    "P 1"
_symmetry_int_tables_number       1

loop_
  _symmetry_equiv_pos_as_xyz
  'x, y, z'

loop_
  _atom_site_label
  _atom_site_occupancy
  _atom_site_fract_x
  _atom_site_fract_y
  _atom_site_fract_z
  _atom_site_thermal_displace_type
  _atom_site_B_iso_or_equiv
  _atom_site_type_symbol
  C1       1.0000 0.13530  0.17920  0.36052  Biso   1.000  C
  C2       1.0000 0.21768  0.16304  0.38959  Biso   1.000  C
  H1       1.0000 0.10410  0.24913  0.36808  Biso   1.000  H
  C3       1.0000 0.09972  0.09532  0.32140  Biso   1.000  C
  C4       1.0000 0.26383  0.06213  0.37950  Biso   1.000  C
  H2       1.0000 0.24360  0.22295  0.41729  Biso   1.000  H
  C5       1.0000 0.14091  0.99334  0.30769  Biso   1.000  C
  H3       1.0000 0.04229  0.10713  0.30191  Biso   1.000  H
  C6       1.0000 0.35513  0.04819  0.41110  Biso   1.000  C
  C7       1.0000 0.22478  0.97905  0.33851  Biso   1.000  C
  C8       1.0000 0.09833  0.90654  0.26179  Biso   1.000  C
  H4       1.0000 0.39133  0.06168  0.38069  Biso   1.000  H
  H5       1.0000 0.36623  0.11094  0.44072  Biso   1.000  H
  C9       1.0000 0.38271  0.93414  0.44310  Biso   1.000  C
  O1       1.0000 0.26867  0.87672  0.32929  Biso   1.000  O
  C10      1.0000 0.10572  0.77510  0.27701  Biso   1.000  C
  H6       1.0000 0.12029  0.91879  0.22419  Biso   1.000  H
  H7       1.0000 0.03913  0.92607  0.25418  Biso   1.000  H
  C11      1.0000 0.33611  0.87397  0.48130  Biso   1.000  C
  C12      1.0000 0.46160  0.88586  0.43668  Biso   1.000  C
  C13      1.0000 0.31274  0.87725  0.27752  Biso   1.000  C
  C14      1.0000 0.08140  0.73054  0.33002  Biso   1.000  C
  C15      1.0000 0.13467  0.69504  0.23629  Biso   1.000  C
  O2       1.0000 0.25449  0.91586  0.48607  Biso   1.000  O
  C16      1.0000 0.36432  0.76835  0.51092  Biso   1.000  C
  C17      1.0000 0.49072  0.78282  0.46589  Biso   1.000  C
  H8       1.0000 0.49640  0.92571  0.41128  Biso   1.000  H
  C18      1.0000 0.35390  0.75592  0.27738  Biso   1.000  C
  H9       1.0000 0.35480  0.93876  0.28142  Biso   1.000  H
  H10      1.0000 0.27388  0.88977  0.24042  Biso   1.000  H
  O3       1.0000 0.05498  0.80705  0.37180  Biso   1.000  O
  C19      1.0000 0.08890  0.60886  0.34369  Biso   1.000  C
  H11      1.0000 0.15004  0.72415  0.19860  Biso   1.000  H
  C20      1.0000 0.14183  0.57673  0.24890  Biso   1.000  C
  C21      1.0000 0.24669  0.99175  0.53591  Biso   1.000  C
  C22      1.0000 0.44252  0.72433  0.50239  Biso   1.000  C
  C23      1.0000 0.31544  0.70489  0.55380  Biso   1.000  C
  H12      1.0000 0.54522  0.75193  0.46062  Biso   1.000  H
  O4       1.0000 0.38779  0.74465  0.22281  Biso   1.000  O
  H13      1.0000 0.39799  0.74847  0.31191  Biso   1.000  H
  H14      1.0000 0.31263  0.69495  0.27999  Biso   1.000  H
  C24      1.0000 0.96618  0.82329  0.36680  Biso   1.000  C
  C25      1.0000 0.12012  0.53510  0.30210  Biso   1.000  C
  C26      1.0000 0.06373  0.55889  0.40128  Biso   1.000  C
  H15      1.0000 0.16193  0.52330  0.22038  Biso   1.000  H
  C27      1.0000 0.15293  0.01606  0.53151  Biso   1.000  C
  H16      1.0000 0.27750  0.06408  0.53280  Biso   1.000  H
  H17      1.0000 0.26810  0.95394  0.57411  Biso   1.000  H
  H18      1.0000 0.46309  0.65199  0.52220  Biso   1.000  H
  C28      1.0000 0.22032  0.68341  0.53449  Biso   1.000  C
  H19      1.0000 0.32233  0.74891  0.59149  Biso   1.000  H
  H20      1.0000 0.34183  0.62909  0.56279  Biso   1.000  H
  C29      1.0000 0.40993  0.63504  0.20520  Biso   1.000  C
  H21      1.0000 0.93871  0.74882  0.37152  Biso   1.000  H
  H22      1.0000 0.94412  0.85551  0.32732  Biso   1.000  H
  C30      1.0000 0.95141  0.90663  0.41600  Biso   1.000  C
  H23      1.0000 0.12661  0.45203  0.31122  Biso   1.000  H
  C31      1.0000 0.09859  0.61525  0.46181  Biso   1.000  C
  H24      1.0000 0.07948  0.47661  0.40348  Biso   1.000  H
  H25      1.0000 0.00288  0.56191  0.39720  Biso   1.000  H
  O5       1.0000 0.13680  0.07970  0.58347  Biso   1.000  O
  H26      1.0000 0.13371  0.06124  0.49510  Biso   1.000  H
  H27      1.0000 0.12234  0.94240  0.52881  Biso   1.000  H
  C32      1.0000 0.18613  0.63504  0.47869  Biso   1.000  C
  C33      1.0000 0.16572  0.71084  0.57430  Biso   1.000  C
  C34      1.0000 0.46032  0.55605  0.24138  Biso   1.000  C
  H28      1.0000 0.43659  0.64693  0.16939  Biso   1.000  H
  H29      1.0000 0.35772  0.59412  0.19149  Biso   1.000  H
  O6       1.0000 0.86320  0.92030  0.41655  Biso   1.000  O
  H30      1.0000 0.97798  0.87681  0.45489  Biso   1.000  H
  H31      1.0000 0.97608  0.98234  0.40931  Biso   1.000  H
  C35      1.0000 0.04698  0.64613  0.50450  Biso   1.000  C
  C36      1.0000 0.04859  0.09337  0.58402  Biso   1.000  C
  O7       1.0000 0.23891  0.60930  0.43622  Biso   1.000  O
  C37      1.0000 0.07963  0.69353  0.55981  Biso   1.000  C
  H32      1.0000 0.18801  0.74323  0.61369  Biso   1.000  H
  O8       1.0000 0.42340  0.50759  0.28719  Biso   1.000  O
  H33      1.0000 0.47598  0.49321  0.21589  Biso   1.000  H
  H34      1.0000 0.51129  0.59590  0.25908  Biso   1.000  H
  C38      1.0000 0.84713  0.98394  0.46851  Biso   1.000  C
  H35      1.0000 0.98693  0.63389  0.49492  Biso   1.000  H
  C39      1.0000 0.03382  0.17671  0.63322  Biso   1.000  C
  H36      1.0000 0.02201  0.12319  0.54509  Biso   1.000  H
  H37      1.0000 0.02392  0.01766  0.59071  Biso   1.000  H
  C40      1.0000 0.28283  0.49978  0.44388  Biso   1.000  C
  H38      1.0000 0.04272  0.71483  0.58860  Biso   1.000  H
  C41      1.0000 0.47353  0.42780  0.32631  Biso   1.000  C
  H39      1.0000 0.86629  0.93885  0.50492  Biso   1.000  H
  H40      1.0000 0.87772  0.05760  0.47121  Biso   1.000  H
  C42      1.0000 0.75331  0.00834  0.46410  Biso   1.000  C
  H41      1.0000 0.06129  0.25118  0.62850  Biso   1.000  H
  H42      1.0000 0.05594  0.14449  0.67270  Biso   1.000  H
  O9       1.0000 0.94502  0.19304  0.62822  Biso   1.000  O
  H43      1.0000 0.24334  0.43543  0.44301  Biso   1.000  H
  H44      1.0000 0.31958  0.49845  0.48258  Biso   1.000  H
  C43      1.0000 0.33294  0.48815  0.39312  Biso   1.000  C
  C44      1.0000 0.42542  0.35378  0.35671  Biso   1.000  C
  H45      1.0000 0.50680  0.38085  0.30260  Biso   1.000  H
  H46      1.0000 0.51173  0.47191  0.35579  Biso   1.000  H
  H47      1.0000 0.72249  0.93592  0.46722  Biso   1.000  H
  O10      1.0000 0.74550  0.08423  0.51390  Biso   1.000  O
  H48      1.0000 0.73190  0.04606  0.42591  Biso   1.000  H
  C45      1.0000 0.91860  0.26955  0.67000  Biso   1.000  C
  O11      1.0000 0.38794  0.39407  0.40582  Biso   1.000  O
  H49      1.0000 0.29579  0.47422  0.35520  Biso   1.000  H
  H50      1.0000 0.36411  0.55978  0.38899  Biso   1.000  H
  H51      1.0000 0.46069  0.28765  0.37129  Biso   1.000  H
  H52      1.0000 0.38072  0.32324  0.32672  Biso   1.000  H
  C46      1.0000 0.66389  0.12612  0.51872  Biso   1.000  C
  C47      1.0000 0.89435  0.22490  0.72301  Biso   1.000  C
  C48      1.0000 0.91109  0.39123  0.65629  Biso   1.000  C
  C49      1.0000 0.63568  0.23174  0.48910  Biso   1.000  C
  C50      1.0000 0.61729  0.06594  0.55692  Biso   1.000  C
  C51      1.0000 0.86532  0.30505  0.76368  Biso   1.000  C
  C52      1.0000 0.90172  0.09355  0.73818  Biso   1.000  C
  C53      1.0000 0.87994  0.46490  0.69792  Biso   1.000  C
  C54      1.0000 0.93632  0.44111  0.59869  Biso   1.000  C
  C55      1.0000 0.55754  0.27567  0.49758  Biso   1.000  C
  C56      1.0000 0.68462  0.29511  0.44622  Biso   1.000  C
  C57      1.0000 0.64493  0.95181  0.58892  Biso   1.000  C
  C58      1.0000 0.53839  0.11423  0.56329  Biso   1.000  C
  H53      1.0000 0.85003  0.27594  0.80142  Biso   1.000  H
  C59      1.0000 0.85823  0.42327  0.75112  Biso   1.000  C
  C60      1.0000 0.85914  0.00666  0.69228  Biso   1.000  C
  H54      1.0000 0.87970  0.08121  0.77579  Biso   1.000  H
  H55      1.0000 0.96093  0.07402  0.74580  Biso   1.000  H
  H56      1.0000 0.87339  0.54806  0.68880  Biso   1.000  H
  C61      1.0000 0.90140  0.38484  0.53821  Biso   1.000  C
  H57      1.0000 0.92051  0.52339  0.59649  Biso   1.000  H
  H58      1.0000 0.99711  0.43809  0.60282  Biso   1.000  H
  H59      1.0000 0.53691  0.34801  0.47782  Biso   1.000  H
  C62      1.0000 0.50933  0.21718  0.53408  Biso   1.000  C
  C63      1.0000 0.77974  0.31659  0.46548  Biso   1.000  C
  H60      1.0000 0.67772  0.25109  0.40848  Biso   1.000  H
  H61      1.0000 0.65822  0.37091  0.43719  Biso   1.000  H
  C64      1.0000 0.73623  0.93796  0.62052  Biso   1.000  C
  H62      1.0000 0.60872  0.93832  0.61928  Biso   1.000  H
  H63      1.0000 0.63384  0.88915  0.55930  Biso   1.000  H
  H64      1.0000 0.50359  0.07429  0.58869  Biso   1.000  H
  H65      1.0000 0.83812  0.47670  0.77959  Biso   1.000  H
  C65      1.0000 0.90035  0.90477  0.67862  Biso   1.000  C
  C66      1.0000 0.77522  0.02103  0.66151  Biso   1.000  C
  C67      1.0000 0.81393  0.36505  0.52129  Biso   1.000  C
  C68      1.0000 0.95302  0.35395  0.49552  Biso   1.000  C
  H66      1.0000 0.45484  0.24807  0.53940  Biso   1.000  H
  C69      1.0000 0.83435  0.28925  0.42572  Biso   1.000  C
  C70      1.0000 0.78231  0.83705  0.61038  Biso   1.000  C
  C71      1.0000 0.86470  0.82080  0.63950  Biso   1.000  C
  H67      1.0000 0.95771  0.89296  0.69811  Biso   1.000  H
  O12      1.0000 0.73132  0.12328  0.67068  Biso   1.000  O
  O13      1.0000 0.76109  0.39070  0.56380  Biso   1.000  O
  H68      1.0000 0.01313  0.36611  0.50510  Biso   1.000  H
  C72      1.0000 0.92044  0.30647  0.44021  Biso   1.000  C
  H69      1.0000 0.81198  0.25677  0.38629  Biso   1.000  H
  H70      1.0000 0.75639  0.77714  0.58269  Biso   1.000  H
  H71      1.0000 0.89589  0.75095  0.63189  Biso   1.000  H
  C73      1.0000 0.68732  0.12284  0.72250  Biso   1.000  C
  C74      1.0000 0.71722  0.50022  0.55609  Biso   1.000  C
  H72      1.0000 0.95734  0.28517  0.41142  Biso   1.000  H
  C75      1.0000 0.64609  0.24408  0.72259  Biso   1.000  C
  H73      1.0000 0.64520  0.06133  0.71860  Biso   1.000  H
  H74      1.0000 0.72612  0.11032  0.75960  Biso   1.000  H
  H75      1.0000 0.75672  0.56466  0.55701  Biso   1.000  H
  H76      1.0000 0.68041  0.50164  0.51739  Biso   1.000  H
  C76      1.0000 0.66712  0.51194  0.60690  Biso   1.000  C
  O14      1.0000 0.61221  0.25544  0.77721  Biso   1.000  O
  H77      1.0000 0.60201  0.25162  0.68811  Biso   1.000  H
  H78      1.0000 0.68742  0.30514  0.71998  Biso   1.000  H
  O15      1.0000 0.61212  0.60593  0.59420  Biso   1.000  O
  H79      1.0000 0.70421  0.52578  0.64482  Biso   1.000  H
  H80      1.0000 0.63588  0.44022  0.61098  Biso   1.000  H
  C77      1.0000 0.59013  0.36505  0.79482  Biso   1.000  C
  C78      1.0000 0.57464  0.64622  0.64331  Biso   1.000  C
  C79      1.0000 0.53973  0.44404  0.75859  Biso   1.000  C
  H81      1.0000 0.56340  0.35316  0.83058  Biso   1.000  H
  H82      1.0000 0.64233  0.40588  0.80848  Biso   1.000  H
  H83      1.0000 0.53930  0.71243  0.62868  Biso   1.000  H
  H84      1.0000 0.61935  0.67684  0.67330  Biso   1.000  H
  C80      1.0000 0.52654  0.57220  0.67371  Biso   1.000  C
  O16      1.0000 0.57659  0.49241  0.71278  Biso   1.000  O
  H85      1.0000 0.52401  0.50679  0.78409  Biso   1.000  H
  H86      1.0000 0.48870  0.40410  0.74089  Biso   1.000  H
  H87      1.0000 0.49320  0.61924  0.69742  Biso   1.000  H
  H88      1.0000 0.48832  0.52809  0.64418  Biso   1.000  H
  C81      1.0000 0.89432  0.27514  0.22300  Biso   1.000  C
  C82      1.0000 0.91863  0.23050  0.16999  Biso   1.000  C
  C83      1.0000 0.86530  0.19499  0.26372  Biso   1.000  C
  C84      1.0000 0.90170  0.40650  0.23822  Biso   1.000  C
  O17      1.0000 0.94499  0.30700  0.12821  Biso   1.000  O
  C85      1.0000 0.91113  0.10881  0.15632  Biso   1.000  C
  H89      1.0000 0.85000  0.22411  0.30141  Biso   1.000  H
  C86      1.0000 0.85820  0.07668  0.25111  Biso   1.000  C
  C87      1.0000 0.85912  0.49330  0.19232  Biso   1.000  C
  H90      1.0000 0.87974  0.41883  0.27582  Biso   1.000  H
  H91      1.0000 0.96089  0.42602  0.24579  Biso   1.000  H
  C88      1.0000 0.03379  0.32333  0.13321  Biso   1.000  C
  C89      1.0000 0.87991  0.03506  0.19791  Biso   1.000  C
  C90      1.0000 0.93629  0.05893  0.09868  Biso   1.000  C
  H92      1.0000 0.83809  0.02334  0.27958  Biso   1.000  H
  C91      1.0000 0.77519  0.47901  0.16150  Biso   1.000  C
  C92      1.0000 0.90031  0.59528  0.17861  Biso   1.000  C
  H93      1.0000 0.06132  0.24878  0.12849  Biso   1.000  H
  H94      1.0000 0.05591  0.35555  0.17269  Biso   1.000  H
  C93      1.0000 0.04862  0.40659  0.08401  Biso   1.000  C
  H95      1.0000 0.87342  0.95207  0.18879  Biso   1.000  H
  H96      1.0000 0.92047  0.97666  0.09648  Biso   1.000  H
  C94      1.0000 0.90137  0.11520  0.03820  Biso   1.000  C
  H97      1.0000 0.99708  0.06186  0.10281  Biso   1.000  H
  O18      1.0000 0.73129  0.37668  0.17067  Biso   1.000  O
  C95      1.0000 0.73620  0.56208  0.12051  Biso   1.000  C
  C96      1.0000 0.86473  0.67924  0.13949  Biso   1.000  C
  H98      1.0000 0.95768  0.60708  0.19810  Biso   1.000  H
  O19      1.0000 0.13683  0.42034  0.08346  Biso   1.000  O
  H99      1.0000 0.02199  0.37685  0.04512  Biso   1.000  H
  H100     1.0000 0.02388  0.48229  0.09070  Biso   1.000  H
  C97      1.0000 0.95304  0.14609  0.99546  Biso   1.000  C
  C98      1.0000 0.81391  0.13500  0.02132  Biso   1.000  C
  C99      1.0000 0.68729  0.37721  0.22249  Biso   1.000  C
  C100     1.0000 0.78229  0.66300  0.11042  Biso   1.000  C
  C101     1.0000 0.64490  0.54824  0.08891  Biso   1.000  C
  H101     1.0000 0.89592  0.74909  0.13188  Biso   1.000  H
  C102     1.0000 0.15290  0.48389  0.03150  Biso   1.000  C
  H102     1.0000 0.01310  0.13393  0.00509  Biso   1.000  H
  C103     1.0000 0.92041  0.19349  0.94020  Biso   1.000  C
  C104     1.0000 0.77971  0.18337  0.96547  Biso   1.000  C
  O20      1.0000 0.76112  0.10935  0.06379  Biso   1.000  O
  C105     1.0000 0.64613  0.25588  0.22258  Biso   1.000  C
  H103     1.0000 0.64523  0.43871  0.21859  Biso   1.000  H
  H104     1.0000 0.72609  0.38972  0.25959  Biso   1.000  H
  H105     1.0000 0.75642  0.72291  0.08268  Biso   1.000  H
  C106     1.0000 0.61732  0.43410  0.05691  Biso   1.000  C
  H106     1.0000 0.60870  0.56173  0.11932  Biso   1.000  H
  H107     1.0000 0.63380  0.61090  0.05929  Biso   1.000  H
  H108     1.0000 0.12231  0.55765  0.02880  Biso   1.000  H
  C107     1.0000 0.24672  0.50830  0.03590  Biso   1.000  C
  H109     1.0000 0.13374  0.43880  0.99509  Biso   1.000  H
  H110     1.0000 0.95730  0.21479  0.91136  Biso   1.000  H
  C108     1.0000 0.83430  0.21079  0.92567  Biso   1.000  C
  C109     1.0000 0.68465  0.20493  0.94617  Biso   1.000  C
  C110     1.0000 0.71719  0.99982  0.05608  Biso   1.000  C
  O21      1.0000 0.61218  0.24461  0.27720  Biso   1.000  O
  H111     1.0000 0.60198  0.24842  0.18810  Biso   1.000  H
  H112     1.0000 0.68740  0.19491  0.22002  Biso   1.000  H
  C111     1.0000 0.66392  0.37392  0.01871  Biso   1.000  C
  C112     1.0000 0.53842  0.38582  0.06328  Biso   1.000  C
  H113     1.0000 0.26807  0.54611  0.07410  Biso   1.000  H
  H114     1.0000 0.27747  0.43587  0.03279  Biso   1.000  H
  O22      1.0000 0.25452  0.58418  0.98606  Biso   1.000  O
  H115     1.0000 0.81201  0.24319  0.88628  Biso   1.000  H
  C113     1.0000 0.63571  0.26831  0.98909  Biso   1.000  C
  H116     1.0000 0.67769  0.24887  0.90847  Biso   1.000  H
  H117     1.0000 0.65825  0.12914  0.93718  Biso   1.000  H
  H118     1.0000 0.75669  0.93548  0.05700  Biso   1.000  H
  H119     1.0000 0.68038  0.99840  0.01738  Biso   1.000  H
  C114     1.0000 0.66709  0.98811  0.10689  Biso   1.000  C
  C115     1.0000 0.59010  0.13500  0.29481  Biso   1.000  C
  O23      1.0000 0.74547  0.41582  0.01389  Biso   1.000  O
  C116     1.0000 0.50931  0.28277  0.03412  Biso   1.000  C
  H120     1.0000 0.50362  0.42576  0.08868  Biso   1.000  H
  C117     1.0000 0.33614  0.62616  0.98129  Biso   1.000  C
  C118     1.0000 0.55751  0.22428  0.99757  Biso   1.000  C
  O24      1.0000 0.61209  0.89412  0.09419  Biso   1.000  O
  H121     1.0000 0.70418  0.97426  0.14481  Biso   1.000  H
  H122     1.0000 0.63592  0.05982  0.11102  Biso   1.000  H
  C119     1.0000 0.53970  0.05600  0.25858  Biso   1.000  C
  H123     1.0000 0.56344  0.14689  0.33062  Biso   1.000  H
  H124     1.0000 0.64231  0.09408  0.30852  Biso   1.000  H
  C120     1.0000 0.75334  0.49170  0.96410  Biso   1.000  C
  H125     1.0000 0.45481  0.25189  0.03939  Biso   1.000  H
  C121     1.0000 0.36429  0.73169  0.01091  Biso   1.000  C
  C122     1.0000 0.38274  0.56590  0.94309  Biso   1.000  C
  H126     1.0000 0.53693  0.15204  0.97776  Biso   1.000  H
  C123     1.0000 0.57461  0.85382  0.14330  Biso   1.000  C
  H127     1.0000 0.52399  0.99325  0.28412  Biso   1.000  H
  O25      1.0000 0.57663  0.00763  0.21282  Biso   1.000  O
  H128     1.0000 0.48867  0.09594  0.24088  Biso   1.000  H
  C124     1.0000 0.84710  0.51611  0.96850  Biso   1.000  C
  H129     1.0000 0.73193  0.45389  0.92590  Biso   1.000  H
  H130     1.0000 0.72252  0.56413  0.96717  Biso   1.000  H
  C125     1.0000 0.44249  0.77572  0.00238  Biso   1.000  C
  C126     1.0000 0.31541  0.79515  0.05379  Biso   1.000  C
  C127     1.0000 0.46163  0.61418  0.93667  Biso   1.000  C
  C128     1.0000 0.35510  0.45185  0.91109  Biso   1.000  C
  H131     1.0000 0.53934  0.78761  0.12872  Biso   1.000  H
  H132     1.0000 0.61932  0.82320  0.17329  Biso   1.000  H
  C129     1.0000 0.52650  0.92784  0.17370  Biso   1.000  C
  O26      1.0000 0.86323  0.57975  0.91654  Biso   1.000  O
  H133     1.0000 0.87775  0.44244  0.97120  Biso   1.000  H
  H134     1.0000 0.86632  0.56120  0.00491  Biso   1.000  H
  H135     1.0000 0.46312  0.84805  0.02219  Biso   1.000  H
  C130     1.0000 0.49076  0.71723  0.96588  Biso   1.000  C
  C131     1.0000 0.22028  0.81663  0.03448  Biso   1.000  C
  H136     1.0000 0.32230  0.75113  0.09148  Biso   1.000  H
  H137     1.0000 0.34181  0.87095  0.06282  Biso   1.000  H
  H138     1.0000 0.49643  0.57433  0.91127  Biso   1.000  H
  C132     1.0000 0.26380  0.43792  0.87949  Biso   1.000  C
  H139     1.0000 0.39130  0.43836  0.88068  Biso   1.000  H
  H140     1.0000 0.36625  0.38910  0.94066  Biso   1.000  H
  H141     1.0000 0.49323  0.88080  0.19741  Biso   1.000  H
  H142     1.0000 0.48830  0.97195  0.14422  Biso   1.000  H
  C133     1.0000 0.95144  0.59341  0.91599  Biso   1.000  C
  H143     1.0000 0.54524  0.74811  0.96056  Biso   1.000  H
  C134     1.0000 0.16569  0.78921  0.07429  Biso   1.000  C
  C135     1.0000 0.18609  0.86500  0.97868  Biso   1.000  C
  C136     1.0000 0.22481  0.52099  0.83850  Biso   1.000  C
  C137     1.0000 0.21771  0.33700  0.88958  Biso   1.000  C
  C138     1.0000 0.96621  0.67676  0.86679  Biso   1.000  C
  H144     1.0000 0.97801  0.62324  0.95488  Biso   1.000  H
  H145     1.0000 0.97612  0.51771  0.90930  Biso   1.000  H
  C139     1.0000 0.07959  0.80651  0.05980  Biso   1.000  C
  H146     1.0000 0.18799  0.75681  0.11372  Biso   1.000  H
  O27      1.0000 0.23895  0.89074  0.93621  Biso   1.000  O
  C140     1.0000 0.09863  0.88480  0.96180  Biso   1.000  C
  O28      1.0000 0.26870  0.62332  0.82928  Biso   1.000  O
  C141     1.0000 0.14094  0.50670  0.80768  Biso   1.000  C
  H147     1.0000 0.24363  0.27709  0.91728  Biso   1.000  H
  C142     1.0000 0.13532  0.32085  0.86046  Biso   1.000  C
  O29      1.0000 0.05501  0.69300  0.87179  Biso   1.000  O
  H148     1.0000 0.93873  0.75122  0.87147  Biso   1.000  H
  H149     1.0000 0.94414  0.64454  0.82726  Biso   1.000  H
  C143     1.0000 0.04701  0.85391  0.00449  Biso   1.000  C
  H150     1.0000 0.04269  0.78521  0.08859  Biso   1.000  H
  C144     1.0000 0.28280  0.00018  0.94387  Biso   1.000  C
  C145     1.0000 0.06370  0.94116  0.90127  Biso   1.000  C
  C146     1.0000 0.31270  0.62279  0.77746  Biso   1.000  C
  C147     1.0000 0.09975  0.40472  0.82139  Biso   1.000  C
  C148     1.0000 0.09830  0.59350  0.76178  Biso   1.000  C
  H151     1.0000 0.10413  0.25091  0.86807  Biso   1.000  H
  C149     1.0000 0.08142  0.76950  0.82997  Biso   1.000  C
  H152     1.0000 0.98695  0.86616  0.99486  Biso   1.000  H
  H153     1.0000 0.24331  0.06461  0.94300  Biso   1.000  H
  H154     1.0000 0.31961  0.00160  0.98257  Biso   1.000  H
  C150     1.0000 0.33290  0.01189  0.89306  Biso   1.000  C
  C151     1.0000 0.08893  0.89128  0.84368  Biso   1.000  C
  H155     1.0000 0.00292  0.93814  0.89719  Biso   1.000  H
  H156     1.0000 0.07952  0.02343  0.90347  Biso   1.000  H
  C152     1.0000 0.35393  0.74412  0.77737  Biso   1.000  C
  H157     1.0000 0.35483  0.56129  0.78136  Biso   1.000  H
  H158     1.0000 0.27390  0.61028  0.74037  Biso   1.000  H
  H159     1.0000 0.04232  0.39292  0.80190  Biso   1.000  H
  C153     1.0000 0.10575  0.72495  0.77700  Biso   1.000  C
  H160     1.0000 0.12032  0.58125  0.72418  Biso   1.000  H
  H161     1.0000 0.03910  0.57398  0.75417  Biso   1.000  H
  H162     1.0000 0.36414  0.94027  0.88898  Biso   1.000  H
  O30      1.0000 0.38790  0.10588  0.90577  Biso   1.000  O
  H163     1.0000 0.29582  0.02583  0.85519  Biso   1.000  H
  C154     1.0000 0.12015  0.96494  0.80209  Biso   1.000  C
  O31      1.0000 0.38782  0.75539  0.72280  Biso   1.000  O
  H164     1.0000 0.39802  0.75166  0.81190  Biso   1.000  H
  H165     1.0000 0.31260  0.80509  0.77998  Biso   1.000  H
  C155     1.0000 0.13470  0.80501  0.73628  Biso   1.000  C
  C156     1.0000 0.42545  0.14618  0.85670  Biso   1.000  C
  C157     1.0000 0.14180  0.92332  0.74889  Biso   1.000  C
  H166     1.0000 0.12663  0.04802  0.81117  Biso   1.000  H
  C158     1.0000 0.40990  0.86500  0.70519  Biso   1.000  C
  H167     1.0000 0.15000  0.77589  0.69859  Biso   1.000  H
  H168     1.0000 0.46073  0.21239  0.87128  Biso   1.000  H
  H169     1.0000 0.38074  0.17680  0.82667  Biso   1.000  H
  C159     1.0000 0.47350  0.07225  0.82630  Biso   1.000  C
  H170     1.0000 0.16190  0.97675  0.72037  Biso   1.000  H
  C160     1.0000 0.46029  0.94400  0.74137  Biso   1.000  C
  H171     1.0000 0.43662  0.85311  0.66938  Biso   1.000  H
  H172     1.0000 0.35769  0.90592  0.69148  Biso   1.000  H
  O32      1.0000 0.42343  0.99246  0.78718  Biso   1.000  O
  H173     1.0000 0.50683  0.11920  0.80259  Biso   1.000  H
  H174     1.0000 0.51170  0.02814  0.85578  Biso   1.000  H
  H175     1.0000 0.51132  0.90414  0.75907  Biso   1.000  H
  H176     1.0000 0.47601  0.00683  0.71588  Biso   1.000  H
  Ne1      1.0000 0.00001  0.00002  0.50000  Biso   1.000  Ne
  He1      1.0000 0.97932  0.94594  0.52337  Biso   1.000  He
  He2      1.0000 0.00000  0.00000  0.00000  Biso   1.000  He
  He3      1.0000 0.02354  0.09548  0.46348  Biso   1.000  He
  Ar1      1.0000 0.00001  0.00002  0.50000  Biso   1.000  Ar
  Ne2      1.0000 0.00001  0.50001  0.99999  Biso   1.000  Ne
  He4      1.0000 0.97657  0.59855  0.03736  Biso   1.000  He
  He5      1.0000 0.02348  0.37363  0.95429  Biso   1.000  He
  Ar2      1.0000 0.00002  0.50000  0.00000  Biso   1.000  Ar
