data_image0
_cell_length_a       10.706
_cell_length_b       17.793
_cell_length_c       19.005
_cell_angle_alpha    90
_cell_angle_beta     97.56
_cell_angle_gamma    90

_symmetry_space_group_name_H-M    "P 1"
_symmetry_int_tables_number       1

loop_
  _symmetry_equiv_pos_as_xyz
  'x, y, z'

loop_
  _atom_site_label
  _atom_site_occupancy
  _atom_site_fract_x
  _atom_site_fract_y
  _atom_site_fract_z
  _atom_site_thermal_displace_type
  _atom_site_B_iso_or_equiv
  _atom_site_type_symbol
  C1       1.0000 0.75241  0.12629  0.88520  Biso   1.000  C
  C2       1.0000 0.83071  0.11735  0.83409  Biso   1.000  C
  C3       1.0000 0.63727  0.09009  0.87851  Biso   1.000  C
  C4       1.0000 0.63718  0.09009  0.87851  Biso   1.000  C
  C5       1.0000 0.63727  0.09015  0.87851  Biso   1.000  C
  C6       1.0000 0.63718  0.09015  0.87851  Biso   1.000  C
  H1       1.0000 0.77761  0.15781  0.92549  Biso   1.000  H
  C7       1.0000 0.79619  0.07441  0.77389  Biso   1.000  C
  H2       1.0000 0.91155  0.14140  0.84030  Biso   1.000  H
  C8       1.0000 0.75241  0.12634  0.88520  Biso   1.000  C
  C9       1.0000 0.59804  0.04491  0.81933  Biso   1.000  C
  C10      1.0000 0.59795  0.04491  0.81933  Biso   1.000  C
  H3       1.0000 0.58354  0.09599  0.91482  Biso   1.000  H
  H4       1.0000 0.58354  0.09605  0.91482  Biso   1.000  H
  C11      1.0000 0.67713  0.04052  0.76641  Biso   1.000  C
  C12      1.0000 0.88794  0.06480  0.72039  Biso   1.000  C
  C13      1.0000 0.88784  0.06480  0.72039  Biso   1.000  C
  C14      1.0000 0.47115  0.00551  0.81153  Biso   1.000  C
  O1       1.0000 0.63045  0.00096  0.70574  Biso   1.000  O
  C15      1.0000 0.91820  0.98561  0.69879  Biso   1.000  C
  H5       1.0000 0.96558  0.08863  0.73929  Biso   1.000  H
  H6       1.0000 0.85503  0.09183  0.67830  Biso   1.000  H
  H7       1.0000 0.43180  0.01742  0.85261  Biso   1.000  H
  H8       1.0000 0.42000  0.02720  0.77129  Biso   1.000  H
  C16      1.0000 0.46675  0.92070  0.80229  Biso   1.000  C
  C17      1.0000 0.60471  0.04721  0.64353  Biso   1.000  C
  C18      1.0000 0.60470  0.04721  0.64348  Biso   1.000  C
  C19      1.0000 0.60461  0.04721  0.64348  Biso   1.000  C
  C20      1.0000 0.90139  0.96409  0.62840  Biso   1.000  C
  C21      1.0000 0.96637  0.93222  0.74868  Biso   1.000  C
  C22      1.0000 0.90139  0.96414  0.62840  Biso   1.000  C
  C23      1.0000 0.55035  0.87090  0.84030  Biso   1.000  C
  C24      1.0000 0.36814  0.89001  0.75601  Biso   1.000  C
  C25      1.0000 0.48996  0.02271  0.59693  Biso   1.000  C
  H9       1.0000 0.67537  0.04541  0.61731  Biso   1.000  H
  H10      1.0000 0.59413  0.09830  0.65781  Biso   1.000  H
  H11      1.0000 0.59404  0.09830  0.65781  Biso   1.000  H
  O2       1.0000 0.98587  0.95178  0.81975  Biso   1.000  O
  C26      1.0000 0.99166  0.85854  0.72978  Biso   1.000  C
  H12      1.0000 0.86965  0.00011  0.59289  Biso   1.000  H
  C27      1.0000 0.92878  0.89237  0.60770  Biso   1.000  C
  C28      1.0000 0.92878  0.89243  0.60770  Biso   1.000  C
  O3       1.0000 0.65451  0.89990  0.88313  Biso   1.000  O
  C29      1.0000 0.53969  0.79301  0.83223  Biso   1.000  C
  C30      1.0000 0.35556  0.81330  0.74693  Biso   1.000  C
  H13      1.0000 0.30787  0.92289  0.72989  Biso   1.000  H
  C31      1.0000 0.35546  0.81330  0.74693  Biso   1.000  C
  H14      1.0000 0.30787  0.92295  0.72989  Biso   1.000  H
  H15      1.0000 0.49337  0.96943  0.58950  Biso   1.000  H
  O4       1.0000 0.38031  0.04069  0.62734  Biso   1.000  O
  H16      1.0000 0.48682  0.04693  0.55149  Biso   1.000  H
  O5       1.0000 0.38022  0.04069  0.62734  Biso   1.000  O
  C32      1.0000 0.10819  0.98039  0.84359  Biso   1.000  C
  C33      1.0000 0.10819  0.98044  0.84359  Biso   1.000  C
  C34      1.0000 0.97278  0.84050  0.65813  Biso   1.000  C
  C35      1.0000 0.04145  0.79964  0.78419  Biso   1.000  C
  H17      1.0000 0.91717  0.87900  0.55839  Biso   1.000  H
  C36      1.0000 0.64290  0.91412  0.95542  Biso   1.000  C
  C37      1.0000 0.44017  0.76609  0.78408  Biso   1.000  C
  C38      1.0000 0.44017  0.76614  0.78408  Biso   1.000  C
  C39      1.0000 0.62767  0.73793  0.87458  Biso   1.000  C
  H18      1.0000 0.28734  0.79335  0.71439  Biso   1.000  H
  H19      1.0000 0.28725  0.79335  0.71439  Biso   1.000  H
  C40      1.0000 0.26837  0.04417  0.57718  Biso   1.000  C
  C41      1.0000 0.26837  0.04423  0.57718  Biso   1.000  C
  C42      1.0000 0.11056  0.99933  0.91891  Biso   1.000  C
  H20      1.0000 0.17120  0.94340  0.83780  Biso   1.000  H
  C43      1.0000 0.11046  0.99933  0.91891  Biso   1.000  C
  H21      1.0000 0.12458  0.02439  0.81699  Biso   1.000  H
  H22      1.0000 0.12458  0.02445  0.81699  Biso   1.000  H
  H23      1.0000 0.99096  0.79048  0.64358  Biso   1.000  H
  H24      1.0000 0.99096  0.79054  0.64358  Biso   1.000  H
  C44      1.0000 0.96542  0.78424  0.84380  Biso   1.000  C
  H25      1.0000 0.05000  0.75322  0.75962  Biso   1.000  H
  H26      1.0000 0.12435  0.81465  0.80479  Biso   1.000  H
  C45      1.0000 0.77039  0.94458  0.98499  Biso   1.000  C
  H27      1.0000 0.62448  0.86882  0.97931  Biso   1.000  H
  H28      1.0000 0.62438  0.86882  0.97931  Biso   1.000  H
  H29      1.0000 0.57778  0.95032  0.95972  Biso   1.000  H
  C46      1.0000 0.77039  0.94464  0.98499  Biso   1.000  C
  H30      1.0000 0.43098  0.71292  0.77713  Biso   1.000  H
  C47      1.0000 0.76838  0.75440  0.88839  Biso   1.000  C
  H31      1.0000 0.61765  0.69022  0.85091  Biso   1.000  H
  H32      1.0000 0.59846  0.73180  0.91991  Biso   1.000  H
  H33      1.0000 0.61756  0.69022  0.85091  Biso   1.000  H
  H34      1.0000 0.20888  0.07672  0.59560  Biso   1.000  H
  C48      1.0000 0.20805  0.96909  0.56089  Biso   1.000  C
  C49      1.0000 0.20805  0.96915  0.56089  Biso   1.000  C
  H35      1.0000 0.28874  0.06598  0.53403  Biso   1.000  H
  H36      1.0000 0.28874  0.06604  0.53403  Biso   1.000  H
  H37      1.0000 0.09401  0.95521  0.94523  Biso   1.000  H
  O6       1.0000 0.23201  0.02928  0.94582  Biso   1.000  O
  H38      1.0000 0.04627  0.03569  0.92443  Biso   1.000  H
  O7       1.0000 0.23201  0.02934  0.94582  Biso   1.000  O
  H39      1.0000 0.04627  0.03574  0.92443  Biso   1.000  H
  C50      1.0000 0.83715  0.76592  0.83249  Biso   1.000  C
  C51      1.0000 0.02336  0.78581  0.91349  Biso   1.000  C
  H40      1.0000 0.83260  0.90581  0.98499  Biso   1.000  H
  H41      1.0000 0.79284  0.98499  0.95553  Biso   1.000  H
  H42      1.0000 0.79275  0.98499  0.95553  Biso   1.000  H
  O8       1.0000 0.76816  0.97072  0.05420  Biso   1.000  O
  O9       1.0000 0.76807  0.97072  0.05420  Biso   1.000  O
  C52      1.0000 0.83104  0.75541  0.95670  Biso   1.000  C
  C53      1.0000 0.83095  0.75541  0.95670  Biso   1.000  C
  O10      1.0000 0.28182  0.92559  0.51917  Biso   1.000  O
  H43      1.0000 0.12512  0.97589  0.53573  Biso   1.000  H
  H44      1.0000 0.20029  0.94312  0.60441  Biso   1.000  H
  O11      1.0000 0.28172  0.92559  0.51917  Biso   1.000  O
  H45      1.0000 0.12503  0.97589  0.53573  Biso   1.000  H
  O12      1.0000 0.28182  0.92564  0.51917  Biso   1.000  O
  H46      1.0000 0.12512  0.97595  0.53573  Biso   1.000  H
  O13      1.0000 0.28172  0.92564  0.51917  Biso   1.000  O
  H47      1.0000 0.12503  0.97595  0.53573  Biso   1.000  H
  C54      1.0000 0.22968  0.05542  0.01503  Biso   1.000  C
  O14      1.0000 0.77447  0.76317  0.76328  Biso   1.000  O
  C55      1.0000 0.95710  0.77109  0.96933  Biso   1.000  C
  H48      1.0000 0.11151  0.79739  0.92299  Biso   1.000  H
  C56      1.0000 0.88961  0.00073  0.08112  Biso   1.000  C
  H49      1.0000 0.78556  0.74512  0.99592  Biso   1.000  H
  H50      1.0000 0.78546  0.74512  0.99592  Biso   1.000  H
  C57      1.0000 0.24796  0.84842  0.51619  Biso   1.000  C
  H51      1.0000 0.20733  0.01501  0.04449  Biso   1.000  H
  H52      1.0000 0.16747  0.09419  0.01503  Biso   1.000  H
  C58      1.0000 0.35727  0.08593  0.04460  Biso   1.000  C
  C59      1.0000 0.35717  0.08593  0.04460  Biso   1.000  C
  H53      1.0000 0.16747  0.09425  0.01503  Biso   1.000  H
  C60      1.0000 0.78500  0.69342  0.72718  Biso   1.000  C
  H54      1.0000 0.99936  0.77171  0.01710  Biso   1.000  H
  H55      1.0000 0.99927  0.77171  0.01710  Biso   1.000  H
  H56      1.0000 0.95380  0.96431  0.07560  Biso   1.000  H
  C61      1.0000 0.89198  0.01961  0.15643  Biso   1.000  C
  H57      1.0000 0.90616  0.04479  0.05479  Biso   1.000  H
  C62      1.0000 0.89187  0.01961  0.15638  Biso   1.000  C
  H58      1.0000 0.90607  0.04479  0.05479  Biso   1.000  H
  H59      1.0000 0.90616  0.04485  0.05479  Biso   1.000  H
  H60      1.0000 0.90607  0.04485  0.05479  Biso   1.000  H
  H61      1.0000 0.23909  0.83072  0.56301  Biso   1.000  H
  C63      1.0000 0.34737  0.80324  0.48631  Biso   1.000  C
  H62      1.0000 0.16861  0.84224  0.48679  Biso   1.000  H
  H63      1.0000 0.16852  0.84224  0.48679  Biso   1.000  H
  O15      1.0000 0.34566  0.10010  0.11689  Biso   1.000  O
  H64      1.0000 0.42230  0.04968  0.04030  Biso   1.000  H
  O16      1.0000 0.34557  0.10010  0.11689  Biso   1.000  O
  O17      1.0000 0.34566  0.10015  0.11689  Biso   1.000  O
  H65      1.0000 0.37569  0.13123  0.02071  Biso   1.000  H
  H66      1.0000 0.42230  0.04974  0.04030  Biso   1.000  H
  O18      1.0000 0.34557  0.10015  0.11689  Biso   1.000  O
  C64      1.0000 0.68688  0.68842  0.66418  Biso   1.000  C
  H67      1.0000 0.77507  0.65250  0.75903  Biso   1.000  H
  H68      1.0000 0.86702  0.68948  0.71243  Biso   1.000  H
  H69      1.0000 0.86702  0.68954  0.71243  Biso   1.000  H
  H70      1.0000 0.87559  0.97561  0.18303  Biso   1.000  H
  H71      1.0000 0.87549  0.97561  0.18303  Biso   1.000  H
  H72      1.0000 0.82897  0.05660  0.16222  Biso   1.000  H
  H73      1.0000 0.82888  0.05660  0.16222  Biso   1.000  H
  H74      1.0000 0.82897  0.05665  0.16222  Biso   1.000  H
  H75      1.0000 0.82888  0.05665  0.16222  Biso   1.000  H
  O19      1.0000 0.01430  0.04822  0.18027  Biso   1.000  O
  O20      1.0000 0.01421  0.04822  0.18027  Biso   1.000  O
  O21      1.0000 0.01430  0.04828  0.18027  Biso   1.000  O
  O22      1.0000 0.01421  0.04828  0.18027  Biso   1.000  O
  H76      1.0000 0.32813  0.75080  0.49029  Biso   1.000  H
  O23      1.0000 0.47195  0.81605  0.51980  Biso   1.000  O
  H77      1.0000 0.34381  0.81465  0.43668  Biso   1.000  H
  C65      1.0000 0.44972  0.12915  0.15973  Biso   1.000  C
  O24      1.0000 0.69270  0.74361  0.61275  Biso   1.000  O
  O25      1.0000 0.69261  0.74361  0.61275  Biso   1.000  O
  H78      1.0000 0.60562  0.69089  0.68021  Biso   1.000  H
  H79      1.0000 0.69359  0.64008  0.64252  Biso   1.000  H
  H80      1.0000 0.60553  0.69089  0.68021  Biso   1.000  H
  H81      1.0000 0.69359  0.64014  0.64252  Biso   1.000  H
  C66      1.0000 0.03378  0.06778  0.25129  Biso   1.000  C
  C67      1.0000 0.03369  0.06778  0.25129  Biso   1.000  C
  C68      1.0000 0.03378  0.06784  0.25129  Biso   1.000  C
  C69      1.0000 0.03369  0.06784  0.25129  Biso   1.000  C
  C70      1.0000 0.48724  0.80650  0.59449  Biso   1.000  C
  C71      1.0000 0.53333  0.07930  0.19773  Biso   1.000  C
  C72      1.0000 0.46039  0.20699  0.16779  Biso   1.000  C
  C73      1.0000 0.46039  0.20705  0.16779  Biso   1.000  C
  C74      1.0000 0.62474  0.81004  0.62288  Biso   1.000  C
  C75      1.0000 0.08197  0.01439  0.30123  Biso   1.000  C
  C76      1.0000 0.00851  0.14152  0.27024  Biso   1.000  C
  C77      1.0000 0.00840  0.14152  0.27018  Biso   1.000  C
  C78      1.0000 0.08197  0.01444  0.30123  Biso   1.000  C
  C79      1.0000 0.00841  0.14152  0.27024  Biso   1.000  C
  H82      1.0000 0.45325  0.75889  0.60611  Biso   1.000  H
  H83      1.0000 0.44254  0.84544  0.61582  Biso   1.000  H
  C80      1.0000 0.55999  0.23391  0.21594  Biso   1.000  C
  C81      1.0000 0.55989  0.23391  0.21588  Biso   1.000  C
  C82      1.0000 0.37240  0.26213  0.12538  Biso   1.000  C
  C83      1.0000 0.52893  0.99449  0.18849  Biso   1.000  C
  C84      1.0000 0.52893  0.99455  0.18849  Biso   1.000  C
  C85      1.0000 0.63194  0.11004  0.24402  Biso   1.000  C
  H84      1.0000 0.63285  0.82072  0.67283  Biso   1.000  H
  H85      1.0000 0.66244  0.85101  0.60032  Biso   1.000  H
  H86      1.0000 0.63276  0.82072  0.67283  Biso   1.000  H
  H87      1.0000 0.66234  0.85101  0.60032  Biso   1.000  H
  C86      1.0000 0.11223  0.93520  0.27963  Biso   1.000  C
  C87      1.0000 0.09869  0.03591  0.37162  Biso   1.000  C
  C88      1.0000 0.95862  0.20042  0.21583  Biso   1.000  C
  C89      1.0000 0.02739  0.15950  0.34189  Biso   1.000  C
  C90      1.0000 0.02730  0.15950  0.34189  Biso   1.000  C
  H88      1.0000 0.56918  0.28708  0.22289  Biso   1.000  H
  C91      1.0000 0.64461  0.18670  0.25309  Biso   1.000  C
  H89      1.0000 0.56909  0.28708  0.22289  Biso   1.000  H
  H90      1.0000 0.56918  0.28714  0.22289  Biso   1.000  H
  H91      1.0000 0.56909  0.28714  0.22289  Biso   1.000  H
  C92      1.0000 0.23179  0.24560  0.11164  Biso   1.000  C
  H92      1.0000 0.38252  0.30978  0.14911  Biso   1.000  H
  C93      1.0000 0.23168  0.24560  0.11158  Biso   1.000  C
  H93      1.0000 0.40161  0.26825  0.08011  Biso   1.000  H
  H94      1.0000 0.38252  0.30984  0.14911  Biso   1.000  H
  C94      1.0000 0.40213  0.95509  0.18069  Biso   1.000  C
  H95      1.0000 0.56837  0.98258  0.14741  Biso   1.000  H
  H96      1.0000 0.58017  0.97280  0.22873  Biso   1.000  H
  H97      1.0000 0.56828  0.98258  0.14741  Biso   1.000  H
  H98      1.0000 0.58008  0.97280  0.22873  Biso   1.000  H
  H99      1.0000 0.56837  0.98263  0.14741  Biso   1.000  H
  H100     1.0000 0.56828  0.98263  0.14741  Biso   1.000  H
  H101     1.0000 0.69221  0.07711  0.27013  Biso   1.000  H
  H102     1.0000 0.14504  0.90822  0.32172  Biso   1.000  H
  H103     1.0000 0.03459  0.91143  0.26074  Biso   1.000  H
  C95      1.0000 0.20388  0.92559  0.22613  Biso   1.000  C
  H104     1.0000 0.03450  0.91143  0.26074  Biso   1.000  H
  C96      1.0000 0.20388  0.92564  0.22613  Biso   1.000  C
  H105     1.0000 0.13052  0.99989  0.40713  Biso   1.000  H
  H106     1.0000 0.13043  0.99989  0.40713  Biso   1.000  H
  H107     1.0000 0.13052  0.99994  0.40713  Biso   1.000  H
  H108     1.0000 0.13043  0.99994  0.40713  Biso   1.000  H
  C97      1.0000 0.07130  0.10763  0.39232  Biso   1.000  C
  H109     1.0000 0.87573  0.18541  0.19524  Biso   1.000  H
  H110     1.0000 0.87572  0.18541  0.19518  Biso   1.000  H
  H111     1.0000 0.95007  0.24678  0.24041  Biso   1.000  H
  H112     1.0000 0.95007  0.24684  0.24041  Biso   1.000  H
  C98      1.0000 0.03465  0.21582  0.15622  Biso   1.000  C
  H113     1.0000 0.00921  0.20952  0.35644  Biso   1.000  H
  H114     1.0000 0.00910  0.20952  0.35638  Biso   1.000  H
  H115     1.0000 0.71283  0.20671  0.28563  Biso   1.000  H
  C99      1.0000 0.16292  0.23408  0.16753  Biso   1.000  C
  C100     1.0000 0.16292  0.23414  0.16753  Biso   1.000  C
  C101     1.0000 0.16913  0.24465  0.04332  Biso   1.000  C
  C102     1.0000 0.32295  0.95948  0.23361  Biso   1.000  C
  C103     1.0000 0.36290  0.90991  0.12151  Biso   1.000  C
  C104     1.0000 0.32295  0.95953  0.23361  Biso   1.000  C
  C105     1.0000 0.16946  0.88271  0.16594  Biso   1.000  C
  C106     1.0000 0.16945  0.88271  0.16588  Biso   1.000  C
  C107     1.0000 0.16936  0.88271  0.16588  Biso   1.000  C
  H116     1.0000 0.08300  0.12100  0.44163  Biso   1.000  H
  H117     1.0000 0.08291  0.12100  0.44163  Biso   1.000  H
  C108     1.0000 0.97672  0.21424  0.08653  Biso   1.000  C
  O26      1.0000 0.22561  0.23689  0.23674  Biso   1.000  O
  H118     1.0000 0.21461  0.25493  0.00410  Biso   1.000  H
  C109     1.0000 0.04298  0.22891  0.03069  Biso   1.000  C
  O27      1.0000 0.36962  0.99904  0.29428  Biso   1.000  O
  O28      1.0000 0.36962  0.99910  0.29428  Biso   1.000  O
  H119     1.0000 0.41653  0.90401  0.08520  Biso   1.000  H
  C110     1.0000 0.24766  0.87371  0.11482  Biso   1.000  C
  H120     1.0000 0.08853  0.85860  0.15973  Biso   1.000  H
  H121     1.0000 0.88857  0.20261  0.07703  Biso   1.000  H
  C111     1.0000 0.21517  0.30658  0.27284  Biso   1.000  C
  C112     1.0000 0.21515  0.30658  0.27278  Biso   1.000  C
  C113     1.0000 0.21517  0.30664  0.27284  Biso   1.000  C
  C114     1.0000 0.21515  0.30664  0.27278  Biso   1.000  C
  H122     1.0000 0.00081  0.22835  0.98292  Biso   1.000  H
  C115     1.0000 0.39545  0.95279  0.35649  Biso   1.000  C
  C116     1.0000 0.39545  0.95285  0.35649  Biso   1.000  C
  H123     1.0000 0.22247  0.84224  0.07453  Biso   1.000  H
  H124     1.0000 0.13305  0.31052  0.28759  Biso   1.000  H
  H125     1.0000 0.22501  0.34750  0.24099  Biso   1.000  H
  C117     1.0000 0.31328  0.31158  0.33579  Biso   1.000  C
  C118     1.0000 0.31319  0.31158  0.33579  Biso   1.000  C
  H126     1.0000 0.22501  0.34755  0.24099  Biso   1.000  H
  C119     1.0000 0.31328  0.31164  0.33579  Biso   1.000  C
  C120     1.0000 0.31319  0.31164  0.33579  Biso   1.000  C
  H127     1.0000 0.40604  0.90170  0.34221  Biso   1.000  H
  H128     1.0000 0.32480  0.95459  0.38271  Biso   1.000  H
  C121     1.0000 0.51011  0.97729  0.40309  Biso   1.000  C
  H129     1.0000 0.32471  0.95459  0.38271  Biso   1.000  H
  H130     1.0000 0.32480  0.95465  0.38271  Biso   1.000  H
  H131     1.0000 0.32471  0.95465  0.38271  Biso   1.000  H
  O29      1.0000 0.30746  0.25645  0.38728  Biso   1.000  O
  H132     1.0000 0.39455  0.30911  0.31981  Biso   1.000  H
  H133     1.0000 0.30649  0.35992  0.35750  Biso   1.000  H
  O30      1.0000 0.61986  0.95931  0.37268  Biso   1.000  O
  H134     1.0000 0.51325  0.95307  0.44853  Biso   1.000  H
  H135     1.0000 0.51325  0.95313  0.44853  Biso   1.000  H
  H136     1.0000 0.50680  0.03057  0.41052  Biso   1.000  H
  H137     1.0000 0.50671  0.03057  0.41052  Biso   1.000  H
  H138     1.0000 0.50680  0.03063  0.41052  Biso   1.000  H
  H139     1.0000 0.50671  0.03063  0.41052  Biso   1.000  H
  C122     1.0000 0.37534  0.19002  0.37714  Biso   1.000  C
  C123     1.0000 0.37533  0.19002  0.37708  Biso   1.000  C
  C124     1.0000 0.73180  0.95583  0.42284  Biso   1.000  C
  C125     1.0000 0.73169  0.95583  0.42279  Biso   1.000  C
  H140     1.0000 0.33773  0.14899  0.39970  Biso   1.000  H
  C126     1.0000 0.51283  0.19350  0.40553  Biso   1.000  C
  H141     1.0000 0.36732  0.17934  0.32719  Biso   1.000  H
  H142     1.0000 0.33773  0.14905  0.39970  Biso   1.000  H
  H143     1.0000 0.71133  0.93402  0.46599  Biso   1.000  H
  H144     1.0000 0.79129  0.92334  0.40442  Biso   1.000  H
  H145     1.0000 0.79120  0.92334  0.40442  Biso   1.000  H
  C127     1.0000 0.79202  0.03091  0.43913  Biso   1.000  C
  H146     1.0000 0.55754  0.15461  0.38420  Biso   1.000  H
  H147     1.0000 0.54682  0.24111  0.39391  Biso   1.000  H
  O31      1.0000 0.52813  0.18400  0.48022  Biso   1.000  O
  O32      1.0000 0.71835  0.07441  0.48085  Biso   1.000  O
  H148     1.0000 0.87505  0.02411  0.46429  Biso   1.000  H
  H149     1.0000 0.79979  0.05693  0.39561  Biso   1.000  H
  C128     1.0000 0.65270  0.19682  0.51371  Biso   1.000  C
  C129     1.0000 0.75211  0.15163  0.48383  Biso   1.000  C
  H150     1.0000 0.65625  0.18541  0.56329  Biso   1.000  H
  H151     1.0000 0.67195  0.24926  0.50973  Biso   1.000  H
  H152     1.0000 0.83156  0.15781  0.51323  Biso   1.000  H
  H153     1.0000 0.76098  0.16934  0.43701  Biso   1.000  H
  C130     1.0000 0.65269  0.30321  0.01370  Biso   1.000  C
  O33      1.0000 0.52820  0.31602  0.98021  Biso   1.000  O
  C131     1.0000 0.75219  0.34840  0.98382  Biso   1.000  C
  H154     1.0000 0.65624  0.31462  0.06333  Biso   1.000  H
  H155     1.0000 0.67193  0.25083  0.00972  Biso   1.000  H
  C132     1.0000 0.51291  0.30653  0.90553  Biso   1.000  C
  O34      1.0000 0.71834  0.42562  0.98085  Biso   1.000  O
  H156     1.0000 0.76106  0.33069  0.93701  Biso   1.000  H
  H157     1.0000 0.83145  0.34221  0.01323  Biso   1.000  H
  C133     1.0000 0.37541  0.31001  0.87713  Biso   1.000  C
  H158     1.0000 0.54690  0.25892  0.89391  Biso   1.000  H
  H159     1.0000 0.55752  0.34542  0.88419  Biso   1.000  H
  C134     1.0000 0.79210  0.46912  0.93913  Biso   1.000  C
  O35      1.0000 0.30745  0.24358  0.88727  Biso   1.000  O
  H160     1.0000 0.36739  0.32069  0.82718  Biso   1.000  H
  H161     1.0000 0.33781  0.35098  0.89969  Biso   1.000  H
  C135     1.0000 0.73177  0.54420  0.92278  Biso   1.000  C
  H162     1.0000 0.87503  0.47592  0.96429  Biso   1.000  H
  H163     1.0000 0.79986  0.44310  0.89560  Biso   1.000  H
  C136     1.0000 0.31326  0.18839  0.83578  Biso   1.000  C
  O36      1.0000 0.61984  0.54072  0.87267  Biso   1.000  O
  H164     1.0000 0.79127  0.57669  0.90442  Biso   1.000  H
  H165     1.0000 0.71141  0.56601  0.96599  Biso   1.000  H
  C137     1.0000 0.21514  0.19339  0.77278  Biso   1.000  C
  H166     1.0000 0.39453  0.19092  0.81981  Biso   1.000  H
  H167     1.0000 0.30656  0.14011  0.85749  Biso   1.000  H
  C138     1.0000 0.51019  0.52273  0.90309  Biso   1.000  C
  O37      1.0000 0.22568  0.26314  0.73674  Biso   1.000  O
  H168     1.0000 0.13303  0.18951  0.78759  Biso   1.000  H
  H169     1.0000 0.22508  0.15248  0.74098  Biso   1.000  H
  C139     1.0000 0.39544  0.54724  0.85648  Biso   1.000  C
  H170     1.0000 0.50679  0.46940  0.91052  Biso   1.000  H
  H171     1.0000 0.51323  0.54690  0.94852  Biso   1.000  H
  C140     1.0000 0.16300  0.26589  0.66752  Biso   1.000  C
  O38      1.0000 0.36970  0.50093  0.79428  Biso   1.000  O
  H172     1.0000 0.40611  0.59833  0.84221  Biso   1.000  H
  H173     1.0000 0.32478  0.54544  0.88271  Biso   1.000  H
  C141     1.0000 0.23177  0.25443  0.61163  Biso   1.000  C
  C142     1.0000 0.03463  0.28421  0.65622  Biso   1.000  C
  C143     1.0000 0.32293  0.54049  0.73361  Biso   1.000  C
  C144     1.0000 0.37247  0.23790  0.62538  Biso   1.000  C
  C145     1.0000 0.16911  0.25538  0.54332  Biso   1.000  C
  C146     1.0000 0.97679  0.28579  0.58652  Biso   1.000  C
  C147     1.0000 0.95870  0.29961  0.71582  Biso   1.000  C
  C148     1.0000 0.40211  0.54493  0.68069  Biso   1.000  C
  C149     1.0000 0.20396  0.57444  0.72612  Biso   1.000  C
  C150     1.0000 0.46046  0.29298  0.66779  Biso   1.000  C
  H174     1.0000 0.38259  0.19019  0.64910  Biso   1.000  H
  H175     1.0000 0.40159  0.23183  0.58010  Biso   1.000  H
  C151     1.0000 0.04305  0.27112  0.53068  Biso   1.000  C
  H176     1.0000 0.21469  0.24510  0.50409  Biso   1.000  H
  H177     1.0000 0.21459  0.24510  0.50409  Biso   1.000  H
  H178     1.0000 0.88864  0.29742  0.57702  Biso   1.000  H
  C152     1.0000 0.00849  0.35851  0.77023  Biso   1.000  C
  H179     1.0000 0.87580  0.31462  0.69523  Biso   1.000  H
  H180     1.0000 0.95015  0.25319  0.74040  Biso   1.000  H
  C153     1.0000 0.52900  0.50554  0.68849  Biso   1.000  C
  C154     1.0000 0.52891  0.50554  0.68849  Biso   1.000  C
  C155     1.0000 0.36297  0.59012  0.62150  Biso   1.000  C
  C156     1.0000 0.16945  0.61732  0.66593  Biso   1.000  C
  C157     1.0000 0.11231  0.56483  0.77963  Biso   1.000  C
  C158     1.0000 0.44971  0.37093  0.65972  Biso   1.000  C
  C159     1.0000 0.55998  0.26612  0.71593  Biso   1.000  C
  H181     1.0000 0.00070  0.27168  0.48291  Biso   1.000  H
  C160     1.0000 0.03377  0.43219  0.75128  Biso   1.000  C
  C161     1.0000 0.02737  0.34053  0.84189  Biso   1.000  C
  C162     1.0000 0.53340  0.42073  0.69772  Biso   1.000  C
  H182     1.0000 0.56835  0.51739  0.64741  Biso   1.000  H
  H183     1.0000 0.58015  0.52723  0.72872  Biso   1.000  H
  H184     1.0000 0.41652  0.59602  0.58520  Biso   1.000  H
  C163     1.0000 0.24774  0.62631  0.61482  Biso   1.000  C
  H185     1.0000 0.08860  0.64143  0.65972  Biso   1.000  H
  C164     1.0000 0.08195  0.48558  0.80123  Biso   1.000  C
  H186     1.0000 0.14512  0.59181  0.82172  Biso   1.000  H
  H187     1.0000 0.03457  0.58860  0.76073  Biso   1.000  H
  O39      1.0000 0.34564  0.39988  0.61689  Biso   1.000  O
  H188     1.0000 0.56917  0.21289  0.72288  Biso   1.000  H
  C165     1.0000 0.64469  0.31333  0.75309  Biso   1.000  C
  O40      1.0000 0.01428  0.45175  0.68026  Biso   1.000  O
  C166     1.0000 0.07137  0.39240  0.89231  Biso   1.000  C
  H189     1.0000 0.00919  0.29051  0.85643  Biso   1.000  H
  C167     1.0000 0.63192  0.38998  0.74401  Biso   1.000  C
  H190     1.0000 0.22254  0.65779  0.57453  Biso   1.000  H
  C168     1.0000 0.09876  0.46412  0.87161  Biso   1.000  C
  C169     1.0000 0.35725  0.41410  0.54459  Biso   1.000  C
  H191     1.0000 0.71290  0.29332  0.78562  Biso   1.000  H
  C170     1.0000 0.89196  0.48041  0.65643  Biso   1.000  C
  H192     1.0000 0.08298  0.37903  0.94162  Biso   1.000  H
  H193     1.0000 0.69229  0.42292  0.77012  Biso   1.000  H
  H194     1.0000 0.13050  0.50008  0.90712  Biso   1.000  H
  C171     1.0000 0.22976  0.44461  0.51503  Biso   1.000  C
  H195     1.0000 0.37577  0.36880  0.52071  Biso   1.000  H
  H196     1.0000 0.42237  0.45029  0.54029  Biso   1.000  H
  H197     1.0000 0.82895  0.44343  0.66222  Biso   1.000  H
  H198     1.0000 0.87557  0.52442  0.68302  Biso   1.000  H
  C172     1.0000 0.88969  0.49930  0.58111  Biso   1.000  C
  O41      1.0000 0.23190  0.47075  0.44581  Biso   1.000  O
  H199     1.0000 0.16755  0.40583  0.51503  Biso   1.000  H
  H200     1.0000 0.20731  0.48502  0.54449  Biso   1.000  H
  O42      1.0000 0.76814  0.52931  0.55420  Biso   1.000  O
  H201     1.0000 0.90614  0.45524  0.55478  Biso   1.000  H
  H202     1.0000 0.95388  0.53572  0.57559  Biso   1.000  H
  C173     1.0000 0.11044  0.50070  0.41890  Biso   1.000  C
  C174     1.0000 0.77038  0.55539  0.48498  Biso   1.000  C
  H203     1.0000 0.04626  0.46428  0.42442  Biso   1.000  H
  C175     1.0000 0.10817  0.51959  0.34358  Biso   1.000  C
  H204     1.0000 0.09399  0.54482  0.44523  Biso   1.000  H
  C176     1.0000 0.10808  0.51959  0.34358  Biso   1.000  C
  H205     1.0000 0.09389  0.54482  0.44523  Biso   1.000  H
  C177     1.0000 0.64288  0.58590  0.45542  Biso   1.000  C
  H206     1.0000 0.79273  0.51503  0.45552  Biso   1.000  H
  H207     1.0000 0.83249  0.59422  0.48498  Biso   1.000  H
  H208     1.0000 0.17108  0.55662  0.33780  Biso   1.000  H
  O43      1.0000 0.98585  0.54825  0.31975  Biso   1.000  O
  H209     1.0000 0.12456  0.47564  0.31699  Biso   1.000  H
  H210     1.0000 0.12447  0.47564  0.31699  Biso   1.000  H
  O44      1.0000 0.65449  0.60012  0.38313  Biso   1.000  O
  O45      1.0000 0.65440  0.60012  0.38313  Biso   1.000  O
  H211     1.0000 0.62436  0.63120  0.47930  Biso   1.000  H
  H212     1.0000 0.57776  0.54971  0.45972  Biso   1.000  H
  C178     1.0000 0.96635  0.56781  0.24868  Biso   1.000  C
  C179     1.0000 0.55033  0.62912  0.34029  Biso   1.000  C
  C180     1.0000 0.91809  0.51442  0.19878  Biso   1.000  C
  C181     1.0000 0.99164  0.64149  0.22978  Biso   1.000  C
  C182     1.0000 0.46673  0.57933  0.30229  Biso   1.000  C
  C183     1.0000 0.53967  0.70702  0.33222  Biso   1.000  C
  C184     1.0000 0.90127  0.53588  0.12840  Biso   1.000  C
  C185     1.0000 0.88782  0.43523  0.22038  Biso   1.000  C
  C186     1.0000 0.04143  0.70039  0.28419  Biso   1.000  C
  C187     1.0000 0.97267  0.65953  0.15812  Biso   1.000  C
  C188     1.0000 0.47113  0.49452  0.31152  Biso   1.000  C
  C189     1.0000 0.36812  0.61002  0.25600  Biso   1.000  C
  C190     1.0000 0.62765  0.76210  0.37458  Biso   1.000  C
  C191     1.0000 0.44016  0.73394  0.28408  Biso   1.000  C
  H213     1.0000 0.86963  0.49992  0.09289  Biso   1.000  H
  C192     1.0000 0.92866  0.60760  0.10770  Biso   1.000  C
  C193     1.0000 0.79608  0.42562  0.27389  Biso   1.000  C
  H214     1.0000 0.85502  0.40819  0.17829  Biso   1.000  H
  H215     1.0000 0.96556  0.41140  0.23928  Biso   1.000  H
  H216     1.0000 0.96547  0.41140  0.23928  Biso   1.000  H
  H217     1.0000 0.12433  0.68544  0.30478  Biso   1.000  H
  H218     1.0000 0.04989  0.74681  0.25961  Biso   1.000  H
  C194     1.0000 0.96540  0.71584  0.34379  Biso   1.000  C
  H219     1.0000 0.99094  0.70949  0.14358  Biso   1.000  H
  C195     1.0000 0.59793  0.45512  0.31932  Biso   1.000  C
  H220     1.0000 0.43178  0.48261  0.35260  Biso   1.000  H
  H221     1.0000 0.41989  0.47283  0.27129  Biso   1.000  H
  H222     1.0000 0.43169  0.48261  0.35260  Biso   1.000  H
  C196     1.0000 0.35545  0.68673  0.24692  Biso   1.000  C
  H223     1.0000 0.30785  0.57714  0.22989  Biso   1.000  H
  C197     1.0000 0.76836  0.74563  0.38838  Biso   1.000  C
  H224     1.0000 0.59844  0.76822  0.41991  Biso   1.000  H
  H225     1.0000 0.61754  0.80981  0.35091  Biso   1.000  H
  H226     1.0000 0.43097  0.78711  0.27713  Biso   1.000  H
  H227     1.0000 0.91715  0.62103  0.05839  Biso   1.000  H
  H228     1.0000 0.91705  0.62103  0.05839  Biso   1.000  H
  C198     1.0000 0.67711  0.45951  0.26640  Biso   1.000  C
  C199     1.0000 0.83059  0.38273  0.33408  Biso   1.000  C
  C200     1.0000 0.02334  0.71421  0.41349  Biso   1.000  C
  C201     1.0000 0.83713  0.73411  0.33249  Biso   1.000  C
  C202     1.0000 0.63716  0.40994  0.37851  Biso   1.000  C
  H229     1.0000 0.28723  0.70674  0.21439  Biso   1.000  H
  C203     1.0000 0.83093  0.74462  0.45669  Biso   1.000  C
  O46      1.0000 0.63043  0.49907  0.20573  Biso   1.000  O
  C204     1.0000 0.75230  0.37369  0.38520  Biso   1.000  C
  H230     1.0000 0.91153  0.35862  0.34029  Biso   1.000  H
  H231     1.0000 0.11140  0.70264  0.42299  Biso   1.000  H
  C205     1.0000 0.95708  0.72894  0.46933  Biso   1.000  C
  O47      1.0000 0.77445  0.73686  0.26327  Biso   1.000  O
  H232     1.0000 0.58352  0.40404  0.41481  Biso   1.000  H
  H233     1.0000 0.78545  0.75490  0.49592  Biso   1.000  H
  C206     1.0000 0.60460  0.45282  0.14353  Biso   1.000  C
  H234     1.0000 0.77750  0.34221  0.42548  Biso   1.000  H
  H235     1.0000 0.99934  0.72832  0.51710  Biso   1.000  H
  C207     1.0000 0.78489  0.80661  0.22718  Biso   1.000  C
  C208     1.0000 0.48994  0.47732  0.09692  Biso   1.000  C
  H236     1.0000 0.59402  0.40173  0.15780  Biso   1.000  H
  H237     1.0000 0.67535  0.45462  0.11730  Biso   1.000  H
  H238     1.0000 0.86700  0.81054  0.21242  Biso   1.000  H
  H239     1.0000 0.77505  0.84752  0.25903  Biso   1.000  H
  C209     1.0000 0.68678  0.81161  0.16423  Biso   1.000  C
  O48      1.0000 0.38020  0.45934  0.12734  Biso   1.000  O
  H240     1.0000 0.49335  0.53060  0.08949  Biso   1.000  H
  H241     1.0000 0.48681  0.45310  0.05149  Biso   1.000  H
  O49      1.0000 0.69259  0.75642  0.11274  Biso   1.000  O
  H242     1.0000 0.60551  0.80914  0.18020  Biso   1.000  H
  H243     1.0000 0.69348  0.85994  0.14252  Biso   1.000  H
  C210     1.0000 0.26826  0.45580  0.07718  Biso   1.000  C
  C211     1.0000 0.62472  0.68999  0.12288  Biso   1.000  C
  C212     1.0000 0.20804  0.53094  0.06088  Biso   1.000  C
  H244     1.0000 0.20886  0.42331  0.09560  Biso   1.000  H
  H245     1.0000 0.28872  0.43399  0.03402  Biso   1.000  H
  H246     1.0000 0.20876  0.42331  0.09560  Biso   1.000  H
  H247     1.0000 0.63274  0.67931  0.17283  Biso   1.000  H
  H248     1.0000 0.66232  0.64902  0.10032  Biso   1.000  H
  C213     1.0000 0.48723  0.69353  0.09448  Biso   1.000  C
  O50      1.0000 0.28170  0.57444  0.01916  Biso   1.000  O
  H249     1.0000 0.12501  0.52414  0.03572  Biso   1.000  H
  H250     1.0000 0.20017  0.55690  0.10441  Biso   1.000  H
  O51      1.0000 0.47193  0.68398  0.01980  Biso   1.000  O
  H251     1.0000 0.44252  0.65464  0.11582  Biso   1.000  H
  H252     1.0000 0.45323  0.74113  0.10611  Biso   1.000  H
  C214     1.0000 0.24794  0.65160  0.01619  Biso   1.000  C
  C215     1.0000 0.34745  0.69679  0.98631  Biso   1.000  C
  C216     1.0000 0.34735  0.69679  0.98631  Biso   1.000  C
  H253     1.0000 0.16859  0.65779  0.98678  Biso   1.000  H
  H254     1.0000 0.23898  0.66931  0.06300  Biso   1.000  H
  H255     1.0000 0.34389  0.68544  0.93668  Biso   1.000  H
  H256     1.0000 0.32820  0.74923  0.99029  Biso   1.000  H
  Ne1      1.0000 0.99538  0.50274  0.49370  Biso   1.000  Ne
  He1      1.0000 0.14603  0.69749  0.51107  Biso   1.000  He
  He2      1.0000 0.92164  0.46142  0.46871  Biso   1.000  He
  Ar1      1.0000 0.99163  0.50306  0.49615  Biso   1.000  Ar
  Ne2      1.0000 0.99171  0.01633  0.00882  Biso   1.000  Ne
  He3      1.0000 0.95866  0.17576  0.91639  Biso   1.000  He
  Ar2      1.0000 0.00341  0.02675  0.00138  Biso   1.000  Ar
