data_image0
_cell_length_a       13.677
_cell_length_b       17.347
_cell_length_c       34.994
_cell_angle_alpha    90
_cell_angle_beta     106.81
_cell_angle_gamma    90

_symmetry_space_group_name_H-M    "P 1"
_symmetry_int_tables_number       1

loop_
  _symmetry_equiv_pos_as_xyz
  'x, y, z'

loop_
  _atom_site_label
  _atom_site_occupancy
  _atom_site_fract_x
  _atom_site_fract_y
  _atom_site_fract_z
  _atom_site_thermal_displace_type
  _atom_site_B_iso_or_equiv
  _atom_site_type_symbol
  C1       1.0000 0.66438  0.40099  0.58572  Biso   1.000  C
  O1       1.0000 0.73858  0.34640  0.58611  Biso   1.000  O
  C2       1.0000 0.61029  0.37540  0.61549  Biso   1.000  C
  H1       1.0000 0.61639  0.40468  0.55931  Biso   1.000  H
  H2       1.0000 0.69557  0.45120  0.59310  Biso   1.000  H
  C3       1.0000 0.79541  0.36208  0.56035  Biso   1.000  C
  C4       1.0000 0.53337  0.32034  0.60393  Biso   1.000  C
  C5       1.0000 0.64248  0.40151  0.65367  Biso   1.000  C
  C6       1.0000 0.86747  0.29809  0.56178  Biso   1.000  C
  H3       1.0000 0.83282  0.40993  0.56802  Biso   1.000  H
  H4       1.0000 0.75054  0.36802  0.53339  Biso   1.000  H
  C7       1.0000 0.48812  0.29411  0.63092  Biso   1.000  C
  H5       1.0000 0.51345  0.30178  0.57790  Biso   1.000  H
  H6       1.0000 0.69553  0.43702  0.66152  Biso   1.000  H
  C8       1.0000 0.59570  0.37465  0.67997  Biso   1.000  C
  C9       1.0000 0.92065  0.24298  0.56310  Biso   1.000  C
  O2       1.0000 0.41612  0.23618  0.61799  Biso   1.000  O
  C10      1.0000 0.51740  0.32069  0.67030  Biso   1.000  C
  O3       1.0000 0.62501  0.39263  0.72125  Biso   1.000  O
  C11      1.0000 0.97175  0.17819  0.56349  Biso   1.000  C
  C12      1.0000 0.36181  0.20799  0.64420  Biso   1.000  C
  H7       1.0000 0.48621  0.30322  0.68901  Biso   1.000  H
  C13      1.0000 0.68018  0.46262  0.73534  Biso   1.000  C
  C14      1.0000 0.01326  0.11939  0.56346  Biso   1.000  C
  C15      1.0000 0.31463  0.13478  0.63014  Biso   1.000  C
  H8       1.0000 0.30969  0.24488  0.64570  Biso   1.000  H
  H9       1.0000 0.40840  0.20182  0.67080  Biso   1.000  H
  H10      1.0000 0.63813  0.49720  0.74561  Biso   1.000  H
  H11      1.0000 0.69737  0.48821  0.71352  Biso   1.000  H
  C16      1.0000 0.77243  0.44423  0.76654  Biso   1.000  C
  C17      1.0000 0.07090  0.04669  0.56566  Biso   1.000  C
  O4       1.0000 0.38905  0.07679  0.63764  Biso   1.000  O
  H12      1.0000 0.26376  0.12267  0.64361  Biso   1.000  H
  H13      1.0000 0.28064  0.13778  0.60170  Biso   1.000  H
  O5       1.0000 0.84079  0.40042  0.75576  Biso   1.000  O
  H14      1.0000 0.80542  0.49207  0.77752  Biso   1.000  H
  H15      1.0000 0.75330  0.41782  0.78782  Biso   1.000  H
  O6       1.0000 0.09716  0.01153  0.60313  Biso   1.000  O
  H16      1.0000 0.03010  0.01090  0.54620  Biso   1.000  H
  H17      1.0000 0.13279  0.05713  0.55841  Biso   1.000  H
  C18      1.0000 0.35862  0.00357  0.62597  Biso   1.000  C
  C19      1.0000 0.92339  0.42030  0.75445  Biso   1.000  C
  C20      1.0000 0.02177  0.96991  0.61241  Biso   1.000  C
  C21      1.0000 0.43080  0.94529  0.64594  Biso   1.000  C
  H18      1.0000 0.34779  0.99919  0.59740  Biso   1.000  H
  H19      1.0000 0.29370  0.99389  0.63110  Biso   1.000  H
  H20      1.0000 0.94770  0.45287  0.77782  Biso   1.000  H
  H21      1.0000 0.90847  0.45529  0.73191  Biso   1.000  H
  C22      1.0000 0.00993  0.38301  0.75224  Biso   1.000  C
  C23      1.0000 0.96403  0.00565  0.63862  Biso   1.000  C
  H22      1.0000 0.97227  0.95538  0.58752  Biso   1.000  H
  H23      1.0000 0.05252  0.92258  0.62522  Biso   1.000  H
  O7       1.0000 0.52372  0.95527  0.63773  Biso   1.000  O
  H24      1.0000 0.44119  0.94852  0.67450  Biso   1.000  H
  H25      1.0000 0.40357  0.89462  0.63710  Biso   1.000  H
  O8       1.0000 0.99086  0.31550  0.72913  Biso   1.000  O
  H26      1.0000 0.05080  0.36992  0.77911  Biso   1.000  H
  H27      1.0000 0.04974  0.41800  0.74101  Biso   1.000  H
  C24      1.0000 0.87761  0.96876  0.64209  Biso   1.000  C
  C25      1.0000 0.00267  0.07027  0.66071  Biso   1.000  C
  C26      1.0000 0.59101  0.89468  0.65406  Biso   1.000  C
  C27      1.0000 0.07749  0.27302  0.73119  Biso   1.000  C
  H28      1.0000 0.85140  0.92581  0.62662  Biso   1.000  H
  C28      1.0000 0.83190  0.99700  0.66874  Biso   1.000  C
  C29      1.0000 0.95600  0.09569  0.68815  Biso   1.000  C
  H29      1.0000 0.05900  0.09598  0.65710  Biso   1.000  H
  C30      1.0000 0.68935  0.90805  0.64635  Biso   1.000  C
  H30      1.0000 0.56228  0.84620  0.64211  Biso   1.000  H
  H31      1.0000 0.60074  0.89168  0.68262  Biso   1.000  H
  C31      1.0000 0.05917  0.20972  0.70397  Biso   1.000  C
  H32      1.0000 0.10509  0.25342  0.75812  Biso   1.000  H
  H33      1.0000 0.12842  0.30651  0.72561  Biso   1.000  H
  C32      1.0000 0.87079  0.05782  0.69304  Biso   1.000  C
  O9       1.0000 0.74370  0.96783  0.67465  Biso   1.000  O
  O10      1.0000 0.98779  0.15916  0.71283  Biso   1.000  O
  H34      1.0000 0.67891  0.92529  0.61910  Biso   1.000  H
  H35      1.0000 0.72907  0.86090  0.65032  Biso   1.000  H
  H36      1.0000 0.03286  0.22840  0.67680  Biso   1.000  H
  H37      1.0000 0.12261  0.18251  0.70630  Biso   1.000  H
  H38      1.0000 0.84103  0.07362  0.71251  Biso   1.000  H
  C33      1.0000 0.33572  0.59901  0.41429  Biso   1.000  C
  C34      1.0000 0.38988  0.62460  0.38452  Biso   1.000  C
  O11      1.0000 0.26159  0.65360  0.41390  Biso   1.000  O
  H39      1.0000 0.38378  0.59532  0.44070  Biso   1.000  H
  H40      1.0000 0.30453  0.54880  0.40691  Biso   1.000  H
  C35      1.0000 0.35769  0.59849  0.34634  Biso   1.000  C
  C36      1.0000 0.46672  0.67966  0.39608  Biso   1.000  C
  C37      1.0000 0.20476  0.63792  0.43966  Biso   1.000  C
  C38      1.0000 0.40447  0.62535  0.32004  Biso   1.000  C
  H41      1.0000 0.30464  0.56298  0.33849  Biso   1.000  H
  C39      1.0000 0.51207  0.70589  0.36912  Biso   1.000  C
  H42      1.0000 0.48664  0.69822  0.42211  Biso   1.000  H
  C40      1.0000 0.13263  0.70191  0.43823  Biso   1.000  C
  H43      1.0000 0.16737  0.59007  0.43202  Biso   1.000  H
  H44      1.0000 0.24956  0.63198  0.46662  Biso   1.000  H
  O12      1.0000 0.37516  0.60737  0.27876  Biso   1.000  O
  C41      1.0000 0.48279  0.67931  0.32974  Biso   1.000  C
  O13      1.0000 0.58405  0.76382  0.38202  Biso   1.000  O
  C42      1.0000 0.07945  0.75702  0.43691  Biso   1.000  C
  C43      1.0000 0.31992  0.53738  0.26467  Biso   1.000  C
  H45      1.0000 0.51396  0.69678  0.31100  Biso   1.000  H
  C44      1.0000 0.63836  0.79201  0.35581  Biso   1.000  C
  C45      1.0000 0.02835  0.82181  0.43652  Biso   1.000  C
  H46      1.0000 0.36204  0.50280  0.25440  Biso   1.000  H
  H47      1.0000 0.30274  0.51179  0.28652  Biso   1.000  H
  C46      1.0000 0.22774  0.55577  0.23347  Biso   1.000  C
  C47      1.0000 0.68556  0.86522  0.36990  Biso   1.000  C
  H48      1.0000 0.69048  0.75512  0.35431  Biso   1.000  H
  H49      1.0000 0.59177  0.79818  0.32921  Biso   1.000  H
  C48      1.0000 0.98684  0.88061  0.43655  Biso   1.000  C
  O14      1.0000 0.15933  0.59958  0.24428  Biso   1.000  O
  H50      1.0000 0.19477  0.50793  0.22252  Biso   1.000  H
  H51      1.0000 0.24681  0.58218  0.21222  Biso   1.000  H
  O15      1.0000 0.61112  0.92321  0.36237  Biso   1.000  O
  H52      1.0000 0.73634  0.87733  0.35640  Biso   1.000  H
  H53      1.0000 0.71946  0.86222  0.39831  Biso   1.000  H
  C49      1.0000 0.92927  0.95331  0.43435  Biso   1.000  C
  C50      1.0000 0.07671  0.57970  0.24556  Biso   1.000  C
  C51      1.0000 0.64155  0.99643  0.37404  Biso   1.000  C
  O16      1.0000 0.90294  0.98847  0.39688  Biso   1.000  O
  H54      1.0000 0.97007  0.98910  0.45381  Biso   1.000  H
  H55      1.0000 0.86737  0.94287  0.44160  Biso   1.000  H
  H56      1.0000 0.05242  0.54713  0.22222  Biso   1.000  H
  H57      1.0000 0.09163  0.54471  0.26810  Biso   1.000  H
  C52      1.0000 0.99024  0.61699  0.24777  Biso   1.000  C
  C53      1.0000 0.56937  0.05471  0.35407  Biso   1.000  C
  H58      1.0000 0.65238  0.00081  0.40261  Biso   1.000  H
  H59      1.0000 0.70647  0.00611  0.36891  Biso   1.000  H
  C54      1.0000 0.97833  0.03009  0.38760  Biso   1.000  C
  O17      1.0000 0.00924  0.68450  0.27088  Biso   1.000  O
  H60      1.0000 0.94930  0.63008  0.22090  Biso   1.000  H
  H61      1.0000 0.95043  0.58200  0.25900  Biso   1.000  H
  O18      1.0000 0.47638  0.04473  0.36228  Biso   1.000  O
  H62      1.0000 0.55898  0.05148  0.32551  Biso   1.000  H
  H63      1.0000 0.59653  0.10538  0.36291  Biso   1.000  H
  C55      1.0000 0.03616  0.99435  0.36142  Biso   1.000  C
  H64      1.0000 0.94767  0.07742  0.37482  Biso   1.000  H
  H65      1.0000 0.02782  0.04462  0.41249  Biso   1.000  H
  C56      1.0000 0.92261  0.72698  0.26882  Biso   1.000  C
  C57      1.0000 0.40916  0.10532  0.34595  Biso   1.000  C
  C58      1.0000 0.99745  0.92973  0.33933  Biso   1.000  C
  C59      1.0000 0.12256  0.03124  0.35792  Biso   1.000  C
  H66      1.0000 0.89500  0.74658  0.24189  Biso   1.000  H
  H67      1.0000 0.87175  0.69349  0.27440  Biso   1.000  H
  C60      1.0000 0.94092  0.79028  0.29604  Biso   1.000  C
  C61      1.0000 0.31075  0.09195  0.35366  Biso   1.000  C
  H68      1.0000 0.43781  0.15380  0.35789  Biso   1.000  H
  H69      1.0000 0.39945  0.10832  0.31742  Biso   1.000  H
  C62      1.0000 0.04417  0.90431  0.31186  Biso   1.000  C
  H70      1.0000 0.94117  0.90402  0.34291  Biso   1.000  H
  C63      1.0000 0.16822  0.00300  0.33130  Biso   1.000  C
  H71      1.0000 0.14880  0.07419  0.37342  Biso   1.000  H
  O19      1.0000 0.01238  0.84084  0.28718  Biso   1.000  O
  H72      1.0000 0.96724  0.77160  0.32321  Biso   1.000  H
  H73      1.0000 0.87756  0.81749  0.29371  Biso   1.000  H
  O20      1.0000 0.25649  0.03217  0.32539  Biso   1.000  O
  H74      1.0000 0.32126  0.07471  0.38091  Biso   1.000  H
  H75      1.0000 0.27105  0.13910  0.34972  Biso   1.000  H
  C64      1.0000 0.12931  0.94218  0.30697  Biso   1.000  C
  H76      1.0000 0.15914  0.92638  0.28750  Biso   1.000  H
  C65      1.0000 0.43072  0.55468  0.14595  Biso   1.000  C
  C66      1.0000 0.35853  0.49640  0.12595  Biso   1.000  C
  O21      1.0000 0.52365  0.54476  0.13774  Biso   1.000  O
  H77      1.0000 0.44111  0.55151  0.17451  Biso   1.000  H
  H78      1.0000 0.40349  0.60541  0.13711  Biso   1.000  H
  O22      1.0000 0.38898  0.42324  0.13765  Biso   1.000  O
  H79      1.0000 0.34772  0.50078  0.09741  Biso   1.000  H
  H80      1.0000 0.29362  0.50608  0.13111  Biso   1.000  H
  C67      1.0000 0.59091  0.60529  0.15404  Biso   1.000  C
  C68      1.0000 0.31453  0.36519  0.13012  Biso   1.000  C
  C69      1.0000 0.68935  0.59192  0.14636  Biso   1.000  C
  H81      1.0000 0.56219  0.65377  0.14210  Biso   1.000  H
  H82      1.0000 0.60064  0.60829  0.18260  Biso   1.000  H
  C70      1.0000 0.36172  0.29198  0.14418  Biso   1.000  C
  H83      1.0000 0.26374  0.37730  0.14359  Biso   1.000  H
  H84      1.0000 0.28064  0.36220  0.10171  Biso   1.000  H
  O23      1.0000 0.74361  0.53214  0.17463  Biso   1.000  O
  H85      1.0000 0.67883  0.57468  0.11911  Biso   1.000  H
  H86      1.0000 0.72904  0.63907  0.15030  Biso   1.000  H
  O24      1.0000 0.41602  0.26385  0.11797  Biso   1.000  O
  H87      1.0000 0.30961  0.25509  0.14571  Biso   1.000  H
  H88      1.0000 0.40833  0.29821  0.17081  Biso   1.000  H
  C71      1.0000 0.83180  0.50297  0.16872  Biso   1.000  C
  C72      1.0000 0.48803  0.20586  0.13090  Biso   1.000  C
  C73      1.0000 0.87071  0.44221  0.19305  Biso   1.000  C
  C74      1.0000 0.87753  0.53127  0.14210  Biso   1.000  C
  C75      1.0000 0.53328  0.17969  0.10391  Biso   1.000  C
  C76      1.0000 0.51731  0.17928  0.17028  Biso   1.000  C
  H89      1.0000 0.84095  0.42641  0.21252  Biso   1.000  H
  C77      1.0000 0.95590  0.40428  0.18813  Biso   1.000  C
  C78      1.0000 0.96393  0.49432  0.13860  Biso   1.000  C
  H90      1.0000 0.85130  0.57422  0.12660  Biso   1.000  H
  H91      1.0000 0.51345  0.19819  0.07791  Biso   1.000  H
  C79      1.0000 0.61021  0.12457  0.11550  Biso   1.000  C
  C80      1.0000 0.59563  0.12538  0.17998  Biso   1.000  C
  H92      1.0000 0.48612  0.19681  0.18899  Biso   1.000  H
  O25      1.0000 0.98770  0.34081  0.21281  Biso   1.000  O
  C81      1.0000 0.00265  0.42976  0.16069  Biso   1.000  C
  C82      1.0000 0.02167  0.53012  0.11239  Biso   1.000  C
  C83      1.0000 0.64241  0.09852  0.15368  Biso   1.000  C
  C84      1.0000 0.66430  0.09898  0.08573  Biso   1.000  C
  O26      1.0000 0.62491  0.10734  0.22123  Biso   1.000  O
  C85      1.0000 0.05910  0.29031  0.20398  Biso   1.000  C
  H93      1.0000 0.05893  0.40399  0.15711  Biso   1.000  H
  O27      1.0000 0.09713  0.48850  0.10311  Biso   1.000  O
  H94      1.0000 0.97218  0.54459  0.08750  Biso   1.000  H
  H95      1.0000 0.05243  0.57739  0.12520  Biso   1.000  H
  H96      1.0000 0.69543  0.06301  0.16150  Biso   1.000  H
  O28      1.0000 0.73851  0.15363  0.08612  Biso   1.000  O
  H97      1.0000 0.61631  0.09529  0.05932  Biso   1.000  H
  H98      1.0000 0.69549  0.04883  0.09311  Biso   1.000  H
  C86      1.0000 0.68011  0.03741  0.23535  Biso   1.000  C
  C87      1.0000 0.07742  0.22701  0.23120  Biso   1.000  C
  H99      1.0000 0.03286  0.27157  0.17681  Biso   1.000  H
  H100     1.0000 0.12253  0.31752  0.20631  Biso   1.000  H
  C88      1.0000 0.07082  0.45328  0.06567  Biso   1.000  C
  C89      1.0000 0.79532  0.13789  0.06033  Biso   1.000  C
  H101     1.0000 0.63804  0.00282  0.24559  Biso   1.000  H
  H102     1.0000 0.69735  0.01182  0.21350  Biso   1.000  H
  C90      1.0000 0.77236  0.05580  0.26655  Biso   1.000  C
  O29      1.0000 0.99079  0.18453  0.22914  Biso   1.000  O
  H103     1.0000 0.10507  0.24661  0.25810  Biso   1.000  H
  H104     1.0000 0.12832  0.19352  0.22559  Biso   1.000  H
  C91      1.0000 0.01318  0.38058  0.06347  Biso   1.000  C
  H105     1.0000 0.03003  0.48908  0.04621  Biso   1.000  H
  H106     1.0000 0.13270  0.44290  0.05839  Biso   1.000  H
  C92      1.0000 0.86737  0.20188  0.06176  Biso   1.000  C
  H107     1.0000 0.83273  0.09010  0.06800  Biso   1.000  H
  H108     1.0000 0.75053  0.13201  0.03340  Biso   1.000  H
  O30      1.0000 0.84077  0.09956  0.25574  Biso   1.000  O
  H109     1.0000 0.80532  0.00790  0.27750  Biso   1.000  H
  H110     1.0000 0.75321  0.08220  0.28780  Biso   1.000  H
  C93      1.0000 0.00986  0.11702  0.25225  Biso   1.000  C
  C94      1.0000 0.97172  0.32178  0.06347  Biso   1.000  C
  C95      1.0000 0.92062  0.25699  0.06308  Biso   1.000  C
  C96      1.0000 0.92331  0.07973  0.25446  Biso   1.000  C
  H111     1.0000 0.05072  0.13011  0.27912  Biso   1.000  H
  H112     1.0000 0.04964  0.08197  0.24099  Biso   1.000  H
  H113     1.0000 0.94761  0.04710  0.27780  Biso   1.000  H
  H114     1.0000 0.90844  0.04468  0.23189  Biso   1.000  H
  C97      1.0000 0.56945  0.44532  0.85406  Biso   1.000  C
  O31      1.0000 0.47647  0.45524  0.86230  Biso   1.000  O
  H115     1.0000 0.55900  0.44849  0.82553  Biso   1.000  H
  H116     1.0000 0.59660  0.39459  0.86290  Biso   1.000  H
  C98      1.0000 0.64164  0.50360  0.87406  Biso   1.000  C
  C99      1.0000 0.40919  0.39471  0.84597  Biso   1.000  C
  O32      1.0000 0.61119  0.57676  0.86236  Biso   1.000  O
  H117     1.0000 0.65245  0.49922  0.90260  Biso   1.000  H
  H118     1.0000 0.70648  0.49392  0.86890  Biso   1.000  H
  C100     1.0000 0.31084  0.40808  0.85368  Biso   1.000  C
  H119     1.0000 0.43791  0.34623  0.85791  Biso   1.000  H
  H120     1.0000 0.39953  0.39171  0.81741  Biso   1.000  H
  C101     1.0000 0.68564  0.63481  0.86989  Biso   1.000  C
  O33      1.0000 0.25656  0.46786  0.82538  Biso   1.000  O
  H121     1.0000 0.32134  0.42532  0.88090  Biso   1.000  H
  H122     1.0000 0.27113  0.36093  0.84971  Biso   1.000  H
  H123     1.0000 0.73643  0.62270  0.85642  Biso   1.000  H
  H124     1.0000 0.71953  0.63780  0.89830  Biso   1.000  H
  C102     1.0000 0.63845  0.70802  0.85582  Biso   1.000  C
  C103     1.0000 0.16830  0.49703  0.83129  Biso   1.000  C
  O34      1.0000 0.58407  0.73615  0.88203  Biso   1.000  O
  H125     1.0000 0.69048  0.74491  0.85430  Biso   1.000  H
  H126     1.0000 0.59179  0.70179  0.82923  Biso   1.000  H
  C104     1.0000 0.12941  0.55779  0.80699  Biso   1.000  C
  C105     1.0000 0.12266  0.46873  0.85794  Biso   1.000  C
  C106     1.0000 0.51214  0.79414  0.86911  Biso   1.000  C
  H127     1.0000 0.15924  0.57359  0.78752  Biso   1.000  H
  C107     1.0000 0.04419  0.59572  0.81188  Biso   1.000  C
  C108     1.0000 0.03624  0.50568  0.86141  Biso   1.000  C
  H128     1.0000 0.14880  0.42578  0.87341  Biso   1.000  H
  C109     1.0000 0.46682  0.82031  0.89610  Biso   1.000  C
  C110     1.0000 0.48279  0.82072  0.82973  Biso   1.000  C
  O35      1.0000 0.01247  0.65919  0.78720  Biso   1.000  O
  C111     1.0000 0.99752  0.57024  0.83932  Biso   1.000  C
  C112     1.0000 0.97842  0.46988  0.88762  Biso   1.000  C
  H129     1.0000 0.48674  0.80181  0.92213  Biso   1.000  H
  C113     1.0000 0.38989  0.87543  0.88451  Biso   1.000  C
  C114     1.0000 0.40454  0.87462  0.82003  Biso   1.000  C
  H130     1.0000 0.51405  0.80319  0.81102  Biso   1.000  H
  C115     1.0000 0.94100  0.70969  0.79603  Biso   1.000  C
  H131     1.0000 0.94124  0.59601  0.84290  Biso   1.000  H
  H132     1.0000 0.02792  0.45541  0.91251  Biso   1.000  H
  O36      1.0000 0.90304  0.51150  0.89690  Biso   1.000  O
  H133     1.0000 0.94774  0.42261  0.87481  Biso   1.000  H
  C116     1.0000 0.33582  0.90102  0.91430  Biso   1.000  C
  C117     1.0000 0.35769  0.90148  0.84633  Biso   1.000  C
  O37      1.0000 0.37518  0.89266  0.77878  Biso   1.000  O
  C118     1.0000 0.92270  0.77299  0.76884  Biso   1.000  C
  H134     1.0000 0.96733  0.72843  0.82323  Biso   1.000  H
  H135     1.0000 0.87764  0.68248  0.79370  Biso   1.000  H
  C119     1.0000 0.92935  0.54672  0.93434  Biso   1.000  C
  O38      1.0000 0.26161  0.84637  0.91392  Biso   1.000  O
  H136     1.0000 0.38381  0.90471  0.94072  Biso   1.000  H
  H137     1.0000 0.30460  0.95117  0.90690  Biso   1.000  H
  H138     1.0000 0.30474  0.93699  0.83851  Biso   1.000  H
  C120     1.0000 0.32001  0.96259  0.76469  Biso   1.000  C
  O39      1.0000 0.00933  0.81547  0.77090  Biso   1.000  O
  H139     1.0000 0.89510  0.75339  0.74191  Biso   1.000  H
  H140     1.0000 0.87178  0.80648  0.77442  Biso   1.000  H
  H141     1.0000 0.97017  0.51092  0.95383  Biso   1.000  H
  H142     1.0000 0.86747  0.55710  0.94162  Biso   1.000  H
  C121     1.0000 0.98692  0.61942  0.93654  Biso   1.000  C
  C122     1.0000 0.20485  0.86211  0.93968  Biso   1.000  C
  C123     1.0000 0.22784  0.94420  0.73349  Biso   1.000  C
  H143     1.0000 0.36213  0.99718  0.75442  Biso   1.000  H
  H144     1.0000 0.30282  0.98818  0.78651  Biso   1.000  H
  C124     1.0000 0.99031  0.88298  0.74776  Biso   1.000  C
  C125     1.0000 0.02844  0.67822  0.93654  Biso   1.000  C
  C126     1.0000 0.13272  0.79812  0.93825  Biso   1.000  C
  H145     1.0000 0.16744  0.90990  0.93201  Biso   1.000  H
  H146     1.0000 0.24964  0.86799  0.96661  Biso   1.000  H
  O40      1.0000 0.15940  0.90044  0.74427  Biso   1.000  O
  H147     1.0000 0.19477  0.99210  0.72251  Biso   1.000  H
  H148     1.0000 0.24689  0.91780  0.71221  Biso   1.000  H
  C127     1.0000 0.07680  0.92027  0.74558  Biso   1.000  C
  H149     1.0000 0.94940  0.86989  0.72092  Biso   1.000  H
  H150     1.0000 0.95053  0.91803  0.75902  Biso   1.000  H
  C128     1.0000 0.07955  0.74301  0.93693  Biso   1.000  C
  H151     1.0000 0.05249  0.95290  0.72221  Biso   1.000  H
  H152     1.0000 0.09173  0.95532  0.76812  Biso   1.000  H
  Ne1      1.0000 0.75517  0.30861  0.15373  Biso   1.000  Ne
  He1      1.0000 0.73803  0.27753  0.17035  Biso   1.000  He
  He2      1.0000 0.82338  0.19346  0.16408  Biso   1.000  He
  He3      1.0000 0.72468  0.30828  0.13341  Biso   1.000  He
  Ar1      1.0000 0.73512  0.29090  0.14691  Biso   1.000  Ar
  Ne2      1.0000 0.24490  0.80862  0.34628  Biso   1.000  Ne
  He4      1.0000 0.37517  0.86914  0.33593  Biso   1.000  He
  He5      1.0000 0.14192  0.72832  0.34504  Biso   1.000  He
  He6      1.0000 0.00000  0.00000  0.00000  Biso   1.000  He
  Ar2      1.0000 0.26495  0.79091  0.35309  Biso   1.000  Ar
  Ne3      1.0000 0.75524  0.19138  0.65374  Biso   1.000  Ne
  He7      1.0000 0.62676  0.13454  0.68589  Biso   1.000  He
  He8      1.0000 0.92067  0.33982  0.64728  Biso   1.000  He
  He9      1.0000 0.72497  0.19205  0.63361  Biso   1.000  He
  Ar3      1.0000 0.73517  0.20911  0.64691  Biso   1.000  Ar
  Ne4      1.0000 0.24497  0.69139  0.84628  Biso   1.000  Ne
  He10     1.0000 0.36346  0.63191  0.85729  Biso   1.000  He
  He11     1.0000 0.13143  0.77981  0.84659  Biso   1.000  He
  He12     1.0000 0.36675  0.63265  0.84604  Biso   1.000  He
  Ar4      1.0000 0.26502  0.70910  0.85310  Biso   1.000  Ar
