data_image0
_cell_length_a       13.672
_cell_length_b       14.541
_cell_length_c       16.402
_cell_angle_alpha    112.15
_cell_angle_beta     92.06
_cell_angle_gamma    104.26

_symmetry_space_group_name_H-M    "P 1"
_symmetry_int_tables_number       1

loop_
  _symmetry_equiv_pos_as_xyz
  'x, y, z'

loop_
  _atom_site_label
  _atom_site_occupancy
  _atom_site_fract_x
  _atom_site_fract_y
  _atom_site_fract_z
  _atom_site_thermal_displace_type
  _atom_site_B_iso_or_equiv
  _atom_site_type_symbol
  C1       1.0000 0.59464  0.64408  0.57668  Biso   1.000  C
  O1       1.0000 0.49714  0.65386  0.59517  Biso   1.000  O
  H1       1.0000 0.58872  0.57540  0.53258  Biso   1.000  H
  H2       1.0000 0.62650  0.69397  0.55280  Biso   1.000  H
  C2       1.0000 0.65784  0.66210  0.65889  Biso   1.000  C
  C3       1.0000 0.44036  0.66019  0.52400  Biso   1.000  C
  O2       1.0000 0.61220  0.59277  0.69840  Biso   1.000  O
  H3       1.0000 0.66764  0.73277  0.70100  Biso   1.000  H
  H4       1.0000 0.72420  0.65350  0.64539  Biso   1.000  H
  C4       1.0000 0.33575  0.65929  0.54442  Biso   1.000  C
  H5       1.0000 0.47276  0.72336  0.51669  Biso   1.000  H
  H6       1.0000 0.43809  0.60195  0.46906  Biso   1.000  H
  C5       1.0000 0.67773  0.60030  0.77130  Biso   1.000  C
  O3       1.0000 0.28505  0.55680  0.53577  Biso   1.000  O
  H7       1.0000 0.30004  0.67771  0.50332  Biso   1.000  H
  H8       1.0000 0.33785  0.70881  0.60442  Biso   1.000  H
  H9       1.0000 0.73491  0.57410  0.75028  Biso   1.000  H
  H10      1.0000 0.70418  0.67184  0.81268  Biso   1.000  H
  C6       1.0000 0.61789  0.53817  0.81607  Biso   1.000  C
  C7       1.0000 0.19161  0.53866  0.56371  Biso   1.000  C
  O4       1.0000 0.55717  0.59576  0.86961  Biso   1.000  O
  H11      1.0000 0.66351  0.52286  0.85272  Biso   1.000  H
  H12      1.0000 0.57479  0.47330  0.77210  Biso   1.000  H
  C8       1.0000 0.15190  0.44205  0.56378  Biso   1.000  C
  C9       1.0000 0.13693  0.61350  0.59138  Biso   1.000  C
  C10      1.0000 0.47746  0.54575  0.90087  Biso   1.000  C
  H13      1.0000 0.18597  0.39170  0.54209  Biso   1.000  H
  C11      1.0000 0.06081  0.42044  0.59617  Biso   1.000  C
  C12      1.0000 0.04492  0.58717  0.62078  Biso   1.000  C
  H14      1.0000 0.16211  0.67832  0.58992  Biso   1.000  H
  C13      1.0000 0.45423  0.44144  0.88218  Biso   1.000  C
  C14      1.0000 0.41796  0.60557  0.95049  Biso   1.000  C
  O5       1.0000 0.03229  0.32348  0.59670  Biso   1.000  O
  C15      1.0000 0.00733  0.49222  0.62610  Biso   1.000  C
  C16      1.0000 0.98935  0.66832  0.65410  Biso   1.000  C
  C17      1.0000 0.36945  0.39960  0.91211  Biso   1.000  C
  H15      1.0000 0.49455  0.40118  0.85059  Biso   1.000  H
  C18      1.0000 0.33649  0.56324  0.97890  Biso   1.000  C
  H16      1.0000 0.43573  0.67619  0.96386  Biso   1.000  H
  C19      1.0000 0.94323  0.29502  0.63282  Biso   1.000  C
  H17      1.0000 0.94719  0.47746  0.64938  Biso   1.000  H
  O6       1.0000 0.01981  0.72458  0.74550  Biso   1.000  O
  H18      1.0000 0.00434  0.71440  0.62337  Biso   1.000  H
  H19      1.0000 0.91645  0.63572  0.64240  Biso   1.000  H
  O7       1.0000 0.34925  0.29317  0.88518  Biso   1.000  O
  C20      1.0000 0.30895  0.45794  0.95961  Biso   1.000  C
  C21      1.0000 0.26903  0.62515  0.02951  Biso   1.000  C
  C22      1.0000 0.93165  0.18875  0.62830  Biso   1.000  C
  H20      1.0000 0.94885  0.34299  0.69408  Biso   1.000  H
  H21      1.0000 0.88430  0.29649  0.59910  Biso   1.000  H
  C23      1.0000 0.96153  0.79436  0.78660  Biso   1.000  C
  C24      1.0000 0.28655  0.23954  0.93067  Biso   1.000  C
  H22      1.0000 0.25106  0.42736  0.97830  Biso   1.000  H
  O8       1.0000 0.17930  0.60005  0.97198  Biso   1.000  O
  H23      1.0000 0.30333  0.69846  0.05066  Biso   1.000  H
  H24      1.0000 0.25310  0.60874  0.08046  Biso   1.000  H
  O9       1.0000 0.00718  0.18463  0.68676  Biso   1.000  O
  H25      1.0000 0.93493  0.14367  0.56790  Biso   1.000  H
  H26      1.0000 0.86496  0.16298  0.64266  Biso   1.000  H
  H27      1.0000 0.98015  0.85356  0.77057  Biso   1.000  H
  H28      1.0000 0.88951  0.75998  0.76538  Biso   1.000  H
  C25      1.0000 0.98020  0.82908  0.88311  Biso   1.000  C
  C26      1.0000 0.20276  0.15879  0.87081  Biso   1.000  C
  H29      1.0000 0.26082  0.28804  0.97730  Biso   1.000  H
  H30      1.0000 0.32732  0.21025  0.95828  Biso   1.000  H
  C27      1.0000 0.10603  0.64286  0.02286  Biso   1.000  C
  C28      1.0000 0.97304  0.17639  0.76086  Biso   1.000  C
  H31      1.0000 0.05295  0.86101  0.90240  Biso   1.000  H
  H32      1.0000 0.94622  0.88241  0.90939  Biso   1.000  H
  C29      1.0000 0.94552  0.74557  0.92050  Biso   1.000  C
  O10      1.0000 0.13308  0.19925  0.83928  Biso   1.000  O
  H33      1.0000 0.16804  0.11704  0.90107  Biso   1.000  H
  H34      1.0000 0.22818  0.11440  0.82079  Biso   1.000  H
  C30      1.0000 0.01367  0.62849  0.96459  Biso   1.000  C
  H35      1.0000 0.08712  0.60950  0.06357  Biso   1.000  H
  H36      1.0000 0.13654  0.71612  0.05798  Biso   1.000  H
  C31      1.0000 0.03834  0.13079  0.79997  Biso   1.000  C
  H37      1.0000 0.97418  0.24425  0.80409  Biso   1.000  H
  H38      1.0000 0.90316  0.13294  0.74596  Biso   1.000  H
  C32      1.0000 0.02007  0.69450  0.92588  Biso   1.000  C
  H39      1.0000 0.88431  0.69456  0.88298  Biso   1.000  H
  H40      1.0000 0.92798  0.77753  0.97936  Biso   1.000  H
  H41      1.0000 0.95806  0.63300  0.99958  Biso   1.000  H
  H42      1.0000 0.99596  0.55903  0.91837  Biso   1.000  H
  H43      1.0000 0.04686  0.06908  0.75361  Biso   1.000  H
  H44      1.0000 0.00466  0.11057  0.84407  Biso   1.000  H
  H45      1.0000 0.08310  0.74867  0.95428  Biso   1.000  H
  H46      1.0000 0.02991  0.65774  0.86509  Biso   1.000  H
  C33      1.0000 0.40537  0.35588  0.42330  Biso   1.000  C
  C34      1.0000 0.34218  0.33786  0.34109  Biso   1.000  C
  O11      1.0000 0.50288  0.34610  0.40481  Biso   1.000  O
  H47      1.0000 0.41130  0.42456  0.46740  Biso   1.000  H
  H48      1.0000 0.37351  0.30599  0.44718  Biso   1.000  H
  O12      1.0000 0.38782  0.40719  0.30158  Biso   1.000  O
  H49      1.0000 0.33238  0.26719  0.29898  Biso   1.000  H
  H50      1.0000 0.27582  0.34646  0.35459  Biso   1.000  H
  C35      1.0000 0.55966  0.33977  0.47598  Biso   1.000  C
  C36      1.0000 0.32229  0.39966  0.22868  Biso   1.000  C
  C37      1.0000 0.66426  0.34067  0.45556  Biso   1.000  C
  H51      1.0000 0.52733  0.27660  0.48329  Biso   1.000  H
  H52      1.0000 0.56192  0.39801  0.53092  Biso   1.000  H
  H53      1.0000 0.26513  0.42593  0.24970  Biso   1.000  H
  H54      1.0000 0.29584  0.32812  0.18731  Biso   1.000  H
  C38      1.0000 0.38213  0.46179  0.18391  Biso   1.000  C
  O13      1.0000 0.71497  0.44317  0.46421  Biso   1.000  O
  H55      1.0000 0.69998  0.32225  0.49666  Biso   1.000  H
  H56      1.0000 0.66216  0.29115  0.39556  Biso   1.000  H
  O14      1.0000 0.44285  0.40420  0.13037  Biso   1.000  O
  H57      1.0000 0.33651  0.47713  0.14733  Biso   1.000  H
  H58      1.0000 0.42523  0.52666  0.22788  Biso   1.000  H
  C39      1.0000 0.80840  0.46130  0.43627  Biso   1.000  C
  C40      1.0000 0.52255  0.45421  0.09911  Biso   1.000  C
  C41      1.0000 0.84812  0.55791  0.43620  Biso   1.000  C
  C42      1.0000 0.86309  0.38646  0.40860  Biso   1.000  C
  C43      1.0000 0.54578  0.55853  0.11780  Biso   1.000  C
  C44      1.0000 0.58205  0.39439  0.04949  Biso   1.000  C
  H59      1.0000 0.81405  0.60826  0.45789  Biso   1.000  H
  C45      1.0000 0.93920  0.57952  0.40381  Biso   1.000  C
  C46      1.0000 0.95510  0.41279  0.37920  Biso   1.000  C
  H60      1.0000 0.83790  0.32164  0.41006  Biso   1.000  H
  C47      1.0000 0.63059  0.60043  0.08787  Biso   1.000  C
  H61      1.0000 0.50547  0.59878  0.14939  Biso   1.000  H
  C48      1.0000 0.66352  0.43672  0.02109  Biso   1.000  C
  H62      1.0000 0.56431  0.32384  0.03612  Biso   1.000  H
  O15      1.0000 0.96773  0.67648  0.40328  Biso   1.000  O
  C49      1.0000 0.99271  0.50782  0.37388  Biso   1.000  C
  C50      1.0000 0.01068  0.33171  0.34588  Biso   1.000  C
  O16      1.0000 0.65076  0.70679  0.11480  Biso   1.000  O
  C51      1.0000 0.69106  0.54202  0.04037  Biso   1.000  C
  C52      1.0000 0.73100  0.37484  0.97053  Biso   1.000  C
  C53      1.0000 0.05681  0.70502  0.36716  Biso   1.000  C
  H63      1.0000 0.05282  0.52250  0.35060  Biso   1.000  H
  O17      1.0000 0.98021  0.27538  0.25448  Biso   1.000  O
  H64      1.0000 0.99567  0.28556  0.37661  Biso   1.000  H
  H65      1.0000 0.08358  0.36431  0.35758  Biso   1.000  H
  C54      1.0000 0.71347  0.76042  0.06931  Biso   1.000  C
  H66      1.0000 0.74895  0.57260  0.02168  Biso   1.000  H
  O18      1.0000 0.82072  0.39991  0.02800  Biso   1.000  O
  H67      1.0000 0.69670  0.30157  0.94932  Biso   1.000  H
  H68      1.0000 0.74691  0.39122  0.91952  Biso   1.000  H
  C55      1.0000 0.06837  0.81121  0.37168  Biso   1.000  C
  H69      1.0000 0.05116  0.65697  0.30590  Biso   1.000  H
  H70      1.0000 0.11571  0.70347  0.40088  Biso   1.000  H
  C56      1.0000 0.03849  0.20560  0.21338  Biso   1.000  C
  H71      1.0000 0.73920  0.71192  0.02268  Biso   1.000  H
  H72      1.0000 0.67270  0.78971  0.04170  Biso   1.000  H
  C57      1.0000 0.79725  0.84117  0.12917  Biso   1.000  C
  C58      1.0000 0.89400  0.35717  0.97712  Biso   1.000  C
  O19      1.0000 0.99283  0.81533  0.31322  Biso   1.000  O
  H73      1.0000 0.06508  0.85629  0.43208  Biso   1.000  H
  H74      1.0000 0.13508  0.83705  0.35732  Biso   1.000  H
  H75      1.0000 0.01987  0.14640  0.22941  Biso   1.000  H
  H76      1.0000 0.11051  0.23998  0.23460  Biso   1.000  H
  C59      1.0000 0.01982  0.17088  0.11687  Biso   1.000  C
  O20      1.0000 0.86693  0.80072  0.16070  Biso   1.000  O
  H77      1.0000 0.83197  0.88292  0.09891  Biso   1.000  H
  H78      1.0000 0.77185  0.88563  0.17919  Biso   1.000  H
  C60      1.0000 0.98635  0.37147  0.03539  Biso   1.000  C
  H79      1.0000 0.91289  0.39046  0.93641  Biso   1.000  H
  H80      1.0000 0.86348  0.28385  0.94200  Biso   1.000  H
  C61      1.0000 0.02700  0.82364  0.23912  Biso   1.000  C
  C62      1.0000 0.05449  0.25439  0.07948  Biso   1.000  C
  H81      1.0000 0.94708  0.13902  0.09758  Biso   1.000  H
  H82      1.0000 0.05381  0.11762  0.09059  Biso   1.000  H
  C63      1.0000 0.96170  0.86924  0.20001  Biso   1.000  C
  C64      1.0000 0.97996  0.30554  0.07410  Biso   1.000  C
  H83      1.0000 0.04197  0.36703  0.00040  Biso   1.000  H
  H84      1.0000 0.00405  0.44093  0.08161  Biso   1.000  H
  H85      1.0000 0.02584  0.75571  0.19589  Biso   1.000  H
  H86      1.0000 0.09686  0.86702  0.25402  Biso   1.000  H
  H87      1.0000 0.11570  0.30541  0.11700  Biso   1.000  H
  H88      1.0000 0.07203  0.22243  0.02062  Biso   1.000  H
  H89      1.0000 0.95315  0.93089  0.24637  Biso   1.000  H
  H90      1.0000 0.99536  0.88939  0.15591  Biso   1.000  H
  H91      1.0000 0.91691  0.25129  0.04570  Biso   1.000  H
  H92      1.0000 0.97011  0.34222  0.13489  Biso   1.000  H
  Ne1      1.0000 0.77058  0.49120  0.23212  Biso   1.000  Ne
  He1      1.0000 0.74003  0.53848  0.24125  Biso   1.000  He
  He2      1.0000 0.75524  0.43580  0.21894  Biso   1.000  He
  He3      1.0000 0.93025  0.60781  0.06264  Biso   1.000  He
  Ar1      1.0000 0.76697  0.48891  0.22406  Biso   1.000  Ar
  Ne2      1.0000 0.22944  0.50878  0.76786  Biso   1.000  Ne
  He4      1.0000 0.22956  0.51369  0.77736  Biso   1.000  He
  He5      1.0000 0.07630  0.39144  0.92580  Biso   1.000  He
  He6      1.0000 0.25016  0.46111  0.76114  Biso   1.000  He
  Ar2      1.0000 0.23305  0.51106  0.77593  Biso   1.000  Ar
