data_image0
_cell_length_a       12.789
_cell_length_b       26.622
_cell_length_c       20.717
_cell_angle_alpha    90
_cell_angle_beta     127.86
_cell_angle_gamma    90

_symmetry_space_group_name_H-M    "P 1"
_symmetry_int_tables_number       1

loop_
  _symmetry_equiv_pos_as_xyz
  'x, y, z'

loop_
  _atom_site_label
  _atom_site_occupancy
  _atom_site_fract_x
  _atom_site_fract_y
  _atom_site_fract_z
  _atom_site_thermal_displace_type
  _atom_site_B_iso_or_equiv
  _atom_site_type_symbol
  C1       1.0000 0.81023  0.60138  0.65326  Biso   1.000  C
  O1       1.0000 0.85807  0.60630  0.60747  Biso   1.000  O
  H1       1.0000 0.88278  0.60570  0.71098  Biso   1.000  H
  H2       1.0000 0.77346  0.56810  0.64538  Biso   1.000  H
  C2       1.0000 0.70557  0.64030  0.62649  Biso   1.000  C
  C3       1.0000 0.94512  0.56679  0.62386  Biso   1.000  C
  H3       1.0000 0.63891  0.63928  0.56761  Biso   1.000  H
  H4       1.0000 0.66269  0.63350  0.65131  Biso   1.000  H
  O2       1.0000 0.76672  0.68815  0.65118  Biso   1.000  O
  C4       1.0000 0.99610  0.57280  0.57690  Biso   1.000  C
  H5       1.0000 0.89885  0.53501  0.60979  Biso   1.000  H
  H6       1.0000 0.01879  0.56619  0.68175  Biso   1.000  H
  C5       1.0000 0.68778  0.73011  0.62361  Biso   1.000  C
  O3       1.0000 0.90750  0.57246  0.49620  Biso   1.000  O
  H7       1.0000 0.04403  0.60431  0.59286  Biso   1.000  H
  H8       1.0000 0.05925  0.54609  0.59268  Biso   1.000  H
  C6       1.0000 0.55087  0.72928  0.56510  Biso   1.000  C
  C7       1.0000 0.75584  0.77549  0.65730  Biso   1.000  C
  C8       1.0000 0.95441  0.57851  0.45200  Biso   1.000  C
  H9       1.0000 0.50441  0.69931  0.54346  Biso   1.000  H
  C9       1.0000 0.48675  0.77511  0.54040  Biso   1.000  C
  C10      1.0000 0.68850  0.81951  0.63345  Biso   1.000  C
  H10      1.0000 0.84754  0.77549  0.69606  Biso   1.000  H
  C11      1.0000 0.94210  0.63091  0.42302  Biso   1.000  C
  H11      1.0000 0.90600  0.55619  0.40510  Biso   1.000  H
  H12      1.0000 0.04691  0.56870  0.48581  Biso   1.000  H
  C12      1.0000 0.55211  0.81940  0.57421  Biso   1.000  C
  O4       1.0000 0.35458  0.78059  0.47981  Biso   1.000  O
  C13      1.0000 0.76142  0.86812  0.66898  Biso   1.000  C
  H13      1.0000 0.98169  0.65401  0.46850  Biso   1.000  H
  H14      1.0000 0.98818  0.63421  0.39960  Biso   1.000  H
  O5       1.0000 0.80597  0.64240  0.36316  Biso   1.000  O
  H15      1.0000 0.50516  0.84941  0.55758  Biso   1.000  H
  C14      1.0000 0.27143  0.73890  0.43708  Biso   1.000  C
  H16      1.0000 0.75603  0.88701  0.62697  Biso   1.000  H
  H17      1.0000 0.71947  0.88769  0.68671  Biso   1.000  H
  O6       1.0000 0.89372  0.86060  0.73488  Biso   1.000  O
  C15      1.0000 0.77098  0.69120  0.33938  Biso   1.000  C
  C16      1.0000 0.15159  0.75682  0.35570  Biso   1.000  C
  H18      1.0000 0.24530  0.72391  0.46789  Biso   1.000  H
  H19      1.0000 0.31808  0.71381  0.42950  Biso   1.000  H
  C17      1.0000 0.97742  0.90008  0.74467  Biso   1.000  C
  C18      1.0000 0.63727  0.69931  0.28118  Biso   1.000  C
  C19      1.0000 0.86018  0.73019  0.37050  Biso   1.000  C
  O7       1.0000 0.18335  0.76027  0.30129  Biso   1.000  O
  H20      1.0000 0.07902  0.73349  0.33430  Biso   1.000  H
  H21      1.0000 0.12452  0.78938  0.36151  Biso   1.000  H
  C20      1.0000 0.02025  0.89261  0.69227  Biso   1.000  C
  H22      1.0000 0.93063  0.93179  0.73048  Biso   1.000  H
  H23      1.0000 0.05512  0.90189  0.80159  Biso   1.000  H
  H24      1.0000 0.57849  0.67241  0.25831  Biso   1.000  H
  C21      1.0000 0.59258  0.74690  0.25770  Biso   1.000  C
  C22      1.0000 0.81464  0.77830  0.34507  Biso   1.000  C
  H25      1.0000 0.95048  0.72399  0.40840  Biso   1.000  H
  C23      1.0000 0.09813  0.79040  0.23288  Biso   1.000  C
  C24      1.0000 0.05193  0.88419  0.65106  Biso   1.000  C
  C25      1.0000 0.67913  0.78709  0.28741  Biso   1.000  C
  O8       1.0000 0.45814  0.75235  0.20481  Biso   1.000  O
  C26      1.0000 0.90954  0.82229  0.38028  Biso   1.000  C
  C27      1.0000 0.10781  0.78138  0.16758  Biso   1.000  C
  H26      1.0000 0.11838  0.82541  0.24908  Biso   1.000  H
  H27      1.0000 0.00790  0.78431  0.21252  Biso   1.000  H
  C28      1.0000 0.08158  0.87251  0.59910  Biso   1.000  C
  H28      1.0000 0.64737  0.81951  0.26907  Biso   1.000  H
  C29      1.0000 0.40167  0.79791  0.17657  Biso   1.000  C
  H29      1.0000 0.91097  0.83739  0.33822  Biso   1.000  H
  H30      1.0000 0.88042  0.84761  0.39991  Biso   1.000  H
  O9       1.0000 0.03578  0.80599  0.44441  Biso   1.000  O
  O10      1.0000 0.23595  0.79149  0.19509  Biso   1.000  O
  H31      1.0000 0.08563  0.74671  0.14991  Biso   1.000  H
  H32      1.0000 0.04561  0.80279  0.12130  Biso   1.000  H
  C30      1.0000 0.10155  0.86199  0.55257  Biso   1.000  C
  C31      1.0000 0.25350  0.79231  0.13402  Biso   1.000  C
  H33      1.0000 0.41547  0.81038  0.13830  Biso   1.000  H
  H34      1.0000 0.44088  0.82161  0.22150  Biso   1.000  H
  C32      1.0000 0.12403  0.84622  0.49339  Biso   1.000  C
  H35      1.0000 0.20511  0.82011  0.09690  Biso   1.000  H
  H36      1.0000 0.22073  0.76129  0.10271  Biso   1.000  H
  H37      1.0000 0.10867  0.87431  0.45866  Biso   1.000  H
  H38      1.0000 0.21505  0.83521  0.52249  Biso   1.000  H
  C33      1.0000 0.18973  0.39862  0.34672  Biso   1.000  C
  C34      1.0000 0.29438  0.35970  0.37349  Biso   1.000  C
  H39      1.0000 0.11718  0.39430  0.28900  Biso   1.000  H
  H40      1.0000 0.22650  0.43190  0.35460  Biso   1.000  H
  O11      1.0000 0.14189  0.39370  0.39251  Biso   1.000  O
  O12      1.0000 0.23316  0.31185  0.34879  Biso   1.000  O
  H41      1.0000 0.36105  0.36072  0.43237  Biso   1.000  H
  H42      1.0000 0.33726  0.36650  0.34867  Biso   1.000  H
  C35      1.0000 0.05478  0.43321  0.37606  Biso   1.000  C
  C36      1.0000 0.31218  0.26989  0.37637  Biso   1.000  C
  H43      1.0000 0.10103  0.46499  0.39019  Biso   1.000  H
  C37      1.0000 0.00386  0.42720  0.42308  Biso   1.000  C
  H44      1.0000 0.98103  0.43381  0.31816  Biso   1.000  H
  C38      1.0000 0.24405  0.22451  0.34268  Biso   1.000  C
  C39      1.0000 0.44909  0.27072  0.43488  Biso   1.000  C
  O13      1.0000 0.09246  0.42754  0.50378  Biso   1.000  O
  H45      1.0000 0.95587  0.39569  0.40706  Biso   1.000  H
  H46      1.0000 0.94071  0.45391  0.40730  Biso   1.000  H
  C40      1.0000 0.31132  0.18049  0.36646  Biso   1.000  C
  H47      1.0000 0.15242  0.22451  0.30392  Biso   1.000  H
  H48      1.0000 0.49541  0.30069  0.45646  Biso   1.000  H
  C41      1.0000 0.51313  0.22489  0.45958  Biso   1.000  C
  C42      1.0000 0.04554  0.42149  0.54798  Biso   1.000  C
  C43      1.0000 0.44785  0.18060  0.42577  Biso   1.000  C
  C44      1.0000 0.23846  0.13188  0.33100  Biso   1.000  C
  O14      1.0000 0.64538  0.21941  0.52017  Biso   1.000  O
  C45      1.0000 0.05786  0.36909  0.57696  Biso   1.000  C
  H49      1.0000 0.09396  0.44381  0.59488  Biso   1.000  H
  H50      1.0000 0.95305  0.43130  0.51417  Biso   1.000  H
  H51      1.0000 0.49480  0.15059  0.44240  Biso   1.000  H
  H52      1.0000 0.24386  0.11299  0.37301  Biso   1.000  H
  H53      1.0000 0.28049  0.11231  0.31327  Biso   1.000  H
  O15      1.0000 0.10616  0.13940  0.26510  Biso   1.000  O
  C46      1.0000 0.72845  0.26110  0.56290  Biso   1.000  C
  H54      1.0000 0.01826  0.34599  0.53148  Biso   1.000  H
  H55      1.0000 0.01178  0.36579  0.60038  Biso   1.000  H
  O16      1.0000 0.19393  0.35760  0.63676  Biso   1.000  O
  C47      1.0000 0.02254  0.09992  0.25531  Biso   1.000  C
  C48      1.0000 0.84837  0.24318  0.64428  Biso   1.000  C
  H56      1.0000 0.75466  0.27609  0.53209  Biso   1.000  H
  H57      1.0000 0.68188  0.28619  0.57048  Biso   1.000  H
  C49      1.0000 0.22897  0.30880  0.66060  Biso   1.000  C
  H58      1.0000 0.06932  0.06821  0.26950  Biso   1.000  H
  C50      1.0000 0.97970  0.10739  0.30771  Biso   1.000  C
  H59      1.0000 0.94476  0.09811  0.19839  Biso   1.000  H
  H60      1.0000 0.92094  0.26651  0.66567  Biso   1.000  H
  H61      1.0000 0.87544  0.21062  0.63847  Biso   1.000  H
  O17      1.0000 0.81653  0.23973  0.69869  Biso   1.000  O
  C51      1.0000 0.36269  0.30069  0.71880  Biso   1.000  C
  C52      1.0000 0.13978  0.26981  0.62948  Biso   1.000  C
  C53      1.0000 0.94803  0.11581  0.34892  Biso   1.000  C
  C54      1.0000 0.90175  0.20960  0.76710  Biso   1.000  C
  C55      1.0000 0.40737  0.25310  0.74228  Biso   1.000  C
  H62      1.0000 0.42147  0.32759  0.74167  Biso   1.000  H
  C56      1.0000 0.18526  0.22170  0.65485  Biso   1.000  C
  H63      1.0000 0.04947  0.27601  0.59158  Biso   1.000  H
  C57      1.0000 0.91838  0.12749  0.40088  Biso   1.000  C
  H64      1.0000 0.88158  0.17459  0.75090  Biso   1.000  H
  H65      1.0000 0.99205  0.21569  0.78746  Biso   1.000  H
  C58      1.0000 0.89215  0.21862  0.83240  Biso   1.000  C
  O18      1.0000 0.54182  0.24765  0.79517  Biso   1.000  O
  C59      1.0000 0.32083  0.21291  0.71257  Biso   1.000  C
  C60      1.0000 0.09034  0.17771  0.61970  Biso   1.000  C
  C61      1.0000 0.89841  0.13801  0.44741  Biso   1.000  C
  H66      1.0000 0.91433  0.25329  0.85007  Biso   1.000  H
  H67      1.0000 0.95435  0.19721  0.87868  Biso   1.000  H
  O19      1.0000 0.76393  0.20851  0.80489  Biso   1.000  O
  C62      1.0000 0.59822  0.20209  0.82335  Biso   1.000  C
  H68      1.0000 0.35259  0.18049  0.73091  Biso   1.000  H
  O20      1.0000 0.96418  0.19401  0.55556  Biso   1.000  O
  H69      1.0000 0.08891  0.16261  0.66176  Biso   1.000  H
  H70      1.0000 0.11954  0.15239  0.60007  Biso   1.000  H
  C63      1.0000 0.87585  0.15378  0.50659  Biso   1.000  C
  C64      1.0000 0.74646  0.20769  0.86596  Biso   1.000  C
  H71      1.0000 0.58442  0.18962  0.86168  Biso   1.000  H
  H72      1.0000 0.55900  0.17839  0.77848  Biso   1.000  H
  H73      1.0000 0.89123  0.12569  0.54126  Biso   1.000  H
  H74      1.0000 0.78491  0.16479  0.47749  Biso   1.000  H
  H75      1.0000 0.79485  0.17989  0.90308  Biso   1.000  H
  H76      1.0000 0.77922  0.23871  0.89727  Biso   1.000  H
  C65      1.0000 0.59828  0.29791  0.32336  Biso   1.000  C
  O21      1.0000 0.54188  0.25235  0.29518  Biso   1.000  O
  C66      1.0000 0.74644  0.29231  0.36597  Biso   1.000  C
  H77      1.0000 0.58448  0.31038  0.36169  Biso   1.000  H
  H78      1.0000 0.55906  0.32161  0.27849  Biso   1.000  H
  C67      1.0000 0.40736  0.24690  0.24229  Biso   1.000  C
  H79      1.0000 0.79483  0.32011  0.40309  Biso   1.000  H
  H80      1.0000 0.77928  0.26129  0.39728  Biso   1.000  H
  O22      1.0000 0.76399  0.29149  0.30490  Biso   1.000  O
  C68      1.0000 0.32089  0.28709  0.21258  Biso   1.000  C
  C69      1.0000 0.36267  0.19931  0.21881  Biso   1.000  C
  C70      1.0000 0.89221  0.28138  0.33241  Biso   1.000  C
  C71      1.0000 0.18530  0.27830  0.15492  Biso   1.000  C
  H81      1.0000 0.35258  0.31951  0.23092  Biso   1.000  H
  C72      1.0000 0.22903  0.19120  0.16061  Biso   1.000  C
  H82      1.0000 0.42145  0.17241  0.24168  Biso   1.000  H
  C73      1.0000 0.90181  0.29040  0.26711  Biso   1.000  C
  H83      1.0000 0.91439  0.24671  0.35008  Biso   1.000  H
  H84      1.0000 0.95441  0.30279  0.37869  Biso   1.000  H
  C74      1.0000 0.13976  0.23019  0.12949  Biso   1.000  C
  C75      1.0000 0.09040  0.32229  0.11971  Biso   1.000  C
  O23      1.0000 0.19399  0.14240  0.13677  Biso   1.000  O
  H85      1.0000 0.88164  0.32541  0.25091  Biso   1.000  H
  H86      1.0000 0.99204  0.28431  0.28747  Biso   1.000  H
  O24      1.0000 0.81659  0.26027  0.19870  Biso   1.000  O
  H87      1.0000 0.04946  0.22399  0.09159  Biso   1.000  H
  H88      1.0000 0.08897  0.33739  0.16177  Biso   1.000  H
  H89      1.0000 0.11960  0.34761  0.10008  Biso   1.000  H
  O25      1.0000 0.96416  0.30599  0.05557  Biso   1.000  O
  C76      1.0000 0.05784  0.13091  0.07697  Biso   1.000  C
  C77      1.0000 0.84835  0.25682  0.14429  Biso   1.000  C
  C78      1.0000 0.87591  0.34622  0.00660  Biso   1.000  C
  H90      1.0000 0.01832  0.15401  0.03149  Biso   1.000  H
  H91      1.0000 0.01176  0.13421  0.10039  Biso   1.000  H
  C79      1.0000 0.04560  0.07851  0.04799  Biso   1.000  C
  H92      1.0000 0.92100  0.23349  0.16569  Biso   1.000  H
  H93      1.0000 0.87550  0.28938  0.13848  Biso   1.000  H
  C80      1.0000 0.72851  0.23890  0.06291  Biso   1.000  C
  H94      1.0000 0.78489  0.33521  0.97750  Biso   1.000  H
  C81      1.0000 0.89839  0.36199  0.94742  Biso   1.000  C
  H95      1.0000 0.89129  0.37431  0.04127  Biso   1.000  H
  H96      1.0000 0.09394  0.05619  0.09489  Biso   1.000  H
  O26      1.0000 0.09252  0.07246  0.00379  Biso   1.000  O
  H97      1.0000 0.95311  0.06870  0.01418  Biso   1.000  H
  H98      1.0000 0.75472  0.22391  0.03210  Biso   1.000  H
  H99      1.0000 0.68186  0.21381  0.07049  Biso   1.000  H
  O27      1.0000 0.64536  0.28059  0.02018  Biso   1.000  O
  C82      1.0000 0.91844  0.37251  0.90089  Biso   1.000  C
  C83      1.0000 0.00392  0.07280  0.92309  Biso   1.000  C
  C84      1.0000 0.51319  0.27511  0.95959  Biso   1.000  C
  C85      1.0000 0.94801  0.38419  0.84893  Biso   1.000  C
  H100     1.0000 0.95591  0.10431  0.90713  Biso   1.000  H
  H101     1.0000 0.94069  0.04609  0.90731  Biso   1.000  H
  C86      1.0000 0.05482  0.06679  0.87613  Biso   1.000  C
  C87      1.0000 0.44791  0.31940  0.92578  Biso   1.000  C
  C88      1.0000 0.44907  0.22928  0.93489  Biso   1.000  C
  C89      1.0000 0.97976  0.39261  0.80772  Biso   1.000  C
  H102     1.0000 0.98109  0.06619  0.81817  Biso   1.000  H
  H103     1.0000 0.10109  0.03501  0.89020  Biso   1.000  H
  O28      1.0000 0.14195  0.10630  0.89252  Biso   1.000  O
  C90      1.0000 0.31138  0.31951  0.86647  Biso   1.000  C
  H104     1.0000 0.49478  0.34941  0.94241  Biso   1.000  H
  C91      1.0000 0.31216  0.23011  0.87638  Biso   1.000  C
  H105     1.0000 0.49553  0.19931  0.95653  Biso   1.000  H
  C92      1.0000 0.02252  0.40008  0.75532  Biso   1.000  C
  C93      1.0000 0.18971  0.10138  0.84673  Biso   1.000  C
  C94      1.0000 0.23852  0.36812  0.83101  Biso   1.000  C
  C95      1.0000 0.24410  0.27549  0.84269  Biso   1.000  C
  O29      1.0000 0.23322  0.18815  0.84880  Biso   1.000  O
  H106     1.0000 0.94482  0.40189  0.69840  Biso   1.000  H
  H107     1.0000 0.06931  0.43179  0.76951  Biso   1.000  H
  O30      1.0000 0.10622  0.36060  0.76511  Biso   1.000  O
  H108     1.0000 0.11724  0.10570  0.78901  Biso   1.000  H
  H109     1.0000 0.22656  0.06810  0.85461  Biso   1.000  H
  C96      1.0000 0.29444  0.14030  0.87350  Biso   1.000  C
  H110     1.0000 0.24391  0.38701  0.87302  Biso   1.000  H
  H111     1.0000 0.28047  0.38769  0.81328  Biso   1.000  H
  H112     1.0000 0.15248  0.27549  0.80393  Biso   1.000  H
  H113     1.0000 0.36111  0.13928  0.93238  Biso   1.000  H
  H114     1.0000 0.33732  0.13350  0.84868  Biso   1.000  H
  C97      1.0000 0.40161  0.70209  0.67656  Biso   1.000  C
  C98      1.0000 0.25352  0.70769  0.63401  Biso   1.000  C
  H115     1.0000 0.41548  0.68962  0.63828  Biso   1.000  H
  H116     1.0000 0.44089  0.67839  0.72149  Biso   1.000  H
  O31      1.0000 0.45808  0.74765  0.70480  Biso   1.000  O
  H117     1.0000 0.20505  0.67989  0.59689  Biso   1.000  H
  H118     1.0000 0.22067  0.73871  0.60270  Biso   1.000  H
  O32      1.0000 0.23597  0.70851  0.69508  Biso   1.000  O
  C99      1.0000 0.59252  0.75310  0.75769  Biso   1.000  C
  C100     1.0000 0.10775  0.71862  0.66757  Biso   1.000  C
  C101     1.0000 0.63721  0.80069  0.78117  Biso   1.000  C
  C102     1.0000 0.67907  0.71291  0.78740  Biso   1.000  C
  C103     1.0000 0.09815  0.70960  0.73287  Biso   1.000  C
  H119     1.0000 0.08557  0.75329  0.64990  Biso   1.000  H
  H120     1.0000 0.04555  0.69721  0.62129  Biso   1.000  H
  H121     1.0000 0.57843  0.82759  0.75830  Biso   1.000  H
  C104     1.0000 0.77092  0.80880  0.83937  Biso   1.000  C
  C105     1.0000 0.81458  0.72170  0.84505  Biso   1.000  C
  H122     1.0000 0.64731  0.68049  0.76906  Biso   1.000  H
  H123     1.0000 0.11832  0.67459  0.74907  Biso   1.000  H
  H124     1.0000 0.00785  0.71569  0.71251  Biso   1.000  H
  O33      1.0000 0.18337  0.73973  0.80128  Biso   1.000  O
  C106     1.0000 0.86012  0.76981  0.87049  Biso   1.000  C
  O34      1.0000 0.80591  0.85760  0.86315  Biso   1.000  O
  C107     1.0000 0.90956  0.67771  0.88027  Biso   1.000  C
  C108     1.0000 0.15153  0.74318  0.85569  Biso   1.000  C
  H125     1.0000 0.95043  0.77601  0.90839  Biso   1.000  H
  C109     1.0000 0.94198  0.86909  0.92295  Biso   1.000  C
  H126     1.0000 0.91098  0.66261  0.83821  Biso   1.000  H
  H127     1.0000 0.88036  0.65239  0.89990  Biso   1.000  H
  O35      1.0000 0.03580  0.69401  0.94440  Biso   1.000  O
  H128     1.0000 0.07896  0.76651  0.83429  Biso   1.000  H
  H129     1.0000 0.12446  0.71062  0.86150  Biso   1.000  H
  C110     1.0000 0.27145  0.76110  0.93707  Biso   1.000  C
  H130     1.0000 0.98164  0.84599  0.96849  Biso   1.000  H
  H131     1.0000 0.98812  0.86579  0.89959  Biso   1.000  H
  C111     1.0000 0.95435  0.92149  0.95199  Biso   1.000  C
  C112     1.0000 0.12405  0.65378  0.99338  Biso   1.000  C
  H132     1.0000 0.24524  0.77609  0.96788  Biso   1.000  H
  H133     1.0000 0.31802  0.78619  0.92949  Biso   1.000  H
  O36      1.0000 0.35460  0.71941  0.97980  Biso   1.000  O
  H134     1.0000 0.90594  0.94381  0.90509  Biso   1.000  H
  O37      1.0000 0.90744  0.92754  0.99619  Biso   1.000  O
  H135     1.0000 0.04685  0.93130  0.98580  Biso   1.000  H
  H136     1.0000 0.10861  0.62569  0.95865  Biso   1.000  H
  H137     1.0000 0.21507  0.66479  0.02248  Biso   1.000  H
  C113     1.0000 0.10149  0.63801  0.05256  Biso   1.000  C
  C114     1.0000 0.48677  0.72489  0.04039  Biso   1.000  C
  C115     1.0000 0.99604  0.92720  0.07689  Biso   1.000  C
  C116     1.0000 0.08152  0.62749  0.09908  Biso   1.000  C
  C117     1.0000 0.55081  0.77072  0.06509  Biso   1.000  C
  C118     1.0000 0.55199  0.68060  0.07414  Biso   1.000  C
  C119     1.0000 0.94506  0.93321  0.12385  Biso   1.000  C
  H138     1.0000 0.04397  0.89569  0.09285  Biso   1.000  H
  H139     1.0000 0.05919  0.95391  0.09267  Biso   1.000  H
  C120     1.0000 0.05187  0.61581  0.15105  Biso   1.000  C
  C121     1.0000 0.68766  0.76989  0.12354  Biso   1.000  C
  H140     1.0000 0.50443  0.80069  0.04345  Biso   1.000  H
  C122     1.0000 0.68852  0.68049  0.13344  Biso   1.000  C
  H141     1.0000 0.50510  0.65059  0.05757  Biso   1.000  H
  H142     1.0000 0.89887  0.96499  0.10978  Biso   1.000  H
  O38      1.0000 0.85801  0.89370  0.10746  Biso   1.000  O
  H143     1.0000 0.01881  0.93381  0.18174  Biso   1.000  H
  C123     1.0000 0.02019  0.60739  0.19226  Biso   1.000  C
  C124     1.0000 0.75585  0.72451  0.15729  Biso   1.000  C
  O39      1.0000 0.76674  0.81185  0.15117  Biso   1.000  O
  C125     1.0000 0.76144  0.63188  0.16897  Biso   1.000  C
  C126     1.0000 0.81017  0.89862  0.15325  Biso   1.000  C
  C127     1.0000 0.97744  0.59992  0.24466  Biso   1.000  C
  H144     1.0000 0.84748  0.72451  0.19605  Biso   1.000  H
  C128     1.0000 0.70551  0.85970  0.12647  Biso   1.000  C
  H145     1.0000 0.75604  0.61299  0.12696  Biso   1.000  H
  H146     1.0000 0.71941  0.61231  0.18670  Biso   1.000  H
  O40      1.0000 0.89374  0.63940  0.23487  Biso   1.000  O
  H147     1.0000 0.88272  0.89430  0.21097  Biso   1.000  H
  H148     1.0000 0.77340  0.93190  0.14537  Biso   1.000  H
  H149     1.0000 0.93065  0.56821  0.23047  Biso   1.000  H
  H150     1.0000 0.05514  0.59811  0.30158  Biso   1.000  H
  H151     1.0000 0.63885  0.86072  0.06760  Biso   1.000  H
  H152     1.0000 0.66263  0.86650  0.15130  Biso   1.000  H
  Ne1      1.0000 0.30973  0.24828  0.03598  Biso   1.000  Ne
  He1      1.0000 0.35912  0.18899  0.05216  Biso   1.000  He
  He2      1.0000 0.34828  0.27911  0.05052  Biso   1.000  He
  He3      1.0000 0.18053  0.26866  0.98453  Biso   1.000  He
  Ar1      1.0000 0.30962  0.24906  0.04289  Biso   1.000  Ar
  Ne2      1.0000 0.30970  0.25172  0.53597  Biso   1.000  Ne
  He4      1.0000 0.51324  0.33171  0.61728  Biso   1.000  He
  He5      1.0000 0.35009  0.22620  0.55269  Biso   1.000  He
  He6      1.0000 0.19145  0.20806  0.48880  Biso   1.000  He
  Ar2      1.0000 0.29652  0.24730  0.53871  Biso   1.000  Ar
  Ne3      1.0000 0.69023  0.74828  0.46400  Biso   1.000  Ne
  He7      1.0000 0.80221  0.79468  0.50857  Biso   1.000  He
  He8      1.0000 0.64959  0.77645  0.44794  Biso   1.000  He
  He9      1.0000 0.49575  0.75050  0.38051  Biso   1.000  He
  Ar3      1.0000 0.69035  0.74907  0.45711  Biso   1.000  Ar
  Ne4      1.0000 0.69020  0.75172  0.96399  Biso   1.000  Ne
  He10     1.0000 0.79244  0.70101  0.00452  Biso   1.000  He
  He11     1.0000 0.57384  0.59737  0.90310  Biso   1.000  He
  He12     1.0000 0.63283  0.81197  0.94446  Biso   1.000  He
  Ar4      1.0000 0.69031  0.75094  0.95709  Biso   1.000  Ar
