data_image0
_cell_length_a       13.595
_cell_length_b       20.823
_cell_length_c       23.687
_cell_angle_alpha    74.64
_cell_angle_beta     84.66
_cell_angle_gamma    76.36

_symmetry_space_group_name_H-M    "P 1"
_symmetry_int_tables_number       1

loop_
  _symmetry_equiv_pos_as_xyz
  'x, y, z'

loop_
  _atom_site_label
  _atom_site_occupancy
  _atom_site_fract_x
  _atom_site_fract_y
  _atom_site_fract_z
  _atom_site_thermal_displace_type
  _atom_site_B_iso_or_equiv
  _atom_site_type_symbol
  C1       1.0000 0.49979  0.56694  0.53139  Biso   1.000  C
  O1       1.0000 0.46750  0.61660  0.48242  Biso   1.000  O
  C2       1.0000 0.43744  0.53260  0.57191  Biso   1.000  C
  C3       1.0000 0.60409  0.55222  0.53879  Biso   1.000  C
  C4       1.0000 0.36108  0.63544  0.47261  Biso   1.000  C
  C5       1.0000 0.48039  0.48313  0.62088  Biso   1.000  C
  H1       1.0000 0.36808  0.54234  0.56648  Biso   1.000  H
  C6       1.0000 0.64484  0.50353  0.58781  Biso   1.000  C
  H2       1.0000 0.64570  0.57490  0.51111  Biso   1.000  H
  C7       1.0000 0.34526  0.68953  0.41610  Biso   1.000  C
  H3       1.0000 0.32447  0.65284  0.50450  Biso   1.000  H
  H4       1.0000 0.33669  0.59614  0.47011  Biso   1.000  H
  C8       1.0000 0.58244  0.46860  0.62951  Biso   1.000  C
  C9       1.0000 0.40952  0.44932  0.66600  Biso   1.000  C
  O2       1.0000 0.74489  0.48764  0.60091  Biso   1.000  O
  H5       1.0000 0.38740  0.67355  0.38508  Biso   1.000  H
  H6       1.0000 0.27509  0.70002  0.40541  Biso   1.000  H
  O3       1.0000 0.37134  0.74876  0.42359  Biso   1.000  O
  H7       1.0000 0.61001  0.43611  0.66250  Biso   1.000  H
  H8       1.0000 0.35555  0.44050  0.64699  Biso   1.000  H
  H9       1.0000 0.44591  0.40642  0.69001  Biso   1.000  H
  O4       1.0000 0.36921  0.49790  0.70113  Biso   1.000  O
  C10      1.0000 0.81188  0.51984  0.55741  Biso   1.000  C
  C11      1.0000 0.35255  0.80335  0.37299  Biso   1.000  C
  C12      1.0000 0.28932  0.48791  0.73797  Biso   1.000  C
  C13      1.0000 0.91423  0.50105  0.58277  Biso   1.000  C
  H10      1.0000 0.78743  0.56903  0.54738  Biso   1.000  H
  H11      1.0000 0.81508  0.50403  0.52211  Biso   1.000  H
  C14      1.0000 0.40509  0.85672  0.37738  Biso   1.000  C
  H12      1.0000 0.28024  0.82215  0.36971  Biso   1.000  H
  H13      1.0000 0.37728  0.78711  0.33830  Biso   1.000  H
  C15      1.0000 0.25732  0.53691  0.77131  Biso   1.000  C
  C16      1.0000 0.23813  0.43642  0.74419  Biso   1.000  C
  H14      1.0000 0.92860  0.45350  0.60459  Biso   1.000  H
  H15      1.0000 0.96554  0.50713  0.55172  Biso   1.000  H
  O5       1.0000 0.91612  0.54342  0.62053  Biso   1.000  O
  H16      1.0000 0.47648  0.83672  0.38360  Biso   1.000  H
  H17      1.0000 0.39897  0.89202  0.34102  Biso   1.000  H
  O6       1.0000 0.36294  0.88584  0.42411  Biso   1.000  O
  C17      1.0000 0.17723  0.53224  0.81108  Biso   1.000  C
  O7       1.0000 0.31182  0.58660  0.76040  Biso   1.000  O
  C18      1.0000 0.15757  0.43300  0.78458  Biso   1.000  C
  H18      1.0000 0.25733  0.40472  0.72181  Biso   1.000  H
  C19      1.0000 0.00694  0.52331  0.65229  Biso   1.000  C
  C20      1.0000 0.40953  0.93915  0.42718  Biso   1.000  C
  H19      1.0000 0.15703  0.56445  0.83307  Biso   1.000  H
  C21      1.0000 0.12568  0.47901  0.81888  Biso   1.000  C
  C22      1.0000 0.28021  0.63923  0.79098  Biso   1.000  C
  O8       1.0000 0.10945  0.37984  0.78879  Biso   1.000  O
  C23      1.0000 0.01239  0.57973  0.67901  Biso   1.000  C
  H20      1.0000 0.06525  0.51494  0.62618  Biso   1.000  H
  H21      1.0000 0.00656  0.48162  0.68260  Biso   1.000  H
  C24      1.0000 0.37008  0.96434  0.48010  Biso   1.000  C
  H22      1.0000 0.39543  0.97634  0.39231  Biso   1.000  H
  H23      1.0000 0.48236  0.92236  0.42920  Biso   1.000  H
  C25      1.0000 0.04387  0.47001  0.86128  Biso   1.000  C
  C26      1.0000 0.35033  0.68674  0.77030  Biso   1.000  C
  H24      1.0000 0.28449  0.61995  0.83290  Biso   1.000  H
  H25      1.0000 0.21084  0.66315  0.78217  Biso   1.000  H
  C27      1.0000 0.02999  0.37061  0.82808  Biso   1.000  C
  O9       1.0000 0.92773  0.59073  0.71708  Biso   1.000  O
  H26      1.0000 0.07420  0.56773  0.70061  Biso   1.000  H
  H27      1.0000 0.01349  0.62113  0.64848  Biso   1.000  H
  H28      1.0000 0.29666  0.97512  0.48110  Biso   1.000  H
  O10      1.0000 0.40559  0.91336  0.53069  Biso   1.000  O
  H29      1.0000 0.39291  0.00540  0.47878  Biso   1.000  H
  C28      1.0000 0.00897  0.51713  0.89987  Biso   1.000  C
  C29      1.0000 0.00075  0.41650  0.86531  Biso   1.000  C
  C30      1.0000 0.44180  0.67223  0.79829  Biso   1.000  C
  C31      1.0000 0.32933  0.74045  0.72120  Biso   1.000  C
  O11      1.0000 0.99024  0.32464  0.82677  Biso   1.000  O
  C32      1.0000 0.92720  0.64692  0.74122  Biso   1.000  C
  C33      1.0000 0.38905  0.93652  0.58159  Biso   1.000  C
  H30      1.0000 0.06525  0.51905  0.92051  Biso   1.000  H
  H31      1.0000 0.95866  0.50081  0.92760  Biso   1.000  H
  H32      1.0000 0.98026  0.56184  0.87661  Biso   1.000  H
  H33      1.0000 0.94979  0.40923  0.89370  Biso   1.000  H
  C34      1.0000 0.51210  0.71155  0.77521  Biso   1.000  C
  H34      1.0000 0.45531  0.63684  0.83189  Biso   1.000  H
  C35      1.0000 0.40038  0.78033  0.69908  Biso   1.000  C
  H35      1.0000 0.26799  0.75006  0.70289  Biso   1.000  H
  C36      1.0000 0.82820  0.66724  0.76991  Biso   1.000  C
  H36      1.0000 0.94089  0.68523  0.71029  Biso   1.000  H
  H37      1.0000 0.98008  0.63405  0.76951  Biso   1.000  H
  C37      1.0000 0.43628  0.88006  0.63201  Biso   1.000  C
  H38      1.0000 0.31688  0.95035  0.58939  Biso   1.000  H
  H39      1.0000 0.41885  0.97576  0.57669  Biso   1.000  H
  C38      1.0000 0.49141  0.76612  0.72549  Biso   1.000  C
  O12      1.0000 0.60564  0.70098  0.79799  Biso   1.000  O
  O13      1.0000 0.37312  0.83182  0.64993  Biso   1.000  O
  H40      1.0000 0.82485  0.70955  0.78068  Biso   1.000  H
  H41      1.0000 0.77483  0.67502  0.74279  Biso   1.000  H
  O14      1.0000 0.81375  0.61551  0.82085  Biso   1.000  O
  H42      1.0000 0.50298  0.85772  0.62018  Biso   1.000  H
  H43      1.0000 0.44348  0.89875  0.66438  Biso   1.000  H
  H44      1.0000 0.53876  0.79245  0.71051  Biso   1.000  H
  C39      1.0000 0.63196  0.64501  0.84788  Biso   1.000  C
  C40      1.0000 0.73873  0.63951  0.86128  Biso   1.000  C
  H45      1.0000 0.62471  0.60316  0.83978  Biso   1.000  H
  H46      1.0000 0.58763  0.65261  0.88121  Biso   1.000  H
  H47      1.0000 0.74610  0.68413  0.86299  Biso   1.000  H
  H48      1.0000 0.75216  0.60904  0.89987  Biso   1.000  H
  C41      1.0000 0.50020  0.43311  0.46858  Biso   1.000  C
  C42      1.0000 0.39590  0.44782  0.46122  Biso   1.000  C
  C43      1.0000 0.56263  0.46744  0.42810  Biso   1.000  C
  O15      1.0000 0.53256  0.38344  0.51759  Biso   1.000  O
  C44      1.0000 0.35522  0.49651  0.41220  Biso   1.000  C
  H49      1.0000 0.35429  0.42514  0.48890  Biso   1.000  H
  C45      1.0000 0.51960  0.51692  0.37908  Biso   1.000  C
  H50      1.0000 0.63191  0.45771  0.43349  Biso   1.000  H
  C46      1.0000 0.63891  0.36460  0.52741  Biso   1.000  C
  O16      1.0000 0.25510  0.51241  0.39906  Biso   1.000  O
  C47      1.0000 0.41755  0.53144  0.37050  Biso   1.000  C
  C48      1.0000 0.59047  0.55072  0.33401  Biso   1.000  C
  C49      1.0000 0.65473  0.31051  0.58391  Biso   1.000  C
  H51      1.0000 0.67552  0.34720  0.49552  Biso   1.000  H
  H52      1.0000 0.66330  0.40390  0.52990  Biso   1.000  H
  C50      1.0000 0.18811  0.48020  0.44260  Biso   1.000  C
  H53      1.0000 0.38998  0.56393  0.33751  Biso   1.000  H
  O17      1.0000 0.63077  0.50214  0.29888  Biso   1.000  O
  H54      1.0000 0.64444  0.55955  0.35298  Biso   1.000  H
  H55      1.0000 0.55407  0.59362  0.31000  Biso   1.000  H
  H56      1.0000 0.61267  0.32650  0.61488  Biso   1.000  H
  H57      1.0000 0.72497  0.30002  0.59460  Biso   1.000  H
  O18      1.0000 0.62863  0.25133  0.57642  Biso   1.000  O
  C51      1.0000 0.08584  0.49900  0.41719  Biso   1.000  C
  H58      1.0000 0.21263  0.43102  0.45259  Biso   1.000  H
  H59      1.0000 0.18491  0.49601  0.47791  Biso   1.000  H
  C52      1.0000 0.71067  0.51214  0.26199  Biso   1.000  C
  C53      1.0000 0.64744  0.19669  0.62702  Biso   1.000  C
  O19      1.0000 0.08387  0.45662  0.37948  Biso   1.000  O
  H60      1.0000 0.07139  0.54655  0.39538  Biso   1.000  H
  H61      1.0000 0.03452  0.49291  0.44829  Biso   1.000  H
  C54      1.0000 0.74267  0.46313  0.22870  Biso   1.000  C
  C55      1.0000 0.76186  0.56363  0.25577  Biso   1.000  C
  C56      1.0000 0.59498  0.14333  0.62259  Biso   1.000  C
  H62      1.0000 0.71975  0.17789  0.63030  Biso   1.000  H
  H63      1.0000 0.62278  0.21293  0.66171  Biso   1.000  H
  C57      1.0000 0.99305  0.47674  0.34768  Biso   1.000  C
  O20      1.0000 0.68817  0.41344  0.23961  Biso   1.000  O
  C58      1.0000 0.82276  0.46781  0.18888  Biso   1.000  C
  C59      1.0000 0.84242  0.56705  0.21539  Biso   1.000  C
  H64      1.0000 0.74266  0.59532  0.27820  Biso   1.000  H
  O21      1.0000 0.63705  0.11420  0.57590  Biso   1.000  O
  H65      1.0000 0.52351  0.16332  0.61642  Biso   1.000  H
  H66      1.0000 0.60109  0.10802  0.65899  Biso   1.000  H
  C60      1.0000 0.98760  0.42031  0.32100  Biso   1.000  C
  H67      1.0000 0.93482  0.48512  0.37378  Biso   1.000  H
  H68      1.0000 0.99350  0.51841  0.31741  Biso   1.000  H
  C61      1.0000 0.71979  0.36082  0.20899  Biso   1.000  C
  H69      1.0000 0.84296  0.43560  0.16689  Biso   1.000  H
  C62      1.0000 0.87438  0.52104  0.18109  Biso   1.000  C
  O22      1.0000 0.89052  0.62026  0.21118  Biso   1.000  O
  C63      1.0000 0.59046  0.06090  0.57279  Biso   1.000  C
  O23      1.0000 0.07226  0.40932  0.28289  Biso   1.000  O
  H70      1.0000 0.92579  0.43231  0.29940  Biso   1.000  H
  H71      1.0000 0.98650  0.37892  0.35149  Biso   1.000  H
  C64      1.0000 0.64966  0.31330  0.22971  Biso   1.000  C
  H72      1.0000 0.71550  0.38009  0.16711  Biso   1.000  H
  H73      1.0000 0.78923  0.33690  0.21780  Biso   1.000  H
  C65      1.0000 0.95612  0.53004  0.13868  Biso   1.000  C
  C66      1.0000 0.97008  0.62944  0.17189  Biso   1.000  C
  C67      1.0000 0.62998  0.03570  0.51991  Biso   1.000  C
  H74      1.0000 0.60456  0.02370  0.60770  Biso   1.000  H
  H75      1.0000 0.51763  0.07768  0.57082  Biso   1.000  H
  C68      1.0000 0.07279  0.35312  0.25880  Biso   1.000  C
  C69      1.0000 0.55819  0.32781  0.20172  Biso   1.000  C
  C70      1.0000 0.67074  0.25959  0.27882  Biso   1.000  C
  C71      1.0000 0.99102  0.48292  0.10009  Biso   1.000  C
  C72      1.0000 0.99923  0.58354  0.13470  Biso   1.000  C
  O24      1.0000 0.00973  0.67545  0.17325  Biso   1.000  O
  O25      1.0000 0.59447  0.08669  0.46928  Biso   1.000  O
  H76      1.0000 0.70333  0.02492  0.51891  Biso   1.000  H
  H77      1.0000 0.60709  0.99465  0.52119  Biso   1.000  H
  C73      1.0000 0.17179  0.33280  0.23010  Biso   1.000  C
  H78      1.0000 0.05910  0.31482  0.28968  Biso   1.000  H
  H79      1.0000 0.01991  0.36599  0.23050  Biso   1.000  H
  C74      1.0000 0.48788  0.28849  0.22480  Biso   1.000  C
  H80      1.0000 0.54468  0.36321  0.16808  Biso   1.000  H
  C75      1.0000 0.59961  0.21972  0.30089  Biso   1.000  C
  H81      1.0000 0.73200  0.25000  0.29708  Biso   1.000  H
  H82      1.0000 0.93472  0.48104  0.07951  Biso   1.000  H
  H83      1.0000 0.04133  0.49923  0.07241  Biso   1.000  H
  H84      1.0000 0.01980  0.43820  0.12340  Biso   1.000  H
  H85      1.0000 0.05027  0.59081  0.10631  Biso   1.000  H
  C76      1.0000 0.61094  0.06353  0.41838  Biso   1.000  C
  H86      1.0000 0.17522  0.29050  0.21929  Biso   1.000  H
  H87      1.0000 0.22516  0.32501  0.25722  Biso   1.000  H
  O26      1.0000 0.18631  0.38454  0.17912  Biso   1.000  O
  O27      1.0000 0.39442  0.29906  0.20203  Biso   1.000  O
  C77      1.0000 0.50859  0.23393  0.27448  Biso   1.000  C
  O28      1.0000 0.62694  0.16822  0.35009  Biso   1.000  O
  C78      1.0000 0.56371  0.11998  0.36800  Biso   1.000  C
  H88      1.0000 0.68318  0.04970  0.41058  Biso   1.000  H
  H89      1.0000 0.58114  0.02429  0.42328  Biso   1.000  H
  C79      1.0000 0.26126  0.36054  0.13868  Biso   1.000  C
  C80      1.0000 0.36810  0.35504  0.15209  Biso   1.000  C
  H90      1.0000 0.46123  0.20759  0.28950  Biso   1.000  H
  H91      1.0000 0.49701  0.14233  0.37978  Biso   1.000  H
  H92      1.0000 0.55651  0.10130  0.33559  Biso   1.000  H
  H93      1.0000 0.25389  0.31591  0.13702  Biso   1.000  H
  H94      1.0000 0.24791  0.39101  0.10009  Biso   1.000  H
  H95      1.0000 0.37526  0.39694  0.16019  Biso   1.000  H
  H96      1.0000 0.41236  0.34743  0.11880  Biso   1.000  H
  C81      1.0000 0.58503  0.80393  0.22038  Biso   1.000  C
  O29      1.0000 0.66864  0.80787  0.17820  Biso   1.000  O
  H97      1.0000 0.52497  0.80274  0.20198  Biso   1.000  H
  H98      1.0000 0.60156  0.76324  0.25218  Biso   1.000  H
  C82      1.0000 0.56772  0.86704  0.24281  Biso   1.000  C
  C83      1.0000 0.69252  0.75993  0.14679  Biso   1.000  C
  C84      1.0000 0.49932  0.92381  0.21701  Biso   1.000  C
  C85      1.0000 0.62435  0.86711  0.28850  Biso   1.000  C
  C86      1.0000 0.64207  0.70872  0.15191  Biso   1.000  C
  C87      1.0000 0.77541  0.76632  0.10671  Biso   1.000  C
  H99      1.0000 0.46233  0.92314  0.18621  Biso   1.000  H
  C88      1.0000 0.48385  0.98365  0.23628  Biso   1.000  C
  C89      1.0000 0.61042  0.92582  0.30759  Biso   1.000  C
  H100     1.0000 0.67107  0.82801  0.30611  Biso   1.000  H
  C90      1.0000 0.67365  0.66323  0.11652  Biso   1.000  C
  H101     1.0000 0.58774  0.70445  0.17850  Biso   1.000  H
  C91      1.0000 0.80456  0.72054  0.07250  Biso   1.000  C
  O30      1.0000 0.81725  0.82004  0.10552  Biso   1.000  O
  C92      1.0000 0.54066  0.98412  0.28179  Biso   1.000  C
  O31      1.0000 0.41235  0.03756  0.20877  Biso   1.000  O
  O32      1.0000 0.66027  0.93240  0.35298  Biso   1.000  O
  O33      1.0000 0.61953  0.61191  0.12506  Biso   1.000  O
  C93      1.0000 0.75284  0.66783  0.07701  Biso   1.000  C
  H102     1.0000 0.85912  0.72435  0.04599  Biso   1.000  H
  C94      1.0000 0.90198  0.82993  0.06632  Biso   1.000  C
  H103     1.0000 0.53195  0.02353  0.29489  Biso   1.000  H
  C95      1.0000 0.39037  0.09782  0.23050  Biso   1.000  C
  C96      1.0000 0.73055  0.87314  0.38360  Biso   1.000  C
  C97      1.0000 0.64538  0.56315  0.09379  Biso   1.000  C
  C98      1.0000 0.78064  0.61832  0.04170  Biso   1.000  C
  C99      1.0000 0.92073  0.89782  0.06619  Biso   1.000  C
  H104     1.0000 0.96113  0.79405  0.07951  Biso   1.000  H
  H105     1.0000 0.88725  0.82922  0.02720  Biso   1.000  H
  H106     1.0000 0.37516  0.08593  0.27229  Biso   1.000  H
  H107     1.0000 0.44871  0.11851  0.22380  Biso   1.000  H
  C100     1.0000 0.30197  0.14672  0.19949  Biso   1.000  C
  H108     1.0000 0.69479  0.83793  0.40361  Biso   1.000  H
  H109     1.0000 0.77957  0.85532  0.35600  Biso   1.000  H
  C101     1.0000 0.78293  0.89236  0.42648  Biso   1.000  C
  O34      1.0000 0.59692  0.51834  0.10640  Biso   1.000  O
  C102     1.0000 0.72704  0.56881  0.05112  Biso   1.000  C
  C103     1.0000 0.86307  0.62326  0.99728  Biso   1.000  C
  C104     1.0000 0.99702  0.90205  0.10071  Biso   1.000  C
  C105     1.0000 0.85941  0.95645  0.03522  Biso   1.000  C
  H110     1.0000 0.27413  0.18014  0.22191  Biso   1.000  H
  H111     1.0000 0.25028  0.12202  0.19861  Biso   1.000  H
  O35      1.0000 0.32286  0.18071  0.14328  Biso   1.000  O
  H112     1.0000 0.82613  0.85205  0.44992  Biso   1.000  H
  H113     1.0000 0.73355  0.91292  0.45250  Biso   1.000  H
  O36      1.0000 0.84273  0.93979  0.39612  Biso   1.000  O
  H114     1.0000 0.74413  0.53705  0.02878  Biso   1.000  H
  H115     1.0000 0.92461  0.61971  0.01581  Biso   1.000  H
  H116     1.0000 0.87149  0.58694  0.97819  Biso   1.000  H
  H117     1.0000 0.84698  0.66648  0.96899  Biso   1.000  H
  C106     1.0000 0.00812  0.96596  0.10220  Biso   1.000  C
  H118     1.0000 0.03896  0.86271  0.12200  Biso   1.000  H
  H119     1.0000 0.80916  0.95296  0.01270  Biso   1.000  H
  C107     1.0000 0.87048  0.02062  0.03631  Biso   1.000  C
  C108     1.0000 0.32822  0.14771  0.10071  Biso   1.000  C
  C109     1.0000 0.91055  0.94846  0.43441  Biso   1.000  C
  C110     1.0000 0.94406  0.02564  0.06899  Biso   1.000  C
  O37      1.0000 0.07790  0.97804  0.13352  Biso   1.000  O
  O38      1.0000 0.80476  0.07490  0.00499  Biso   1.000  O
  H120     1.0000 0.37314  0.10302  0.11240  Biso   1.000  H
  H121     1.0000 0.26166  0.14114  0.09580  Biso   1.000  H
  C111     1.0000 0.36991  0.19024  0.03829  Biso   1.000  C
  H122     1.0000 0.87319  0.96174  0.46788  Biso   1.000  H
  H123     1.0000 0.95900  0.90582  0.44838  Biso   1.000  H
  C112     1.0000 0.96413  0.00180  0.40208  Biso   1.000  C
  H124     1.0000 0.95257  0.06840  0.06961  Biso   1.000  H
  C113     1.0000 0.14604  0.92166  0.16729  Biso   1.000  C
  C114     1.0000 0.81495  0.14145  0.00438  Biso   1.000  C
  H125     1.0000 0.31766  0.22771  0.01849  Biso   1.000  H
  H126     1.0000 0.39846  0.16090  0.01240  Biso   1.000  H
  O39      1.0000 0.45491  0.21662  0.06229  Biso   1.000  O
  H127     1.0000 0.91572  0.04220  0.38289  Biso   1.000  H
  O40      1.0000 0.03235  0.97612  0.35928  Biso   1.000  O
  H128     1.0000 0.00149  0.01410  0.42911  Biso   1.000  H
  C115     1.0000 0.20039  0.94714  0.20720  Biso   1.000  C
  H129     1.0000 0.10934  0.88843  0.19051  Biso   1.000  H
  H130     1.0000 0.19481  0.89971  0.14179  Biso   1.000  H
  H131     1.0000 0.87977  0.14892  0.98629  Biso   1.000  H
  C116     1.0000 0.72987  0.19232  0.96986  Biso   1.000  C
  H132     1.0000 0.81175  0.14653  0.04411  Biso   1.000  H
  C117     1.0000 0.48594  0.26352  0.02142  Biso   1.000  C
  C118     1.0000 0.09510  0.01853  0.33191  Biso   1.000  C
  H133     1.0000 0.23189  0.98345  0.18429  Biso   1.000  H
  H134     1.0000 0.25289  0.91033  0.22761  Biso   1.000  H
  O41      1.0000 0.12899  0.97173  0.24798  Biso   1.000  O
  H135     1.0000 0.72241  0.17999  0.93399  Biso   1.000  H
  H136     1.0000 0.74443  0.23749  0.95957  Biso   1.000  H
  O42      1.0000 0.63990  0.19212  0.00482  Biso   1.000  O
  C119     1.0000 0.56217  0.24373  0.98046  Biso   1.000  C
  H137     1.0000 0.42762  0.29161  0.99956  Biso   1.000  H
  H138     1.0000 0.51064  0.29231  0.04039  Biso   1.000  H
  C120     1.0000 0.17274  0.98573  0.29402  Biso   1.000  C
  H139     1.0000 0.05518  0.06042  0.30830  Biso   1.000  H
  H140     1.0000 0.12819  0.03030  0.36108  Biso   1.000  H
  H141     1.0000 0.58926  0.28303  0.95996  Biso   1.000  H
  H142     1.0000 0.53159  0.22951  0.95168  Biso   1.000  H
  H143     1.0000 0.21165  0.94343  0.31749  Biso   1.000  H
  H144     1.0000 0.21898  0.01562  0.27750  Biso   1.000  H
  C121     1.0000 0.41496  0.19612  0.77959  Biso   1.000  C
  C122     1.0000 0.43227  0.13300  0.75720  Biso   1.000  C
  H145     1.0000 0.47510  0.19731  0.79799  Biso   1.000  H
  H146     1.0000 0.39843  0.23681  0.74779  Biso   1.000  H
  O43      1.0000 0.33135  0.19217  0.82182  Biso   1.000  O
  C123     1.0000 0.37564  0.13292  0.71152  Biso   1.000  C
  C124     1.0000 0.50067  0.07623  0.78300  Biso   1.000  C
  C125     1.0000 0.30747  0.24012  0.85318  Biso   1.000  C
  C126     1.0000 0.38957  0.07423  0.69237  Biso   1.000  C
  H147     1.0000 0.32899  0.17203  0.69391  Biso   1.000  H
  C127     1.0000 0.51622  0.01640  0.76369  Biso   1.000  C
  H148     1.0000 0.53773  0.07690  0.81380  Biso   1.000  H
  C128     1.0000 0.22458  0.23371  0.89330  Biso   1.000  C
  C129     1.0000 0.35799  0.29132  0.84810  Biso   1.000  C
  O44      1.0000 0.33980  0.06763  0.64704  Biso   1.000  O
  C130     1.0000 0.45940  0.01593  0.71817  Biso   1.000  C
  O45      1.0000 0.58762  0.96253  0.79124  Biso   1.000  O
  C131     1.0000 0.19551  0.27951  0.92747  Biso   1.000  C
  O46      1.0000 0.18281  0.18001  0.89444  Biso   1.000  O
  H149     1.0000 0.41225  0.29559  0.82151  Biso   1.000  H
  C132     1.0000 0.32641  0.33680  0.88349  Biso   1.000  C
  C133     1.0000 0.26944  0.12690  0.61642  Biso   1.000  C
  H150     1.0000 0.46804  0.97652  0.70508  Biso   1.000  H
  C134     1.0000 0.60962  0.90222  0.76951  Biso   1.000  C
  C135     1.0000 0.24715  0.33221  0.92300  Biso   1.000  C
  H151     1.0000 0.14087  0.27571  0.95397  Biso   1.000  H
  C136     1.0000 0.09801  0.17011  0.93369  Biso   1.000  C
  O47      1.0000 0.38046  0.38813  0.87495  Biso   1.000  O
  C137     1.0000 0.21706  0.10769  0.57349  Biso   1.000  C
  H152     1.0000 0.30528  0.16211  0.59640  Biso   1.000  H
  H153     1.0000 0.22042  0.14472  0.64401  Biso   1.000  H
  H154     1.0000 0.62483  0.91412  0.72768  Biso   1.000  H
  H155     1.0000 0.55135  0.88153  0.77621  Biso   1.000  H
  C138     1.0000 0.69802  0.85333  0.80048  Biso   1.000  C
  C139     1.0000 0.21935  0.38172  0.95831  Biso   1.000  C
  C140     1.0000 0.07926  0.10223  0.93378  Biso   1.000  C
  H156     1.0000 0.03886  0.20599  0.92051  Biso   1.000  H
  H157     1.0000 0.11281  0.17082  0.97281  Biso   1.000  H
  C141     1.0000 0.35469  0.43691  0.90618  Biso   1.000  C
  H158     1.0000 0.17386  0.14799  0.55010  Biso   1.000  H
  H159     1.0000 0.26644  0.08712  0.54751  Biso   1.000  H
  O48      1.0000 0.15726  0.06026  0.60384  Biso   1.000  O
  H160     1.0000 0.72586  0.81990  0.77810  Biso   1.000  H
  H161     1.0000 0.74971  0.87802  0.80140  Biso   1.000  H
  O49      1.0000 0.67713  0.81934  0.85668  Biso   1.000  O
  C142     1.0000 0.27294  0.43123  0.94889  Biso   1.000  C
  C143     1.0000 0.13692  0.37678  0.00273  Biso   1.000  C
  C144     1.0000 0.00297  0.09799  0.89931  Biso   1.000  C
  C145     1.0000 0.14065  0.04359  0.96479  Biso   1.000  C
  O50      1.0000 0.40305  0.48175  0.89361  Biso   1.000  O
  C146     1.0000 0.08943  0.05158  0.56560  Biso   1.000  C
  C147     1.0000 0.67177  0.85233  0.89931  Biso   1.000  C
  H162     1.0000 0.25587  0.46300  0.97119  Biso   1.000  H
  H163     1.0000 0.07538  0.38032  0.98420  Biso   1.000  H
  H164     1.0000 0.12850  0.41310  0.02183  Biso   1.000  H
  H165     1.0000 0.15301  0.33356  0.03103  Biso   1.000  H
  C148     1.0000 0.99195  0.03409  0.89777  Biso   1.000  C
  H166     1.0000 0.96110  0.13734  0.87797  Biso   1.000  H
  C149     1.0000 0.12958  0.97942  0.96370  Biso   1.000  C
  H167     1.0000 0.19083  0.04708  0.98731  Biso   1.000  H
  H168     1.0000 0.12688  0.03831  0.53209  Biso   1.000  H
  H169     1.0000 0.04107  0.09423  0.55159  Biso   1.000  H
  C150     1.0000 0.03586  0.99825  0.59789  Biso   1.000  C
  H170     1.0000 0.62685  0.89702  0.88761  Biso   1.000  H
  H171     1.0000 0.73833  0.85890  0.90421  Biso   1.000  H
  C151     1.0000 0.63008  0.80981  0.96168  Biso   1.000  C
  O51      1.0000 0.92209  0.02201  0.86645  Biso   1.000  O
  C152     1.0000 0.05593  0.97442  0.93098  Biso   1.000  C
  O52      1.0000 0.19529  0.92520  0.99497  Biso   1.000  O
  H172     1.0000 0.99849  0.98594  0.57090  Biso   1.000  H
  O53      1.0000 0.96765  0.02393  0.64068  Biso   1.000  O
  H173     1.0000 0.08427  0.95784  0.61712  Biso   1.000  H
  H174     1.0000 0.68240  0.77234  0.98148  Biso   1.000  H
  H175     1.0000 0.60153  0.83915  0.98757  Biso   1.000  H
  O54      1.0000 0.54508  0.78343  0.93768  Biso   1.000  O
  C153     1.0000 0.85402  0.07839  0.83268  Biso   1.000  C
  H176     1.0000 0.04742  0.93164  0.93041  Biso   1.000  H
  C154     1.0000 0.18502  0.85865  0.99559  Biso   1.000  C
  C155     1.0000 0.90489  0.98151  0.66811  Biso   1.000  C
  C156     1.0000 0.51405  0.73652  0.97859  Biso   1.000  C
  C157     1.0000 0.79960  0.05291  0.79277  Biso   1.000  C
  H177     1.0000 0.89065  0.11161  0.80951  Biso   1.000  H
  H178     1.0000 0.80519  0.10034  0.85817  Biso   1.000  H
  C158     1.0000 0.27012  0.80773  0.03011  Biso   1.000  C
  H179     1.0000 0.18824  0.85351  0.95590  Biso   1.000  H
  H180     1.0000 0.12022  0.85112  0.01372  Biso   1.000  H
  H181     1.0000 0.94481  0.93961  0.69172  Biso   1.000  H
  H182     1.0000 0.87180  0.96975  0.63889  Biso   1.000  H
  C159     1.0000 0.82725  0.01431  0.70600  Biso   1.000  C
  H183     1.0000 0.48936  0.70774  0.95958  Biso   1.000  H
  C160     1.0000 0.43782  0.75633  0.01950  Biso   1.000  C
  H184     1.0000 0.57244  0.70844  0.00041  Biso   1.000  H
  O55      1.0000 0.87100  0.02832  0.75199  Biso   1.000  O
  H185     1.0000 0.76810  0.01660  0.81568  Biso   1.000  H
  H186     1.0000 0.74710  0.08971  0.77240  Biso   1.000  H
  O56      1.0000 0.36009  0.80792  0.99519  Biso   1.000  O
  H187     1.0000 0.27758  0.82005  0.06603  Biso   1.000  H
  H188     1.0000 0.25564  0.76257  0.04040  Biso   1.000  H
  H189     1.0000 0.78101  0.98442  0.72251  Biso   1.000  H
  H190     1.0000 0.78834  0.05662  0.68247  Biso   1.000  H
  H191     1.0000 0.41073  0.71702  0.04001  Biso   1.000  H
  H192     1.0000 0.46840  0.77052  0.04833  Biso   1.000  H
  Ne1      1.0000 0.54035  0.37859  0.33344  Biso   1.000  Ne
  He1      1.0000 0.34432  0.38068  0.32523  Biso   1.000  He
  He2      1.0000 0.00000  0.00000  0.00000  Biso   1.000  He
  He3      1.0000 0.34432  0.36015  0.34362  Biso   1.000  He
  Ar1      1.0000 0.49031  0.36695  0.34843  Biso   1.000  Ar
  Ne2      1.0000 0.26233  0.07131  0.83659  Biso   1.000  Ne
  He4      1.0000 0.35829  0.94244  0.87840  Biso   1.000  He
  He5      1.0000 0.16253  0.99641  0.76485  Biso   1.000  He
  He6      1.0000 0.13318  0.05524  0.75461  Biso   1.000  He
  Ar2      1.0000 0.24353  0.01236  0.81943  Biso   1.000  Ar
  Ne3      1.0000 0.73768  0.92873  0.16340  Biso   1.000  Ne
  He7      1.0000 0.85960  0.95795  0.24293  Biso   1.000  He
  He8      1.0000 0.86229  0.91103  0.23693  Biso   1.000  He
  He9      1.0000 0.64660  0.05948  0.12468  Biso   1.000  He
  Ar3      1.0000 0.75943  0.98003  0.17977  Biso   1.000  Ar
  Ne4      1.0000 0.45966  0.62146  0.66655  Biso   1.000  Ne
  He10     1.0000 0.65843  0.60639  0.68559  Biso   1.000  He
  He11     1.0000 0.21802  0.67062  0.62117  Biso   1.000  He
  He12     1.0000 0.66627  0.56679  0.71926  Biso   1.000  He
  Ar4      1.0000 0.51081  0.63286  0.65217  Biso   1.000  Ar
