data_image0
_cell_length_a       12.953
_cell_length_b       13.437
_cell_length_c       26.491
_cell_angle_alpha    82.57
_cell_angle_beta     79.38
_cell_angle_gamma    65.22

_symmetry_space_group_name_H-M    "P 1"
_symmetry_int_tables_number       1

loop_
  _symmetry_equiv_pos_as_xyz
  'x, y, z'

loop_
  _atom_site_label
  _atom_site_occupancy
  _atom_site_fract_x
  _atom_site_fract_y
  _atom_site_fract_z
  _atom_site_thermal_displace_type
  _atom_site_B_iso_or_equiv
  _atom_site_type_symbol
  C1       1.0000 0.50283  0.65316  0.51972  Biso   1.000  C
  C2       1.0000 0.46655  0.76485  0.52134  Biso   1.000  C
  C3       1.0000 0.59324  0.57605  0.54392  Biso   1.000  C
  H1       1.0000 0.46407  0.62704  0.50110  Biso   1.000  H
  C4       1.0000 0.36644  0.84651  0.49610  Biso   1.000  C
  C5       1.0000 0.52735  0.79529  0.54673  Biso   1.000  C
  C6       1.0000 0.64969  0.61165  0.57000  Biso   1.000  C
  H2       1.0000 0.61467  0.49980  0.54203  Biso   1.000  H
  C7       1.0000 0.24993  0.83400  0.51691  Biso   1.000  C
  C8       1.0000 0.31175  0.95464  0.52303  Biso   1.000  C
  C9       1.0000 0.39429  0.85597  0.43793  Biso   1.000  C
  O1       1.0000 0.48696  0.90727  0.55911  Biso   1.000  O
  C10      1.0000 0.61779  0.72365  0.57112  Biso   1.000  C
  O2       1.0000 0.73896  0.54428  0.59562  Biso   1.000  O
  C11      1.0000 0.25376  0.72156  0.53261  Biso   1.000  C
  C12      1.0000 0.22068  0.91607  0.55761  Biso   1.000  C
  H3       1.0000 0.19675  0.86868  0.49060  Biso   1.000  H
  C13      1.0000 0.38073  0.98848  0.54942  Biso   1.000  C
  H4       1.0000 0.27205  0.01560  0.49821  Biso   1.000  H
  H5       1.0000 0.45360  0.88494  0.42843  Biso   1.000  H
  H6       1.0000 0.42225  0.78340  0.42431  Biso   1.000  H
  H7       1.0000 0.32478  0.90589  0.42342  Biso   1.000  H
  H8       1.0000 0.65773  0.75048  0.58862  Biso   1.000  H
  C14      1.0000 0.75629  0.43472  0.60782  Biso   1.000  C
  O3       1.0000 0.22802  0.66900  0.51099  Biso   1.000  O
  O4       1.0000 0.26771  0.68860  0.58462  Biso   1.000  O
  C15      1.0000 0.26038  0.85634  0.60740  Biso   1.000  C
  C16      1.0000 0.09866  0.00616  0.56542  Biso   1.000  C
  O5       1.0000 0.36785  0.07752  0.55523  Biso   1.000  O
  C17      1.0000 0.84477  0.38350  0.64333  Biso   1.000  C
  H9       1.0000 0.68308  0.43066  0.62463  Biso   1.000  H
  H10      1.0000 0.78225  0.39426  0.57600  Biso   1.000  H
  C18      1.0000 0.27185  0.75424  0.62102  Biso   1.000  C
  C19      1.0000 0.28802  0.90385  0.64252  Biso   1.000  C
  H11      1.0000 0.04584  0.97455  0.58431  Biso   1.000  H
  H12      1.0000 0.07468  0.03780  0.53192  Biso   1.000  H
  H13      1.0000 0.09721  0.06379  0.58512  Biso   1.000  H
  C20      1.0000 0.89842  0.44228  0.65972  Biso   1.000  C
  C21      1.0000 0.87176  0.27535  0.66003  Biso   1.000  C
  C22      1.0000 0.30734  0.69886  0.66611  Biso   1.000  C
  C23      1.0000 0.32942  0.85066  0.68723  Biso   1.000  C
  H14      1.0000 0.27816  0.97823  0.63571  Biso   1.000  H
  H15      1.0000 0.87920  0.51724  0.64883  Biso   1.000  H
  C24      1.0000 0.97918  0.38985  0.69173  Biso   1.000  C
  C25      1.0000 0.95285  0.22456  0.69273  Biso   1.000  C
  H16      1.0000 0.83467  0.23589  0.64910  Biso   1.000  H
  C26      1.0000 0.34171  0.74548  0.69854  Biso   1.000  C
  H17      1.0000 0.30782  0.62779  0.67472  Biso   1.000  H
  H18      1.0000 0.34903  0.88720  0.70981  Biso   1.000  H
  O6       1.0000 0.04055  0.43679  0.70969  Biso   1.000  O
  C27      1.0000 0.00726  0.28113  0.70842  Biso   1.000  C
  O7       1.0000 0.98417  0.11768  0.71308  Biso   1.000  O
  O8       1.0000 0.38200  0.69454  0.74359  Biso   1.000  O
  C28      1.0000 0.01037  0.55234  0.69804  Biso   1.000  C
  H19      1.0000 0.06396  0.24575  0.73051  Biso   1.000  H
  C29      1.0000 0.92535  0.05585  0.70142  Biso   1.000  C
  C30      1.0000 0.34626  0.61834  0.76902  Biso   1.000  C
  H20      1.0000 0.92871  0.59457  0.71173  Biso   1.000  H
  H21      1.0000 0.02064  0.56755  0.66022  Biso   1.000  H
  C31      1.0000 0.08505  0.58654  0.72162  Biso   1.000  C
  H22      1.0000 0.84184  0.09331  0.71323  Biso   1.000  H
  H23      1.0000 0.93721  0.04873  0.66384  Biso   1.000  H
  C32      1.0000 0.97336  0.94466  0.72874  Biso   1.000  C
  C33      1.0000 0.40130  0.57228  0.81703  Biso   1.000  C
  H24      1.0000 0.29335  0.59658  0.75813  Biso   1.000  H
  O9       1.0000 0.05723  0.59565  0.77487  Biso   1.000  O
  H25      1.0000 0.08093  0.65834  0.70523  Biso   1.000  H
  H26      1.0000 0.16553  0.53258  0.71393  Biso   1.000  H
  O10      1.0000 0.93694  0.95717  0.78164  Biso   1.000  O
  H27      1.0000 0.94530  0.89485  0.71662  Biso   1.000  H
  H28      1.0000 0.05838  0.91252  0.72151  Biso   1.000  H
  C34      1.0000 0.44702  0.62736  0.84011  Biso   1.000  C
  C35      1.0000 0.40875  0.46723  0.83654  Biso   1.000  C
  C36      1.0000 0.10161  0.49817  0.80461  Biso   1.000  C
  C37      1.0000 0.97728  0.85821  0.81211  Biso   1.000  C
  H29      1.0000 0.44175  0.69812  0.82673  Biso   1.000  H
  C38      1.0000 0.50176  0.57825  0.88363  Biso   1.000  C
  C39      1.0000 0.46196  0.42041  0.87943  Biso   1.000  C
  H30      1.0000 0.37744  0.42916  0.82034  Biso   1.000  H
  C40      1.0000 0.08402  0.52662  0.85981  Biso   1.000  C
  H31      1.0000 0.13675  0.42633  0.79241  Biso   1.000  H
  C41      1.0000 0.92616  0.87995  0.86593  Biso   1.000  C
  H32      1.0000 0.95597  0.80354  0.80022  Biso   1.000  H
  H33      1.0000 0.06203  0.82801  0.80911  Biso   1.000  H
  O11      1.0000 0.54831  0.63712  0.90259  Biso   1.000  O
  C42      1.0000 0.50985  0.47543  0.90294  Biso   1.000  C
  O12      1.0000 0.47635  0.31906  0.90144  Biso   1.000  O
  O13      1.0000 0.96745  0.56243  0.88097  Biso   1.000  O
  H34      1.0000 0.11064  0.58537  0.86131  Biso   1.000  H
  H35      1.0000 0.13030  0.46136  0.88032  Biso   1.000  H
  O14      1.0000 0.80717  0.91575  0.87201  Biso   1.000  O
  H36      1.0000 0.94564  0.93649  0.87724  Biso   1.000  H
  H37      1.0000 0.95874  0.81204  0.88794  Biso   1.000  H
  C43      1.0000 0.58455  0.60183  0.95161  Biso   1.000  C
  H38      1.0000 0.54779  0.44191  0.93191  Biso   1.000  H
  C44      1.0000 0.43787  0.25472  0.87701  Biso   1.000  C
  C45      1.0000 0.94784  0.57974  0.93353  Biso   1.000  C
  C46      1.0000 0.75318  0.94040  0.92291  Biso   1.000  C
  H39      1.0000 0.51857  0.60477  0.97804  Biso   1.000  H
  H40      1.0000 0.64336  0.52532  0.95122  Biso   1.000  H
  C47      1.0000 0.63414  0.67782  0.96342  Biso   1.000  C
  H41      1.0000 0.35361  0.29182  0.87732  Biso   1.000  H
  H42      1.0000 0.47542  0.24538  0.84081  Biso   1.000  H
  C48      1.0000 0.46861  0.14486  0.90621  Biso   1.000  C
  C49      1.0000 0.83222  0.58001  0.95772  Biso   1.000  C
  H43      1.0000 0.94948  0.65097  0.93814  Biso   1.000  H
  H44      1.0000 0.00934  0.52104  0.95072  Biso   1.000  H
  C50      1.0000 0.62541  0.98579  0.92564  Biso   1.000  C
  H45      1.0000 0.77923  0.87303  0.94584  Biso   1.000  H
  H46      1.0000 0.77506  0.99472  0.93491  Biso   1.000  H
  O15      1.0000 0.74546  0.66052  0.93649  Biso   1.000  O
  H47      1.0000 0.58092  0.75432  0.95534  Biso   1.000  H
  H48      1.0000 0.63778  0.67005  0.00081  Biso   1.000  H
  O16      1.0000 0.58916  0.08926  0.89917  Biso   1.000  O
  H49      1.0000 0.43406  0.10172  0.89321  Biso   1.000  H
  H50      1.0000 0.43893  0.15475  0.94322  Biso   1.000  H
  H51      1.0000 0.82084  0.58962  0.99504  Biso   1.000  H
  H52      1.0000 0.83141  0.50826  0.95334  Biso   1.000  H
  H53      1.0000 0.58848  0.99259  0.96192  Biso   1.000  H
  H54      1.0000 0.60352  0.93614  0.90971  Biso   1.000  H
  C51      1.0000 0.49704  0.34675  0.48032  Biso   1.000  C
  C52      1.0000 0.40670  0.42386  0.45613  Biso   1.000  C
  C53      1.0000 0.53339  0.23506  0.47871  Biso   1.000  C
  H55      1.0000 0.53588  0.37288  0.49891  Biso   1.000  H
  C54      1.0000 0.35027  0.38826  0.43000  Biso   1.000  C
  H56      1.0000 0.38523  0.50019  0.45801  Biso   1.000  H
  C55      1.0000 0.47255  0.20470  0.45332  Biso   1.000  C
  C56      1.0000 0.63348  0.15348  0.50391  Biso   1.000  C
  O17      1.0000 0.26095  0.45571  0.40442  Biso   1.000  O
  C57      1.0000 0.38215  0.27626  0.42893  Biso   1.000  C
  O18      1.0000 0.51298  0.09263  0.44093  Biso   1.000  O
  C58      1.0000 0.68819  0.04527  0.47702  Biso   1.000  C
  C59      1.0000 0.74999  0.16599  0.48309  Biso   1.000  C
  C60      1.0000 0.60565  0.14394  0.56212  Biso   1.000  C
  C61      1.0000 0.24365  0.56518  0.39222  Biso   1.000  C
  H57      1.0000 0.34217  0.24951  0.41142  Biso   1.000  H
  C62      1.0000 0.61918  0.01151  0.45062  Biso   1.000  C
  C63      1.0000 0.77927  0.08384  0.44243  Biso   1.000  C
  H58      1.0000 0.72785  0.98439  0.50183  Biso   1.000  H
  C64      1.0000 0.74619  0.27836  0.46740  Biso   1.000  C
  H59      1.0000 0.80320  0.13124  0.50941  Biso   1.000  H
  H60      1.0000 0.54634  0.11496  0.57162  Biso   1.000  H
  H61      1.0000 0.57767  0.21659  0.57570  Biso   1.000  H
  H62      1.0000 0.67513  0.09410  0.57662  Biso   1.000  H
  C65      1.0000 0.15513  0.61649  0.35671  Biso   1.000  C
  H63      1.0000 0.31686  0.56924  0.37541  Biso   1.000  H
  H64      1.0000 0.21771  0.60565  0.42400  Biso   1.000  H
  O19      1.0000 0.63205  0.92247  0.44481  Biso   1.000  O
  C66      1.0000 0.73956  0.14356  0.39265  Biso   1.000  C
  C67      1.0000 0.90129  0.99374  0.43462  Biso   1.000  C
  O20      1.0000 0.77190  0.33099  0.48902  Biso   1.000  O
  O21      1.0000 0.73220  0.31139  0.41542  Biso   1.000  O
  C68      1.0000 0.10148  0.55771  0.34032  Biso   1.000  C
  C69      1.0000 0.12818  0.72456  0.34002  Biso   1.000  C
  C70      1.0000 0.72809  0.24567  0.37903  Biso   1.000  C
  C71      1.0000 0.71193  0.09605  0.35752  Biso   1.000  C
  H65      1.0000 0.95411  0.02536  0.41573  Biso   1.000  H
  H66      1.0000 0.92523  0.96219  0.46813  Biso   1.000  H
  H67      1.0000 0.90262  0.93620  0.41492  Biso   1.000  H
  H68      1.0000 0.12074  0.48267  0.35121  Biso   1.000  H
  C72      1.0000 0.02076  0.61006  0.30832  Biso   1.000  C
  C73      1.0000 0.04709  0.77535  0.30731  Biso   1.000  C
  H69      1.0000 0.16525  0.76410  0.35090  Biso   1.000  H
  C74      1.0000 0.69261  0.30105  0.33390  Biso   1.000  C
  C75      1.0000 0.67052  0.14924  0.31282  Biso   1.000  C
  H70      1.0000 0.72179  0.02168  0.36429  Biso   1.000  H
  O22      1.0000 0.95937  0.56320  0.29031  Biso   1.000  O
  C76      1.0000 0.99268  0.71878  0.29162  Biso   1.000  C
  O23      1.0000 0.01574  0.88231  0.28696  Biso   1.000  O
  C77      1.0000 0.65820  0.25451  0.30151  Biso   1.000  C
  H71      1.0000 0.69208  0.37220  0.32532  Biso   1.000  H
  H72      1.0000 0.65089  0.11280  0.29019  Biso   1.000  H
  C78      1.0000 0.98957  0.44756  0.30201  Biso   1.000  C
  H73      1.0000 0.93599  0.75416  0.26950  Biso   1.000  H
  C79      1.0000 0.07459  0.94406  0.29862  Biso   1.000  C
  O24      1.0000 0.61786  0.30536  0.25645  Biso   1.000  O
  H74      1.0000 0.07119  0.40542  0.28831  Biso   1.000  H
  H75      1.0000 0.97930  0.43236  0.33982  Biso   1.000  H
  C80      1.0000 0.91490  0.41337  0.27842  Biso   1.000  C
  H76      1.0000 0.15802  0.90660  0.28681  Biso   1.000  H
  H77      1.0000 0.06274  0.95118  0.33621  Biso   1.000  H
  C81      1.0000 0.02655  0.05533  0.27131  Biso   1.000  C
  C82      1.0000 0.65368  0.38156  0.23102  Biso   1.000  C
  O25      1.0000 0.94271  0.40426  0.22518  Biso   1.000  O
  H78      1.0000 0.91901  0.34157  0.29481  Biso   1.000  H
  H79      1.0000 0.83438  0.46741  0.28612  Biso   1.000  H
  H80      1.0000 0.94158  0.08739  0.27850  Biso   1.000  H
  O26      1.0000 0.06297  0.04282  0.21841  Biso   1.000  O
  H81      1.0000 0.05452  0.10514  0.28342  Biso   1.000  H
  C83      1.0000 0.59860  0.42771  0.18301  Biso   1.000  C
  H82      1.0000 0.70655  0.40341  0.24191  Biso   1.000  H
  C84      1.0000 0.89831  0.50182  0.19540  Biso   1.000  C
  C85      1.0000 0.02267  0.14170  0.18790  Biso   1.000  C
  C86      1.0000 0.55294  0.37255  0.15989  Biso   1.000  C
  C87      1.0000 0.59119  0.53268  0.16351  Biso   1.000  C
  C88      1.0000 0.91593  0.47329  0.14019  Biso   1.000  C
  H83      1.0000 0.86321  0.57358  0.20760  Biso   1.000  H
  H84      1.0000 0.93792  0.17190  0.19090  Biso   1.000  H
  C89      1.0000 0.07375  0.12004  0.13411  Biso   1.000  C
  H85      1.0000 0.04397  0.19637  0.19982  Biso   1.000  H
  C90      1.0000 0.49818  0.42166  0.11642  Biso   1.000  C
  H86      1.0000 0.55819  0.30178  0.17332  Biso   1.000  H
  C91      1.0000 0.53798  0.57950  0.12061  Biso   1.000  C
  H87      1.0000 0.62247  0.57083  0.17970  Biso   1.000  H
  O27      1.0000 0.03249  0.43748  0.11907  Biso   1.000  O
  H88      1.0000 0.88927  0.41462  0.13869  Biso   1.000  H
  H89      1.0000 0.86962  0.53863  0.11969  Biso   1.000  H
  O28      1.0000 0.19275  0.08424  0.12800  Biso   1.000  O
  H90      1.0000 0.05430  0.06342  0.12280  Biso   1.000  H
  H91      1.0000 0.04117  0.18795  0.11211  Biso   1.000  H
  O29      1.0000 0.45156  0.36279  0.09745  Biso   1.000  O
  C92      1.0000 0.49009  0.52447  0.09710  Biso   1.000  C
  O30      1.0000 0.52357  0.68093  0.09857  Biso   1.000  O
  C93      1.0000 0.05210  0.42017  0.06652  Biso   1.000  C
  C94      1.0000 0.24678  0.05952  0.07710  Biso   1.000  C
  C95      1.0000 0.41541  0.39808  0.04840  Biso   1.000  C
  H92      1.0000 0.45217  0.55801  0.06810  Biso   1.000  H
  C96      1.0000 0.56208  0.74519  0.12300  Biso   1.000  C
  H93      1.0000 0.05035  0.34902  0.06190  Biso   1.000  H
  C97      1.0000 0.16765  0.41990  0.04232  Biso   1.000  C
  H94      1.0000 0.99061  0.47887  0.04928  Biso   1.000  H
  C98      1.0000 0.37453  0.01411  0.07441  Biso   1.000  C
  H95      1.0000 0.22071  0.12688  0.05421  Biso   1.000  H
  H96      1.0000 0.22489  0.00519  0.06509  Biso   1.000  H
  C99      1.0000 0.36581  0.32209  0.03659  Biso   1.000  C
  H97      1.0000 0.48126  0.39522  0.02201  Biso   1.000  H
  H98      1.0000 0.35660  0.47459  0.04878  Biso   1.000  H
  C100     1.0000 0.53131  0.85514  0.09379  Biso   1.000  C
  H99      1.0000 0.64627  0.70810  0.12269  Biso   1.000  H
  H100     1.0000 0.52450  0.75462  0.15920  Biso   1.000  H
  O31      1.0000 0.25448  0.33939  0.06356  Biso   1.000  O
  H101     1.0000 0.17910  0.41029  0.00500  Biso   1.000  H
  H102     1.0000 0.16850  0.49173  0.04671  Biso   1.000  H
  O32      1.0000 0.41075  0.91074  0.10084  Biso   1.000  O
  H103     1.0000 0.41148  0.00732  0.03809  Biso   1.000  H
  H104     1.0000 0.39644  0.06378  0.09029  Biso   1.000  H
  H105     1.0000 0.41903  0.24558  0.04470  Biso   1.000  H
  H106     1.0000 0.36216  0.32986  0.99923  Biso   1.000  H
  H107     1.0000 0.56590  0.89819  0.10680  Biso   1.000  H
  H108     1.0000 0.56099  0.84524  0.05678  Biso   1.000  H
