data_image0
_cell_length_a       10.651
_cell_length_b       16.43
_cell_length_c       17.82
_cell_angle_alpha    76.57
_cell_angle_beta     79.34
_cell_angle_gamma    85.85

_symmetry_space_group_name_H-M    "P 1"
_symmetry_int_tables_number       1

loop_
  _symmetry_equiv_pos_as_xyz
  'x, y, z'

loop_
  _atom_site_label
  _atom_site_occupancy
  _atom_site_fract_x
  _atom_site_fract_y
  _atom_site_fract_z
  _atom_site_thermal_displace_type
  _atom_site_B_iso_or_equiv
  _atom_site_type_symbol
  O1       1.0000 0.64497  0.34155  0.51733  Biso   1.000  O
  C1       1.0000 0.69519  0.32010  0.44381  Biso   1.000  C
  C2       1.0000 0.60084  0.27716  0.57849  Biso   1.000  C
  H1       1.0000 0.75097  0.27069  0.45190  Biso   1.000  H
  H2       1.0000 0.62578  0.30788  0.42009  Biso   1.000  H
  C3       1.0000 0.76849  0.39230  0.39085  Biso   1.000  C
  C4       1.0000 0.60585  0.19338  0.57462  Biso   1.000  C
  C5       1.0000 0.54893  0.29956  0.64955  Biso   1.000  C
  O2       1.0000 0.88181  0.39954  0.42009  Biso   1.000  O
  H3       1.0000 0.71674  0.44355  0.38910  Biso   1.000  H
  H4       1.0000 0.79026  0.38297  0.33813  Biso   1.000  H
  H5       1.0000 0.63801  0.17829  0.52741  Biso   1.000  H
  C6       1.0000 0.56327  0.13205  0.64088  Biso   1.000  C
  O3       1.0000 0.54572  0.38337  0.64820  Biso   1.000  O
  C7       1.0000 0.50741  0.23748  0.71510  Biso   1.000  C
  C8       1.0000 0.97295  0.45008  0.36250  Biso   1.000  C
  C9       1.0000 0.51661  0.15320  0.71182  Biso   1.000  C
  H6       1.0000 0.56623  0.07629  0.63748  Biso   1.000  H
  C10      1.0000 0.46404  0.41342  0.71047  Biso   1.000  C
  H7       1.0000 0.47272  0.25226  0.76209  Biso   1.000  H
  H8       1.0000 0.92889  0.49535  0.33110  Biso   1.000  H
  C11      1.0000 0.06410  0.48564  0.40040  Biso   1.000  C
  H9       1.0000 0.02037  0.41648  0.32788  Biso   1.000  H
  C12      1.0000 0.47025  0.08827  0.78341  Biso   1.000  C
  C13      1.0000 0.51286  0.49519  0.71405  Biso   1.000  C
  H10      1.0000 0.37691  0.42086  0.70052  Biso   1.000  H
  H11      1.0000 0.46465  0.37343  0.75992  Biso   1.000  H
  O4       1.0000 0.12847  0.41968  0.44797  Biso   1.000  O
  H12      1.0000 0.01752  0.52204  0.43251  Biso   1.000  H
  H13      1.0000 0.12630  0.51875  0.36039  Biso   1.000  H
  O5       1.0000 0.57823  0.05462  0.82342  Biso   1.000  O
  H14      1.0000 0.43221  0.04344  0.76900  Biso   1.000  H
  H15      1.0000 0.40537  0.11265  0.81832  Biso   1.000  H
  O6       1.0000 0.62543  0.47671  0.74803  Biso   1.000  O
  H16      1.0000 0.44921  0.52405  0.74580  Biso   1.000  H
  H17      1.0000 0.53227  0.53064  0.66191  Biso   1.000  H
  C14      1.0000 0.22827  0.45124  0.47603  Biso   1.000  C
  C15      1.0000 0.54368  0.99495  0.88803  Biso   1.000  C
  C16      1.0000 0.68416  0.54883  0.75371  Biso   1.000  C
  H18      1.0000 0.29533  0.47295  0.43262  Biso   1.000  H
  H19      1.0000 0.19481  0.49645  0.50140  Biso   1.000  H
  C17      1.0000 0.28111  0.38188  0.53297  Biso   1.000  C
  O7       1.0000 0.43387  0.97591  0.91387  Biso   1.000  O
  C18      1.0000 0.65245  0.95168  0.92564  Biso   1.000  C
  H20      1.0000 0.73028  0.57565  0.70268  Biso   1.000  H
  H21      1.0000 0.61943  0.58837  0.77111  Biso   1.000  H
  C19      1.0000 0.77473  0.52445  0.81112  Biso   1.000  C
  O8       1.0000 0.19328  0.36802  0.60638  Biso   1.000  O
  H22      1.0000 0.36370  0.39655  0.54053  Biso   1.000  H
  H23      1.0000 0.29219  0.33123  0.51300  Biso   1.000  H
  N1       1.0000 0.77004  0.98221  0.90051  Biso   1.000  N
  C20      1.0000 0.62494  0.87991  0.98399  Biso   1.000  C
  O9       1.0000 0.85991  0.45935  0.79085  Biso   1.000  O
  H24      1.0000 0.72690  0.50552  0.86361  Biso   1.000  H
  H25      1.0000 0.82295  0.57254  0.81059  Biso   1.000  H
  C21      1.0000 0.18870  0.29006  0.65535  Biso   1.000  C
  C22      1.0000 0.86302  0.93916  0.93566  Biso   1.000  C
  H26      1.0000 0.54136  0.86214  0.00016  Biso   1.000  H
  C23      1.0000 0.72265  0.83536  0.01773  Biso   1.000  C
  C24      1.0000 0.96270  0.44421  0.83461  Biso   1.000  C
  C25      1.0000 0.12940  0.28720  0.73332  Biso   1.000  C
  C26      1.0000 0.23148  0.21619  0.63297  Biso   1.000  C
  C27      1.0000 0.99770  0.96906  0.91141  Biso   1.000  C
  C28      1.0000 0.84456  0.86548  0.99307  Biso   1.000  C
  H27      1.0000 0.70697  0.78631  0.05605  Biso   1.000  H
  H28      1.0000 0.93028  0.44562  0.88880  Biso   1.000  H
  C29      1.0000 0.02482  0.36061  0.82998  Biso   1.000  C
  H29      1.0000 0.02507  0.48753  0.81340  Biso   1.000  H
  O10      1.0000 0.08447  0.36248  0.75031  Biso   1.000  O
  C30      1.0000 0.11800  0.21092  0.78704  Biso   1.000  C
  H30      1.0000 0.27116  0.21759  0.58160  Biso   1.000  H
  C31      1.0000 0.21544  0.13966  0.68722  Biso   1.000  C
  O11      1.0000 0.08172  0.93640  0.94597  Biso   1.000  O
  O12      1.0000 0.01475  0.03301  0.84902  Biso   1.000  O
  H31      1.0000 0.91287  0.83721  0.01434  Biso   1.000  H
  H32      1.0000 0.96134  0.31766  0.84732  Biso   1.000  H
  H33      1.0000 0.08855  0.34745  0.86390  Biso   1.000  H
  H34      1.0000 0.08225  0.20935  0.83912  Biso   1.000  H
  C32      1.0000 0.15958  0.13630  0.76396  Biso   1.000  C
  H35      1.0000 0.24269  0.09025  0.67128  Biso   1.000  H
  C33      1.0000 0.14986  0.05479  0.82295  Biso   1.000  C
  H36      1.0000 0.18725  0.05913  0.86741  Biso   1.000  H
  H37      1.0000 0.19672  0.01113  0.79981  Biso   1.000  H
  O13      1.0000 0.35519  0.65843  0.48265  Biso   1.000  O
  C34      1.0000 0.39942  0.72276  0.42149  Biso   1.000  C
  C35      1.0000 0.30498  0.67982  0.55617  Biso   1.000  C
  C36      1.0000 0.45131  0.70040  0.35049  Biso   1.000  C
  C37      1.0000 0.39431  0.80660  0.42536  Biso   1.000  C
  H38      1.0000 0.24920  0.72928  0.54809  Biso   1.000  H
  H39      1.0000 0.37439  0.69203  0.57990  Biso   1.000  H
  C38      1.0000 0.23166  0.60760  0.60919  Biso   1.000  C
  O14      1.0000 0.45445  0.61655  0.35178  Biso   1.000  O
  C39      1.0000 0.49276  0.76244  0.28488  Biso   1.000  C
  H40      1.0000 0.36213  0.82168  0.47263  Biso   1.000  H
  C40      1.0000 0.43688  0.86786  0.35916  Biso   1.000  C
  O15      1.0000 0.11836  0.60037  0.57990  Biso   1.000  O
  H41      1.0000 0.28343  0.55637  0.61089  Biso   1.000  H
  H42      1.0000 0.20989  0.61693  0.66191  Biso   1.000  H
  C41      1.0000 0.53613  0.58650  0.28951  Biso   1.000  C
  C42      1.0000 0.48354  0.84671  0.28822  Biso   1.000  C
  H43      1.0000 0.52745  0.74765  0.23790  Biso   1.000  H
  H44      1.0000 0.43393  0.92369  0.36250  Biso   1.000  H
  C43      1.0000 0.02720  0.54982  0.63754  Biso   1.000  C
  C44      1.0000 0.48740  0.50472  0.28594  Biso   1.000  C
  H45      1.0000 0.62324  0.57904  0.29953  Biso   1.000  H
  H46      1.0000 0.53559  0.62647  0.24013  Biso   1.000  H
  C45      1.0000 0.53000  0.91171  0.21658  Biso   1.000  C
  H47      1.0000 0.07126  0.50455  0.66894  Biso   1.000  H
  C46      1.0000 0.93606  0.51426  0.59964  Biso   1.000  C
  H48      1.0000 0.97980  0.58344  0.67210  Biso   1.000  H
  O16      1.0000 0.37474  0.52320  0.25196  Biso   1.000  O
  H49      1.0000 0.55096  0.47587  0.25418  Biso   1.000  H
  H50      1.0000 0.46789  0.46926  0.33813  Biso   1.000  H
  O17      1.0000 0.42192  0.94529  0.17662  Biso   1.000  O
  H51      1.0000 0.56796  0.95648  0.23099  Biso   1.000  H
  H52      1.0000 0.59478  0.88726  0.18172  Biso   1.000  H
  O18      1.0000 0.87170  0.58024  0.55201  Biso   1.000  O
  H53      1.0000 0.98263  0.47786  0.56754  Biso   1.000  H
  H54      1.0000 0.87387  0.48117  0.63959  Biso   1.000  H
  C47      1.0000 0.31601  0.45109  0.24628  Biso   1.000  C
  C48      1.0000 0.45649  0.00496  0.11195  Biso   1.000  C
  C49      1.0000 0.77190  0.54867  0.52395  Biso   1.000  C
  H55      1.0000 0.26988  0.42427  0.29730  Biso   1.000  H
  H56      1.0000 0.38073  0.41161  0.22888  Biso   1.000  H
  C50      1.0000 0.22543  0.47547  0.18887  Biso   1.000  C
  O19      1.0000 0.56628  0.02399  0.08617  Biso   1.000  O
  C51      1.0000 0.34772  0.04823  0.07434  Biso   1.000  C
  C52      1.0000 0.71904  0.61802  0.46707  Biso   1.000  C
  H57      1.0000 0.70491  0.52695  0.56742  Biso   1.000  H
  H58      1.0000 0.80536  0.50347  0.49859  Biso   1.000  H
  O20      1.0000 0.14026  0.54056  0.20914  Biso   1.000  O
  H59      1.0000 0.27327  0.49440  0.13638  Biso   1.000  H
  H60      1.0000 0.17722  0.42738  0.18939  Biso   1.000  H
  N2       1.0000 0.23011  0.01769  0.09953  Biso   1.000  N
  C53      1.0000 0.37523  0.12001  0.01599  Biso   1.000  C
  O21      1.0000 0.80689  0.63189  0.39361  Biso   1.000  O
  H61      1.0000 0.63646  0.60335  0.45951  Biso   1.000  H
  H62      1.0000 0.70798  0.66868  0.48699  Biso   1.000  H
  C54      1.0000 0.03746  0.55569  0.16543  Biso   1.000  C
  C55      1.0000 0.13713  0.06074  0.06438  Biso   1.000  C
  H63      1.0000 0.45878  0.13783  0.99988  Biso   1.000  H
  C56      1.0000 0.27750  0.16454  0.98231  Biso   1.000  C
  C57      1.0000 0.81145  0.70984  0.34469  Biso   1.000  C
  H64      1.0000 0.06989  0.55430  0.11119  Biso   1.000  H
  C58      1.0000 0.97533  0.63935  0.17006  Biso   1.000  C
  H65      1.0000 0.97519  0.51238  0.18658  Biso   1.000  H
  C59      1.0000 0.00245  0.03091  0.08863  Biso   1.000  C
  C60      1.0000 0.15561  0.13444  0.00691  Biso   1.000  C
  H66      1.0000 0.29320  0.21360  0.94394  Biso   1.000  H
  C61      1.0000 0.87075  0.71270  0.26672  Biso   1.000  C
  C62      1.0000 0.76868  0.78371  0.36707  Biso   1.000  C
  H67      1.0000 0.03881  0.68230  0.15272  Biso   1.000  H
  O22      1.0000 0.91579  0.63744  0.24967  Biso   1.000  O
  H68      1.0000 0.91162  0.65246  0.13608  Biso   1.000  H
  O23      1.0000 0.98540  0.96689  0.15102  Biso   1.000  O
  O24      1.0000 0.91855  0.06352  0.05401  Biso   1.000  O
  H69      1.0000 0.08730  0.16270  0.98565  Biso   1.000  H
  C63      1.0000 0.88217  0.78900  0.21294  Biso   1.000  C
  C64      1.0000 0.78471  0.86030  0.31282  Biso   1.000  C
  H70      1.0000 0.72900  0.78239  0.41839  Biso   1.000  H
  C65      1.0000 0.85039  0.94511  0.17709  Biso   1.000  C
  H71      1.0000 0.91790  0.79055  0.16092  Biso   1.000  H
  C66      1.0000 0.84057  0.86360  0.23608  Biso   1.000  C
  H72      1.0000 0.75748  0.90967  0.32870  Biso   1.000  H
  H73      1.0000 0.81290  0.94077  0.13263  Biso   1.000  H
  H74      1.0000 0.80343  0.98878  0.20023  Biso   1.000  H
  Ne1      1.0000 0.16182  0.76259  0.28542  Biso   1.000  Ne
  He1      1.0000 0.16930  0.83097  0.26281  Biso   1.000  He
  He2      1.0000 0.12561  0.69850  0.35880  Biso   1.000  He
  He3      1.0000 0.18579  0.75398  0.25451  Biso   1.000  He
  Ar1      1.0000 0.17101  0.81275  0.27086  Biso   1.000  Ar
  Ne2      1.0000 0.83836  0.23733  0.71459  Biso   1.000  Ne
  He4      1.0000 0.78784  0.20351  0.79556  Biso   1.000  He
  He5      1.0000 0.88439  0.12714  0.67698  Biso   1.000  He
  He6      1.0000 0.91505  0.28245  0.58661  Biso   1.000  He
  Ar2      1.0000 0.88121  0.16508  0.67065  Biso   1.000  Ar
