data_image0
_cell_length_a       13.401
_cell_length_b       19.157
_cell_length_c       28.489
_cell_angle_alpha    90
_cell_angle_beta     90
_cell_angle_gamma    90

_symmetry_space_group_name_H-M    "P 1"
_symmetry_int_tables_number       1

loop_
  _symmetry_equiv_pos_as_xyz
  'x, y, z'

loop_
  _atom_site_label
  _atom_site_occupancy
  _atom_site_fract_x
  _atom_site_fract_y
  _atom_site_fract_z
  _atom_site_thermal_displace_type
  _atom_site_B_iso_or_equiv
  _atom_site_type_symbol
  C1       1.0000 0.50563  0.39500  0.50170  Biso   1.000  C
  C2       1.0000 0.40460  0.38602  0.48370  Biso   1.000  C
  C3       1.0000 0.52750  0.34630  0.54151  Biso   1.000  C
  H1       1.0000 0.51190  0.44302  0.51329  Biso   1.000  H
  O1       1.0000 0.58100  0.38461  0.46390  Biso   1.000  O
  O2       1.0000 0.38908  0.43712  0.44740  Biso   1.000  O
  H2       1.0000 0.39743  0.33899  0.47050  Biso   1.000  H
  C4       1.0000 0.32983  0.39630  0.52269  Biso   1.000  C
  C5       1.0000 0.44594  0.35621  0.57921  Biso   1.000  C
  H3       1.0000 0.52481  0.29822  0.52989  Biso   1.000  H
  O3       1.0000 0.62242  0.35898  0.55969  Biso   1.000  O
  H4       1.0000 0.56011  0.40132  0.43929  Biso   1.000  H
  C6       1.0000 0.35870  0.41499  0.40180  Biso   1.000  C
  H5       1.0000 0.33602  0.44391  0.53491  Biso   1.000  H
  O4       1.0000 0.35072  0.34818  0.55920  Biso   1.000  O
  C7       1.0000 0.22827  0.38378  0.51020  Biso   1.000  C
  H6       1.0000 0.45482  0.32072  0.60371  Biso   1.000  H
  O5       1.0000 0.45922  0.42298  0.59939  Biso   1.000  O
  H7       1.0000 0.61883  0.38879  0.58029  Biso   1.000  H
  O6       1.0000 0.25640  0.42872  0.39401  Biso   1.000  O
  H8       1.0000 0.36923  0.36451  0.39949  Biso   1.000  H
  C8       1.0000 0.42340  0.44960  0.36670  Biso   1.000  C
  H9       1.0000 0.18730  0.38701  0.53821  Biso   1.000  H
  H10      1.0000 0.20663  0.41990  0.48861  Biso   1.000  H
  O7       1.0000 0.21372  0.32020  0.48991  Biso   1.000  O
  C9       1.0000 0.47720  0.42888  0.64881  Biso   1.000  C
  C10      1.0000 0.23192  0.50128  0.39570  Biso   1.000  C
  H11      1.0000 0.40960  0.42882  0.33588  Biso   1.000  H
  O8       1.0000 0.52511  0.43900  0.37709  Biso   1.000  O
  C11      1.0000 0.39893  0.52968  0.36400  Biso   1.000  C
  H12      1.0000 0.15417  0.31498  0.48419  Biso   1.000  H
  C12      1.0000 0.55959  0.47941  0.65309  Biso   1.000  C
  H13      1.0000 0.49847  0.38362  0.66120  Biso   1.000  H
  C13      1.0000 0.38258  0.45158  0.67321  Biso   1.000  C
  C14      1.0000 0.29102  0.54132  0.36031  Biso   1.000  C
  H14      1.0000 0.25140  0.51850  0.42680  Biso   1.000  H
  C15      1.0000 0.11768  0.50681  0.39250  Biso   1.000  C
  H15      1.0000 0.55279  0.42120  0.35442  Biso   1.000  H
  H16      1.0000 0.42183  0.55139  0.39320  Biso   1.000  H
  O9       1.0000 0.45228  0.56079  0.32651  Biso   1.000  O
  C16      1.0000 0.57861  0.49742  0.70571  Biso   1.000  C
  H17      1.0000 0.54153  0.52232  0.63639  Biso   1.000  H
  O10      1.0000 0.64973  0.45388  0.63502  Biso   1.000  O
  H18      1.0000 0.35938  0.49481  0.65829  Biso   1.000  H
  O11      1.0000 0.40579  0.46709  0.72210  Biso   1.000  O
  C17      1.0000 0.30140  0.40032  0.67100  Biso   1.000  C
  H19      1.0000 0.26953  0.52649  0.32900  Biso   1.000  H
  O12      1.0000 0.27498  0.61461  0.36400  Biso   1.000  O
  H20      1.0000 0.08708  0.47821  0.41662  Biso   1.000  H
  H21      1.0000 0.09701  0.55478  0.39731  Biso   1.000  H
  O13      1.0000 0.08731  0.48411  0.34842  Biso   1.000  O
  H22      1.0000 0.42377  0.59660  0.31819  Biso   1.000  H
  C18      1.0000 0.48064  0.51840  0.72891  Biso   1.000  C
  H23      1.0000 0.60451  0.45581  0.72161  Biso   1.000  H
  O14      1.0000 0.64891  0.55170  0.71048  Biso   1.000  O
  H24      1.0000 0.63801  0.42538  0.61420  Biso   1.000  H
  H25      1.0000 0.28222  0.39281  0.63860  Biso   1.000  H
  H26      1.0000 0.24371  0.41802  0.68791  Biso   1.000  H
  O15      1.0000 0.33371  0.33398  0.69192  Biso   1.000  O
  C19      1.0000 0.20939  0.65088  0.33480  Biso   1.000  C
  H27      1.0000 0.04522  0.51109  0.33788  Biso   1.000  H
  H28      1.0000 0.49161  0.52461  0.76261  Biso   1.000  H
  O16      1.0000 0.44773  0.58250  0.70929  Biso   1.000  O
  H29      1.0000 0.62137  0.58642  0.72130  Biso   1.000  H
  H30      1.0000 0.38012  0.34118  0.71010  Biso   1.000  H
  H31      1.0000 0.19051  0.62129  0.30819  Biso   1.000  H
  C20      1.0000 0.27237  0.71587  0.31661  Biso   1.000  C
  O17      1.0000 0.12492  0.67411  0.35751  Biso   1.000  O
  C21      1.0000 0.42251  0.63752  0.74081  Biso   1.000  C
  H32      1.0000 0.23080  0.74150  0.29418  Biso   1.000  H
  O18      1.0000 0.35870  0.69270  0.29229  Biso   1.000  O
  C22      1.0000 0.29393  0.76291  0.35589  Biso   1.000  C
  C23      1.0000 0.14417  0.71660  0.39840  Biso   1.000  C
  C24      1.0000 0.49064  0.69771  0.73081  Biso   1.000  C
  H33      1.0000 0.43161  0.62191  0.77332  Biso   1.000  H
  C25      1.0000 0.31453  0.65678  0.73270  Biso   1.000  C
  H34      1.0000 0.37893  0.65631  0.30419  Biso   1.000  H
  H35      1.0000 0.33923  0.73921  0.37769  Biso   1.000  H
  O19      1.0000 0.34288  0.82362  0.33788  Biso   1.000  O
  C26      1.0000 0.20267  0.78259  0.38141  Biso   1.000  C
  H36      1.0000 0.18760  0.69009  0.41960  Biso   1.000  H
  C27      1.0000 0.04761  0.72919  0.42279  Biso   1.000  C
  C28      1.0000 0.45780  0.76421  0.75742  Biso   1.000  C
  H37      1.0000 0.49101  0.70710  0.69701  Biso   1.000  H
  O20      1.0000 0.59011  0.68059  0.74590  Biso   1.000  O
  H38      1.0000 0.30341  0.66420  0.69901  Biso   1.000  H
  O21      1.0000 0.28908  0.71911  0.75780  Biso   1.000  O
  C29      1.0000 0.24110  0.60171  0.75082  Biso   1.000  C
  H39      1.0000 0.35311  0.85118  0.35930  Biso   1.000  H
  H40      1.0000 0.15976  0.81109  0.36119  Biso   1.000  H
  O22      1.0000 0.22789  0.82132  0.42329  Biso   1.000  O
  H41      1.0000 0.01172  0.68549  0.42620  Biso   1.000  H
  H42      1.0000 0.05977  0.74793  0.45389  Biso   1.000  H
  O23      1.0000 0.98940  0.77710  0.39629  Biso   1.000  O
  C30      1.0000 0.35162  0.77862  0.74611  Biso   1.000  C
  H43      1.0000 0.46340  0.75549  0.79118  Biso   1.000  H
  O24      1.0000 0.51287  0.82268  0.74650  Biso   1.000  O
  H44      1.0000 0.60607  0.64248  0.73530  Biso   1.000  H
  H45      1.0000 0.25782  0.55719  0.73660  Biso   1.000  H
  H46      1.0000 0.25013  0.59701  0.78441  Biso   1.000  H
  O25      1.0000 0.14268  0.61539  0.74211  Biso   1.000  O
  C31      1.0000 0.19581  0.89069  0.42529  Biso   1.000  C
  C32      1.0000 0.90493  0.80268  0.41690  Biso   1.000  C
  H47      1.0000 0.32923  0.81918  0.76419  Biso   1.000  H
  O26      1.0000 0.34281  0.79339  0.69852  Biso   1.000  O
  H48      1.0000 0.55899  0.82670  0.76531  Biso   1.000  H
  H49      1.0000 0.10820  0.58412  0.75299  Biso   1.000  H
  H50      1.0000 0.17514  0.90479  0.39370  Biso   1.000  H
  C33      1.0000 0.28617  0.93893  0.44080  Biso   1.000  C
  O27      1.0000 0.11410  0.89690  0.45491  Biso   1.000  O
  C34      1.0000 0.86068  0.77470  0.45621  Biso   1.000  C
  C35      1.0000 0.86568  0.86151  0.39879  Biso   1.000  C
  C36      1.0000 0.28893  0.85598  0.68391  Biso   1.000  C
  H51      1.0000 0.26580  0.98789  0.43831  Biso   1.000  H
  O28      1.0000 0.36602  0.92739  0.41079  Biso   1.000  O
  C37      1.0000 0.30804  0.92191  0.49230  Biso   1.000  C
  C38      1.0000 0.13447  0.87639  0.50409  Biso   1.000  C
  H52      1.0000 0.88747  0.73461  0.46958  Biso   1.000  H
  C39      1.0000 0.77711  0.80498  0.47629  Biso   1.000  C
  C40      1.0000 0.78203  0.89179  0.41781  Biso   1.000  C
  H53      1.0000 0.89590  0.88198  0.37281  Biso   1.000  H
  C41      1.0000 0.36102  0.90009  0.65681  Biso   1.000  C
  C42      1.0000 0.20028  0.83322  0.65639  Biso   1.000  C
  H54      1.0000 0.26670  0.88161  0.71178  Biso   1.000  H
  H55      1.0000 0.34968  0.89931  0.39050  Biso   1.000  H
  H56      1.0000 0.33692  0.87508  0.49451  Biso   1.000  H
  O29      1.0000 0.37990  0.97270  0.50809  Biso   1.000  O
  C43      1.0000 0.21648  0.92650  0.52382  Biso   1.000  C
  H57      1.0000 0.15417  0.82732  0.50651  Biso   1.000  H
  C44      1.0000 0.02992  0.89158  0.53020  Biso   1.000  C
  H58      1.0000 0.74681  0.78540  0.50251  Biso   1.000  H
  C45      1.0000 0.73950  0.86590  0.45568  Biso   1.000  C
  H59      1.0000 0.75487  0.93120  0.40359  Biso   1.000  H
  C46      1.0000 0.30707  0.96268  0.63709  Biso   1.000  C
  H60      1.0000 0.38833  0.87247  0.63080  Biso   1.000  H
  O30      1.0000 0.44019  0.92368  0.68539  Biso   1.000  O
  O31      1.0000 0.15103  0.89878  0.63681  Biso   1.000  O
  H61      1.0000 0.22431  0.80540  0.62979  Biso   1.000  H
  C47      1.0000 0.12633  0.79261  0.68079  Biso   1.000  C
  H62      1.0000 0.43639  0.95709  0.50462  Biso   1.000  H
  H63      1.0000 0.19170  0.97447  0.52550  Biso   1.000  H
  O32      1.0000 0.24483  0.90202  0.56889  Biso   1.000  O
  H64      1.0000 0.03388  0.93710  0.54509  Biso   1.000  H
  O33      1.0000 0.00619  0.84940  0.55930  Biso   1.000  O
  H65      1.0000 0.97769  0.89398  0.50662  Biso   1.000  H
  Br1      1.0000 0.62271  0.90635  0.48299  Biso   1.000  Br
  C48      1.0000 0.21439  0.93898  0.60859  Biso   1.000  C
  H66      1.0000 0.28513  0.99238  0.66310  Biso   1.000  H
  O34      1.0000 0.37243  0.00261  0.60701  Biso   1.000  O
  H67      1.0000 0.47661  0.94952  0.67019  Biso   1.000  H
  O35      1.0000 0.09432  0.83202  0.72059  Biso   1.000  O
  O36      1.0000 0.04253  0.77282  0.64990  Biso   1.000  O
  H68      1.0000 0.04022  0.85488  0.58289  Biso   1.000  H
  H69      1.0000 0.17797  0.98069  0.59830  Biso   1.000  H
  H70      1.0000 0.37542  0.98397  0.58110  Biso   1.000  H
  C49      1.0000 0.52989  0.60839  0.46980  Biso   1.000  C
  C50      1.0000 0.63450  0.62358  0.49591  Biso   1.000  C
  H71      1.0000 0.53392  0.56288  0.45491  Biso   1.000  H
  H72      1.0000 0.47773  0.60599  0.49338  Biso   1.000  H
  O37      1.0000 0.50623  0.65062  0.44070  Biso   1.000  O
  C51      1.0000 0.71651  0.57352  0.47618  Biso   1.000  C
  H73      1.0000 0.65420  0.67270  0.49349  Biso   1.000  H
  O38      1.0000 0.61413  0.60312  0.54509  Biso   1.000  O
  H74      1.0000 0.54018  0.64509  0.41711  Biso   1.000  H
  O39      1.0000 0.74480  0.59801  0.43111  Biso   1.000  O
  C52      1.0000 0.80800  0.57812  0.50770  Biso   1.000  C
  H75      1.0000 0.69166  0.52550  0.47450  Biso   1.000  H
  C53      1.0000 0.69577  0.60928  0.57471  Biso   1.000  C
  C54      1.0000 0.71442  0.56100  0.39141  Biso   1.000  C
  C55      1.0000 0.78621  0.56110  0.55920  Biso   1.000  C
  H76      1.0000 0.83688  0.62489  0.50549  Biso   1.000  H
  O40      1.0000 0.87993  0.52727  0.49191  Biso   1.000  O
  H77      1.0000 0.67510  0.59519  0.60630  Biso   1.000  H
  O41      1.0000 0.72793  0.67871  0.57671  Biso   1.000  O
  O42      1.0000 0.65100  0.60119  0.36319  Biso   1.000  O
  H78      1.0000 0.67801  0.51929  0.40170  Biso   1.000  H
  C56      1.0000 0.80710  0.53730  0.36291  Biso   1.000  C
  H79      1.0000 0.76576  0.51208  0.56169  Biso   1.000  H
  O43      1.0000 0.86598  0.57258  0.58921  Biso   1.000  O
  H80      1.0000 0.93642  0.54288  0.49538  Biso   1.000  H
  C57      1.0000 0.70271  0.71739  0.61859  Biso   1.000  C
  C58      1.0000 0.70032  0.66681  0.34361  Biso   1.000  C
  H81      1.0000 0.78509  0.50760  0.33690  Biso   1.000  H
  O44      1.0000 0.87240  0.49742  0.39299  Biso   1.000  O
  C59      1.0000 0.86098  0.59989  0.34319  Biso   1.000  C
  H82      1.0000 0.84971  0.60072  0.60950  Biso   1.000  H
  C60      1.0000 0.79390  0.73712  0.64411  Biso   1.000  C
  H83      1.0000 0.65980  0.68889  0.63881  Biso   1.000  H
  C61      1.0000 0.64421  0.78342  0.60160  Biso   1.000  C
  C62      1.0000 0.78890  0.64399  0.31609  Biso   1.000  C
  H84      1.0000 0.72427  0.69458  0.37021  Biso   1.000  H
  C63      1.0000 0.62630  0.70742  0.31921  Biso   1.000  C
  H85      1.0000 0.87538  0.51600  0.41890  Biso   1.000  H
  H86      1.0000 0.88829  0.62750  0.36920  Biso   1.000  H
  O45      1.0000 0.94023  0.57629  0.31461  Biso   1.000  O
  C64      1.0000 0.77241  0.78410  0.68339  Biso   1.000  C
  H87      1.0000 0.83919  0.76082  0.62231  Biso   1.000  H
  O46      1.0000 0.84292  0.67641  0.66212  Biso   1.000  O
  H88      1.0000 0.68764  0.80989  0.58040  Biso   1.000  H
  O47      1.0000 0.62488  0.82591  0.64249  Biso   1.000  O
  C65      1.0000 0.54757  0.77079  0.57721  Biso   1.000  C
  H89      1.0000 0.76673  0.61842  0.28822  Biso   1.000  H
  O48      1.0000 0.84277  0.70658  0.30148  Biso   1.000  O
  O49      1.0000 0.59428  0.66801  0.27941  Biso   1.000  O
  O50      1.0000 0.54250  0.72720  0.35010  Biso   1.000  O
  H90      1.0000 0.97657  0.55050  0.32981  Biso   1.000  H
  C66      1.0000 0.70942  0.84909  0.66520  Biso   1.000  C
  H91      1.0000 0.73077  0.75852  0.70582  Biso   1.000  H
  O51      1.0000 0.85867  0.80728  0.70771  Biso   1.000  O
  H92      1.0000 0.85307  0.64880  0.64070  Biso   1.000  H
  H93      1.0000 0.51168  0.81448  0.57380  Biso   1.000  H
  H94      1.0000 0.55981  0.75210  0.54611  Biso   1.000  H
  O52      1.0000 0.48937  0.72292  0.60371  Biso   1.000  O
  C67      1.0000 0.85158  0.72141  0.25389  Biso   1.000  C
  H95      1.0000 0.69047  0.87869  0.69181  Biso   1.000  H
  O53      1.0000 0.77502  0.88542  0.63600  Biso   1.000  O
  H96      1.0000 0.87889  0.84371  0.69581  Biso   1.000  H
  C68      1.0000 0.40490  0.69729  0.58310  Biso   1.000  C
  H97      1.0000 0.82919  0.68080  0.23581  Biso   1.000  H
  C69      1.0000 0.95776  0.73581  0.24258  Biso   1.000  C
  O54      1.0000 0.78912  0.78092  0.24220  Biso   1.000  O
  C70      1.0000 0.79099  0.95871  0.63969  Biso   1.000  C
  C71      1.0000 0.36072  0.72532  0.54379  Biso   1.000  C
  C72      1.0000 0.36572  0.63851  0.60121  Biso   1.000  C
  H98      1.0000 0.96344  0.74448  0.20882  Biso   1.000  H
  C73      1.0000 0.99060  0.80232  0.26919  Biso   1.000  C
  O55      1.0000 0.01291  0.67730  0.25350  Biso   1.000  O
  C74      1.0000 0.81449  0.84319  0.26730  Biso   1.000  C
  C75      1.0000 0.89889  0.97030  0.63600  Biso   1.000  C
  H99      1.0000 0.76949  0.97348  0.67100  Biso   1.000  H
  C76      1.0000 0.73189  0.99869  0.60430  Biso   1.000  C
  H100     1.0000 0.38751  0.76541  0.53042  Biso   1.000  H
  C77      1.0000 0.27707  0.69499  0.52371  Biso   1.000  C
  C78      1.0000 0.28199  0.60818  0.58219  Biso   1.000  C
  H101     1.0000 0.39587  0.61800  0.62719  Biso   1.000  H
  H102     1.0000 0.99097  0.79292  0.30299  Biso   1.000  H
  C79      1.0000 0.92247  0.86250  0.25919  Biso   1.000  C
  O56      1.0000 0.09007  0.81939  0.25410  Biso   1.000  O
  H103     1.0000 0.05903  0.67328  0.23469  Biso   1.000  H
  H104     1.0000 0.80337  0.83578  0.30099  Biso   1.000  H
  C80      1.0000 0.74106  0.89831  0.24918  Biso   1.000  C
  H105     1.0000 0.92180  0.94858  0.60680  Biso   1.000  H
  O57      1.0000 0.95232  0.93919  0.67349  Biso   1.000  O
  C81      1.0000 0.92336  0.05043  0.63330  Biso   1.000  C
  H106     1.0000 0.75144  0.98152  0.57320  Biso   1.000  H
  C82      1.0000 0.61772  0.99321  0.60750  Biso   1.000  C
  O58      1.0000 0.75644  0.07131  0.60599  Biso   1.000  O
  H107     1.0000 0.24677  0.71462  0.49749  Biso   1.000  H
  C83      1.0000 0.23953  0.63408  0.54432  Biso   1.000  C
  H108     1.0000 0.25491  0.56883  0.59641  Biso   1.000  H
  H109     1.0000 0.93157  0.87811  0.22668  Biso   1.000  H
  O59      1.0000 0.94769  0.91752  0.29071  Biso   1.000  O
  H110     1.0000 0.10611  0.85749  0.26470  Biso   1.000  H
  H111     1.0000 0.75778  0.94279  0.26340  Biso   1.000  H
  H112     1.0000 0.75009  0.90301  0.21559  Biso   1.000  H
  O60      1.0000 0.64271  0.88459  0.25789  Biso   1.000  O
  H113     1.0000 0.92381  0.90338  0.68181  Biso   1.000  H
  C84      1.0000 0.85867  0.08498  0.59820  Biso   1.000  C
  H114     1.0000 0.90963  0.07120  0.66412  Biso   1.000  H
  O61      1.0000 0.02507  0.06102  0.62291  Biso   1.000  O
  H115     1.0000 0.59697  0.94519  0.60269  Biso   1.000  H
  H116     1.0000 0.58712  0.02182  0.58338  Biso   1.000  H
  O62      1.0000 0.58727  0.01592  0.65158  Biso   1.000  O
  Br2      1.0000 0.12275  0.59362  0.51701  Biso   1.000  Br
  C85      1.0000 0.98060  0.98163  0.27109  Biso   1.000  C
  H117     1.0000 0.60816  0.91591  0.24701  Biso   1.000  H
  H118     1.0000 0.86919  0.13551  0.60051  Biso   1.000  H
  O63      1.0000 0.88911  0.06290  0.55260  Biso   1.000  O
  H119     1.0000 0.05283  0.07882  0.64558  Biso   1.000  H
  H120     1.0000 0.54518  0.98888  0.66212  Biso   1.000  H
  H121     1.0000 0.99157  0.97541  0.23739  Biso   1.000  H
  O64      1.0000 0.90583  0.03289  0.27790  Biso   1.000  O
  C86      1.0000 0.07858  0.00261  0.29429  Biso   1.000  C
  C87      1.0000 0.90463  0.11401  0.51630  Biso   1.000  C
  C88      1.0000 0.88262  0.04839  0.32679  Biso   1.000  C
  O65      1.0000 0.14887  0.94832  0.28952  Biso   1.000  O
  H122     1.0000 0.10447  0.04421  0.27839  Biso   1.000  H
  C89      1.0000 0.05962  0.02062  0.34691  Biso   1.000  C
  C90      1.0000 0.82979  0.10372  0.47731  Biso   1.000  C
  C91      1.0000 0.00560  0.10497  0.49830  Biso   1.000  C
  H123     1.0000 0.89740  0.16099  0.52950  Biso   1.000  H
  C92      1.0000 0.97717  0.07110  0.35119  Biso   1.000  C
  H124     1.0000 0.85941  0.00522  0.34171  Biso   1.000  H
  C93      1.0000 0.80143  0.09970  0.32900  Biso   1.000  C
  H125     1.0000 0.12141  0.91361  0.27870  Biso   1.000  H
  H126     1.0000 0.04149  0.97771  0.36361  Biso   1.000  H
  O66      1.0000 0.14969  0.04609  0.36498  Biso   1.000  O
  O67      1.0000 0.85068  0.15180  0.44080  Biso   1.000  O
  H127     1.0000 0.83598  0.05612  0.46509  Biso   1.000  H
  C94      1.0000 0.72830  0.11620  0.48980  Biso   1.000  C
  C95      1.0000 0.02754  0.15368  0.45849  Biso   1.000  C
  H128     1.0000 0.01186  0.05700  0.48671  Biso   1.000  H
  O68      1.0000 0.08096  0.11541  0.53610  Biso   1.000  O
  H129     1.0000 0.99851  0.11641  0.33880  Biso   1.000  H
  O69      1.0000 0.95918  0.07700  0.40061  Biso   1.000  O
  H130     1.0000 0.78218  0.10722  0.36140  Biso   1.000  H
  H131     1.0000 0.74368  0.08201  0.31209  Biso   1.000  H
  O70      1.0000 0.83367  0.16600  0.30808  Biso   1.000  O
  H132     1.0000 0.13797  0.07459  0.38580  Biso   1.000  H
  C96      1.0000 0.94590  0.14381  0.42079  Biso   1.000  C
  H133     1.0000 0.68734  0.11301  0.46179  Biso   1.000  H
  H134     1.0000 0.70659  0.08008  0.51139  Biso   1.000  H
  O71      1.0000 0.71368  0.17978  0.51009  Biso   1.000  O
  H135     1.0000 0.02477  0.20181  0.47011  Biso   1.000  H
  O72      1.0000 0.12238  0.14099  0.44031  Biso   1.000  O
  H136     1.0000 0.06007  0.09871  0.56071  Biso   1.000  H
  H137     1.0000 0.88008  0.15879  0.28990  Biso   1.000  H
  H138     1.0000 0.95478  0.17931  0.39629  Biso   1.000  H
  H139     1.0000 0.65420  0.18500  0.51581  Biso   1.000  H
  H140     1.0000 0.11880  0.11119  0.41971  Biso   1.000  H
  O73      1.0000 0.35729  0.38461  0.24209  Biso   1.000  O
  C97      1.0000 0.25894  0.39829  0.25080  Biso   1.000  C
  H141     1.0000 0.39184  0.41588  0.25301  Biso   1.000  H
  C98      1.0000 0.18551  0.34322  0.23269  Biso   1.000  C
  H142     1.0000 0.24222  0.44281  0.23658  Biso   1.000  H
  H143     1.0000 0.24991  0.40299  0.28439  Biso   1.000  H
  O74      1.0000 0.21088  0.28089  0.25778  Biso   1.000  O
  C99      1.0000 0.07753  0.36248  0.24079  Biso   1.000  C
  H144     1.0000 0.19663  0.33580  0.19899  Biso   1.000  H
  C100     1.0000 0.14842  0.22138  0.24609  Biso   1.000  C
  C101     1.0000 0.00940  0.30229  0.23079  Biso   1.000  C
  H145     1.0000 0.06843  0.37809  0.27330  Biso   1.000  H
  O75      1.0000 0.05231  0.41750  0.20931  Biso   1.000  O
  H146     1.0000 0.17081  0.18082  0.26421  Biso   1.000  H
  C102     1.0000 0.04224  0.23579  0.25740  Biso   1.000  C
  O76      1.0000 0.15723  0.20661  0.19850  Biso   1.000  O
  H147     1.0000 0.00903  0.29290  0.19699  Biso   1.000  H
  O77      1.0000 0.90993  0.31941  0.24588  Biso   1.000  O
  C103     1.0000 0.01940  0.48160  0.22890  Biso   1.000  C
  H148     1.0000 0.03656  0.24451  0.29120  Biso   1.000  H
  O78      1.0000 0.98709  0.17732  0.24652  Biso   1.000  O
  C104     1.0000 0.21110  0.14402  0.18390  Biso   1.000  C
  H149     1.0000 0.89389  0.35752  0.23528  Biso   1.000  H
  H150     1.0000 0.00843  0.47539  0.26259  Biso   1.000  H
  O79      1.0000 0.09417  0.53291  0.22209  Biso   1.000  O
  C105     1.0000 0.92142  0.50258  0.20569  Biso   1.000  C
  H151     1.0000 0.94097  0.17330  0.26530  Biso   1.000  H
  C106     1.0000 0.13902  0.09991  0.15680  Biso   1.000  C
  H152     1.0000 0.23327  0.11839  0.21180  Biso   1.000  H
  C107     1.0000 0.29968  0.16678  0.15641  Biso   1.000  C
  C108     1.0000 0.11738  0.54842  0.17319  Biso   1.000  C
  H153     1.0000 0.89553  0.54419  0.22159  Biso   1.000  H
  O80      1.0000 0.85113  0.44830  0.21050  Biso   1.000  O
  C109     1.0000 0.94038  0.52059  0.15311  Biso   1.000  C
  C110     1.0000 0.19290  0.03732  0.13711  Biso   1.000  C
  H154     1.0000 0.11171  0.12753  0.13079  Biso   1.000  H
  O81      1.0000 0.05977  0.07632  0.18540  Biso   1.000  O
  H155     1.0000 0.27573  0.19460  0.12980  Biso   1.000  H
  O82      1.0000 0.34900  0.10122  0.13679  Biso   1.000  O
  C111     1.0000 0.37370  0.20739  0.18081  Biso   1.000  C
  C112     1.0000 0.02283  0.57112  0.14879  Biso   1.000  C
  H156     1.0000 0.14059  0.50519  0.15831  Biso   1.000  H
  C113     1.0000 0.19857  0.59968  0.17101  Biso   1.000  C
  H157     1.0000 0.87859  0.41358  0.22131  Biso   1.000  H
  H158     1.0000 0.95851  0.47768  0.13640  Biso   1.000  H
  O83      1.0000 0.85031  0.54612  0.13500  Biso   1.000  O
  C114     1.0000 0.28558  0.06102  0.10860  Biso   1.000  C
  H159     1.0000 0.21491  0.00762  0.16312  Biso   1.000  H
  O84      1.0000 0.12760  0.99739  0.10699  Biso   1.000  O
  H160     1.0000 0.02343  0.05048  0.17021  Biso   1.000  H
  O85      1.0000 0.40572  0.16798  0.22061  Biso   1.000  O
  O86      1.0000 0.45750  0.22718  0.14992  Biso   1.000  O
  H161     1.0000 0.00149  0.61638  0.16119  Biso   1.000  H
  O87      1.0000 0.04082  0.57702  0.09941  Biso   1.000  O
  H162     1.0000 0.21782  0.60719  0.13861  Biso   1.000  H
  H163     1.0000 0.25632  0.58198  0.18790  Biso   1.000  H
  O88      1.0000 0.16633  0.66602  0.19190  Biso   1.000  O
  H164     1.0000 0.86203  0.57462  0.11418  Biso   1.000  H
  H165     1.0000 0.32199  0.01931  0.09828  Biso   1.000  H
  O89      1.0000 0.25520  0.09798  0.06890  Biso   1.000  O
  H166     1.0000 0.12462  0.01603  0.08108  Biso   1.000  H
  C115     1.0000 0.05410  0.64379  0.07919  Biso   1.000  C
  H167     1.0000 0.11992  0.65882  0.21012  Biso   1.000  H
  C116     1.0000 0.28349  0.07350  0.02380  Biso   1.000  C
  H168     1.0000 0.04522  0.67928  0.10369  Biso   1.000  H
  O90      1.0000 0.14932  0.65182  0.05922  Biso   1.000  O
  C117     1.0000 0.97246  0.65370  0.04149  Biso   1.000  C
  H169     1.0000 0.30834  0.02553  0.02548  Biso   1.000  H
  C118     1.0000 0.36550  0.12361  0.00411  Biso   1.000  C
  C119     1.0000 0.19200  0.07809  0.99231  Biso   1.000  C
  C120     1.0000 0.17021  0.60370  0.02271  Biso   1.000  C
  H170     1.0000 0.97523  0.70178  0.02991  Biso   1.000  H
  O91      1.0000 0.87762  0.64102  0.05971  Biso   1.000  O
  C121     1.0000 0.99440  0.60500  0.00168  Biso   1.000  C
  H171     1.0000 0.34580  0.17268  0.00649  Biso   1.000  H
  C122     1.0000 0.47011  0.10842  0.03019  Biso   1.000  C
  O92      1.0000 0.38587  0.10310  0.95489  Biso   1.000  O
  O93      1.0000 0.12007  0.02730  0.00811  Biso   1.000  O
  C123     1.0000 0.21379  0.06107  0.94078  Biso   1.000  C
  H172     1.0000 0.16312  0.12492  0.99449  Biso   1.000  H
  H173     1.0000 0.16402  0.55609  0.03489  Biso   1.000  H
  C124     1.0000 0.27170  0.61622  0.01021  Biso   1.000  C
  C125     1.0000 0.09537  0.61398  0.98371  Biso   1.000  C
  H174     1.0000 0.88120  0.61121  0.08031  Biso   1.000  H
  O94      1.0000 0.91904  0.61539  0.96392  Biso   1.000  O
  H175     1.0000 0.98814  0.55698  0.01330  Biso   1.000  H
  H176     1.0000 0.46608  0.06290  0.04511  Biso   1.000  H
  H177     1.0000 0.52227  0.10602  0.00660  Biso   1.000  H
  O95      1.0000 0.49377  0.15060  0.05929  Biso   1.000  O
  C126     1.0000 0.30423  0.10931  0.92530  Biso   1.000  C
  H178     1.0000 0.06358  0.04291  0.00460  Biso   1.000  H
  H179     1.0000 0.23424  0.01211  0.93829  Biso   1.000  H
  O96      1.0000 0.13402  0.07261  0.91081  Biso   1.000  O
  H180     1.0000 0.31266  0.61299  0.03819  Biso   1.000  H
  H181     1.0000 0.29341  0.58010  0.98859  Biso   1.000  H
  O97      1.0000 0.28632  0.67980  0.98989  Biso   1.000  O
  H182     1.0000 0.10260  0.66101  0.97051  Biso   1.000  H
  O98      1.0000 0.11089  0.56288  0.94738  Biso   1.000  O
  H183     1.0000 0.93993  0.59868  0.93931  Biso   1.000  H
  H184     1.0000 0.45982  0.14512  0.08291  Biso   1.000  H
  H185     1.0000 0.32490  0.09521  0.89371  Biso   1.000  H
  O99      1.0000 0.27207  0.17868  0.92330  Biso   1.000  O
  H186     1.0000 0.15029  0.10069  0.89048  Biso   1.000  H
  H187     1.0000 0.34580  0.68502  0.98420  Biso   1.000  H
  C127     1.0000 0.14133  0.58501  0.90179  Biso   1.000  C
  C128     1.0000 0.29729  0.21741  0.88139  Biso   1.000  C
  H188     1.0000 0.13081  0.63549  0.89951  Biso   1.000  H
  C129     1.0000 0.07664  0.55040  0.86669  Biso   1.000  C
  O100     1.0000 0.24356  0.57128  0.89399  Biso   1.000  O
  C130     1.0000 0.20610  0.23709  0.85591  Biso   1.000  C
  H189     1.0000 0.34020  0.18891  0.86121  Biso   1.000  H
  C131     1.0000 0.35579  0.28340  0.89842  Biso   1.000  C
  O101     1.0000 0.97493  0.56100  0.87711  Biso   1.000  O
  H190     1.0000 0.09037  0.57118  0.83590  Biso   1.000  H
  C132     1.0000 0.10111  0.47032  0.86398  Biso   1.000  C
  C133     1.0000 0.26811  0.49872  0.89571  Biso   1.000  C
  C134     1.0000 0.22759  0.28413  0.81660  Biso   1.000  C
  H191     1.0000 0.16081  0.26079  0.87771  Biso   1.000  H
  O102     1.0000 0.15708  0.17638  0.83790  Biso   1.000  O
  H192     1.0000 0.31236  0.30991  0.91958  Biso   1.000  H
  O103     1.0000 0.37512  0.32589  0.85749  Biso   1.000  O
  C135     1.0000 0.45243  0.27081  0.92281  Biso   1.000  C
  H193     1.0000 0.94717  0.57880  0.85440  Biso   1.000  H
  H194     1.0000 0.07820  0.44861  0.89319  Biso   1.000  H
  O104     1.0000 0.04768  0.43921  0.82649  Biso   1.000  O
  C136     1.0000 0.20901  0.45868  0.86030  Biso   1.000  C
  H195     1.0000 0.24856  0.48150  0.92681  Biso   1.000  H
  C137     1.0000 0.38228  0.49319  0.89248  Biso   1.000  C
  C138     1.0000 0.29058  0.34912  0.83481  Biso   1.000  C
  H196     1.0000 0.26923  0.25850  0.79420  Biso   1.000  H
  O105     1.0000 0.14133  0.30730  0.79231  Biso   1.000  O
  H197     1.0000 0.14693  0.14882  0.85931  Biso   1.000  H
  H198     1.0000 0.48832  0.31451  0.92622  Biso   1.000  H
  H199     1.0000 0.44019  0.25207  0.95391  Biso   1.000  H
  O106     1.0000 0.51063  0.22290  0.89631  Biso   1.000  O
  H200     1.0000 0.07619  0.40340  0.81821  Biso   1.000  H
  O107     1.0000 0.22498  0.38539  0.86398  Biso   1.000  O
  H201     1.0000 0.23051  0.47351  0.82899  Biso   1.000  H
  H202     1.0000 0.41288  0.52179  0.91660  Biso   1.000  H
  H203     1.0000 0.40303  0.44522  0.89729  Biso   1.000  H
  O108     1.0000 0.41273  0.51589  0.84840  Biso   1.000  O
  H204     1.0000 0.30953  0.37871  0.80821  Biso   1.000  H
  H205     1.0000 0.12111  0.34369  0.80421  Biso   1.000  H
  C139     1.0000 0.59510  0.19732  0.91692  Biso   1.000  C
  H206     1.0000 0.45482  0.48891  0.83790  Biso   1.000  H
  C140     1.0000 0.63928  0.22530  0.95619  Biso   1.000  C
  C141     1.0000 0.63428  0.13849  0.89880  Biso   1.000  C
  H207     1.0000 0.61249  0.26539  0.96960  Biso   1.000  H
  C142     1.0000 0.72293  0.19502  0.97631  Biso   1.000  C
  C143     1.0000 0.71801  0.10821  0.91779  Biso   1.000  C
  H208     1.0000 0.60413  0.11802  0.87279  Biso   1.000  H
  H209     1.0000 0.75323  0.21460  0.00249  Biso   1.000  H
  C144     1.0000 0.76047  0.13410  0.95570  Biso   1.000  C
  H210     1.0000 0.74509  0.06880  0.90361  Biso   1.000  H
  Br3      1.0000 0.87725  0.09365  0.98301  Biso   1.000  Br
  O109     1.0000 0.48713  0.32270  0.75348  Biso   1.000  O
  C145     1.0000 0.54220  0.26419  0.74260  Biso   1.000  C
  H211     1.0000 0.44101  0.32672  0.73470  Biso   1.000  H
  C146     1.0000 0.64838  0.27859  0.75391  Biso   1.000  C
  H212     1.0000 0.53660  0.25552  0.70880  Biso   1.000  H
  C147     1.0000 0.50936  0.19768  0.76921  Biso   1.000  C
  H213     1.0000 0.67077  0.31920  0.73579  Biso   1.000  H
  O110     1.0000 0.65719  0.29342  0.80150  Biso   1.000  O
  O111     1.0000 0.71092  0.21908  0.74222  Biso   1.000  O
  H214     1.0000 0.50899  0.20708  0.80301  Biso   1.000  H
  O112     1.0000 0.40989  0.18061  0.75412  Biso   1.000  O
  C148     1.0000 0.57749  0.13750  0.75921  Biso   1.000  C
  C149     1.0000 0.71107  0.35601  0.81610  Biso   1.000  C
  C150     1.0000 0.68547  0.15681  0.76731  Biso   1.000  C
  H215     1.0000 0.39393  0.14251  0.76472  Biso   1.000  H
  H216     1.0000 0.56839  0.12189  0.72670  Biso   1.000  H
  O113     1.0000 0.55227  0.08248  0.79069  Biso   1.000  O
  C151     1.0000 0.63898  0.40011  0.84320  Biso   1.000  C
  H217     1.0000 0.73330  0.38158  0.78820  Biso   1.000  H
  C152     1.0000 0.79972  0.33319  0.84359  Biso   1.000  C
  H218     1.0000 0.69659  0.16422  0.80101  Biso   1.000  H
  C153     1.0000 0.75890  0.10169  0.74920  Biso   1.000  C
  C154     1.0000 0.51936  0.01837  0.77110  Biso   1.000  C
  C155     1.0000 0.69293  0.46270  0.86289  Biso   1.000  C
  H219     1.0000 0.61167  0.37250  0.86921  Biso   1.000  H
  O114     1.0000 0.55981  0.42371  0.81460  Biso   1.000  O
  H220     1.0000 0.77569  0.30542  0.87020  Biso   1.000  H
  O115     1.0000 0.84897  0.39881  0.86321  Biso   1.000  O
  C156     1.0000 0.87367  0.29258  0.81919  Biso   1.000  C
  H221     1.0000 0.74218  0.05721  0.76342  Biso   1.000  H
  H222     1.0000 0.74987  0.09699  0.71561  Biso   1.000  H
  O116     1.0000 0.85732  0.11541  0.75791  Biso   1.000  O
  H223     1.0000 0.50839  0.02459  0.73741  Biso   1.000  H
  C157     1.0000 0.42139  0.99739  0.79431  Biso   1.000  C
  O117     1.0000 0.59421  0.96711  0.77791  Biso   1.000  O
  C158     1.0000 0.78561  0.43900  0.89140  Biso   1.000  C
  H224     1.0000 0.71487  0.49240  0.83688  Biso   1.000  H
  O118     1.0000 0.62757  0.50258  0.89301  Biso   1.000  O
  H225     1.0000 0.52339  0.44950  0.82979  Biso   1.000  H
  O119     1.0000 0.90568  0.33199  0.77939  Biso   1.000  O
  O120     1.0000 0.95747  0.27280  0.85008  Biso   1.000  O
  H226     1.0000 0.89180  0.08409  0.74699  Biso   1.000  H
  O121     1.0000 0.35109  0.05168  0.78950  Biso   1.000  O
  H227     1.0000 0.39549  0.95579  0.77841  Biso   1.000  H
  C159     1.0000 0.44041  0.97938  0.84689  Biso   1.000  C
  C160     1.0000 0.61742  0.95161  0.82681  Biso   1.000  C
  H228     1.0000 0.82203  0.48071  0.90172  Biso   1.000  H
  O122     1.0000 0.75517  0.40199  0.93110  Biso   1.000  O
  H229     1.0000 0.62458  0.48400  0.91892  Biso   1.000  H
  H230     1.0000 0.37863  0.08639  0.77869  Biso   1.000  H
  H231     1.0000 0.45847  0.02229  0.86360  Biso   1.000  H
  O123     1.0000 0.35027  0.95391  0.86500  Biso   1.000  O
  C161     1.0000 0.52280  0.92890  0.85121  Biso   1.000  C
  H232     1.0000 0.64062  0.99478  0.84169  Biso   1.000  H
  C162     1.0000 0.69860  0.90030  0.82899  Biso   1.000  C
  C163     1.0000 0.78352  0.42648  0.97620  Biso   1.000  C
  H233     1.0000 0.36199  0.92541  0.88582  Biso   1.000  H
  H234     1.0000 0.50153  0.88359  0.83881  Biso   1.000  H
  O124     1.0000 0.54078  0.92300  0.90059  Biso   1.000  O
  H235     1.0000 0.71778  0.89278  0.86139  Biso   1.000  H
  H236     1.0000 0.75629  0.91799  0.81210  Biso   1.000  H
  O125     1.0000 0.66629  0.83400  0.80810  Biso   1.000  O
  H237     1.0000 0.80830  0.47450  0.97452  Biso   1.000  H
  C164     1.0000 0.86553  0.37642  0.99589  Biso   1.000  C
  C165     1.0000 0.69196  0.42188  0.00769  Biso   1.000  C
  C166     1.0000 0.55406  0.85619  0.92081  Biso   1.000  C
  H238     1.0000 0.61988  0.84121  0.78988  Biso   1.000  H
  H239     1.0000 0.84583  0.32730  0.99351  Biso   1.000  H
  C167     1.0000 0.97008  0.39161  0.96981  Biso   1.000  C
  O126     1.0000 0.88590  0.39688  0.04511  Biso   1.000  O
  O127     1.0000 0.62010  0.47273  0.99189  Biso   1.000  O
  C168     1.0000 0.71383  0.43890  0.05922  Biso   1.000  C
  H240     1.0000 0.66308  0.37511  0.00551  Biso   1.000  H
  H241     1.0000 0.54518  0.82069  0.89631  Biso   1.000  H
  C169     1.0000 0.47250  0.84632  0.95851  Biso   1.000  C
  O128     1.0000 0.64928  0.84820  0.94078  Biso   1.000  O
  H242     1.0000 0.96612  0.43712  0.95489  Biso   1.000  H
  O129     1.0000 0.99381  0.34938  0.94071  Biso   1.000  O
  H243     1.0000 0.02231  0.39401  0.99340  Biso   1.000  H
  C170     1.0000 0.80419  0.39072  0.07470  Biso   1.000  C
  H244     1.0000 0.56361  0.45712  0.99540  Biso   1.000  H
  H245     1.0000 0.73420  0.48792  0.06171  Biso   1.000  H
  O130     1.0000 0.63398  0.42742  0.08919  Biso   1.000  O
  H246     1.0000 0.47519  0.79819  0.97009  Biso   1.000  H
  O131     1.0000 0.37758  0.85901  0.94029  Biso   1.000  O
  C171     1.0000 0.49437  0.89503  0.99832  Biso   1.000  C
  C172     1.0000 0.67017  0.89628  0.97729  Biso   1.000  C
  H247     1.0000 0.95978  0.35491  0.91709  Biso   1.000  H
  H248     1.0000 0.82486  0.40481  0.10629  Biso   1.000  H
  O132     1.0000 0.77211  0.32129  0.07670  Biso   1.000  O
  H249     1.0000 0.65032  0.39928  0.10952  Biso   1.000  H
  H250     1.0000 0.38117  0.88881  0.91969  Biso   1.000  H
  H251     1.0000 0.48810  0.94300  0.98670  Biso   1.000  H
  O133     1.0000 0.41900  0.88459  0.03608  Biso   1.000  O
  C173     1.0000 0.59540  0.88599  0.01629  Biso   1.000  C
  H252     1.0000 0.66398  0.94388  0.96511  Biso   1.000  H
  C174     1.0000 0.77173  0.88380  0.98979  Biso   1.000  C
  C175     1.0000 0.79733  0.28261  0.11861  Biso   1.000  C
  H253     1.0000 0.43989  0.90129  0.06069  Biso   1.000  H
  H254     1.0000 0.60257  0.83901  0.02949  Biso   1.000  H
  O134     1.0000 0.61092  0.93710  0.05262  Biso   1.000  O
  H255     1.0000 0.81270  0.88699  0.96181  Biso   1.000  H
  H256     1.0000 0.79337  0.91992  0.01141  Biso   1.000  H
  O135     1.0000 0.78628  0.82022  0.01011  Biso   1.000  O
  C176     1.0000 0.70607  0.26288  0.14409  Biso   1.000  C
  H257     1.0000 0.84024  0.31111  0.13879  Biso   1.000  H
  C177     1.0000 0.85583  0.21658  0.10158  Biso   1.000  C
  C178     1.0000 0.64130  0.91502  0.09821  Biso   1.000  C
  H258     1.0000 0.84583  0.81500  0.01580  Biso   1.000  H
  C179     1.0000 0.72763  0.21590  0.18340  Biso   1.000  C
  H259     1.0000 0.66077  0.23918  0.12229  Biso   1.000  H
  O136     1.0000 0.65712  0.32359  0.16210  Biso   1.000  O
  H260     1.0000 0.81240  0.19011  0.08042  Biso   1.000  H
  O137     1.0000 0.87508  0.17409  0.14251  Biso   1.000  O
  C180     1.0000 0.95239  0.22921  0.07719  Biso   1.000  C
  H261     1.0000 0.63077  0.86449  0.10049  Biso   1.000  H
  C181     1.0000 0.57660  0.94957  0.13331  Biso   1.000  C
  O138     1.0000 0.74360  0.92869  0.10601  Biso   1.000  O
  C182     1.0000 0.79061  0.15091  0.16519  Biso   1.000  C
  H262     1.0000 0.76920  0.24148  0.20580  Biso   1.000  H
  O139     1.0000 0.64130  0.19272  0.20769  Biso   1.000  O
  H263     1.0000 0.64689  0.35120  0.14069  Biso   1.000  H
  H264     1.0000 0.98828  0.18552  0.07378  Biso   1.000  H
  H265     1.0000 0.94023  0.24790  0.04609  Biso   1.000  H
  O140     1.0000 0.01060  0.27708  0.10369  Biso   1.000  O
  H266     1.0000 0.59040  0.92880  0.16410  Biso   1.000  H
  O141     1.0000 0.47489  0.93898  0.12289  Biso   1.000  O
  C183     1.0000 0.60107  0.02970  0.13602  Biso   1.000  C
  C184     1.0000 0.76808  0.00131  0.10429  Biso   1.000  C
  H267     1.0000 0.80949  0.12131  0.19179  Biso   1.000  H
  O142     1.0000 0.72502  0.11458  0.13602  Biso   1.000  O
  H268     1.0000 0.62107  0.15629  0.19579  Biso   1.000  H
  C185     1.0000 0.09507  0.30271  0.08308  Biso   1.000  C
  H269     1.0000 0.44721  0.92118  0.14560  Biso   1.000  H
  H270     1.0000 0.57817  0.05142  0.10681  Biso   1.000  H
  O143     1.0000 0.54772  0.06081  0.17351  Biso   1.000  O
  C186     1.0000 0.70898  0.04129  0.13970  Biso   1.000  C
  H271     1.0000 0.74860  0.01848  0.07319  Biso   1.000  H
  C187     1.0000 0.88232  0.00679  0.10752  Biso   1.000  C
  C188     1.0000 0.13932  0.27468  0.04381  Biso   1.000  C
  C189     1.0000 0.13432  0.36149  0.10120  Biso   1.000  C
  H272     1.0000 0.57623  0.09662  0.18179  Biso   1.000  H
  H273     1.0000 0.73047  0.02652  0.17101  Biso   1.000  H
  H274     1.0000 0.91292  0.97818  0.08340  Biso   1.000  H
  O144     1.0000 0.91269  0.98408  0.15160  Biso   1.000  O
  H275     1.0000 0.90299  0.05481  0.10271  Biso   1.000  H
  H276     1.0000 0.11253  0.23459  0.03040  Biso   1.000  H
  C190     1.0000 0.22289  0.30501  0.02369  Biso   1.000  C
  C191     1.0000 0.21797  0.39182  0.08221  Biso   1.000  C
  H277     1.0000 0.10410  0.38200  0.12721  Biso   1.000  H
  H278     1.0000 0.95478  0.01112  0.16210  Biso   1.000  H
  H279     1.0000 0.25319  0.28538  0.99751  Biso   1.000  H
  C192     1.0000 0.26050  0.36592  0.04430  Biso   1.000  C
  H280     1.0000 0.24513  0.43117  0.09639  Biso   1.000  H
  Br4      1.0000 0.37729  0.40638  0.01699  Biso   1.000  Br
