data_image0
_cell_length_a       10.902
_cell_length_b       17.445
_cell_length_c       38.679
_cell_angle_alpha    90
_cell_angle_beta     90
_cell_angle_gamma    90

_symmetry_space_group_name_H-M    "P 1"
_symmetry_int_tables_number       1

loop_
  _symmetry_equiv_pos_as_xyz
  'x, y, z'

loop_
  _atom_site_label
  _atom_site_occupancy
  _atom_site_fract_x
  _atom_site_fract_y
  _atom_site_fract_z
  _atom_site_thermal_displace_type
  _atom_site_B_iso_or_equiv
  _atom_site_type_symbol
  O1       1.0000 0.57742  0.45062  0.46591  Biso   1.000  O
  C1       1.0000 0.48542  0.39358  0.47310  Biso   1.000  C
  C2       1.0000 0.50238  0.39089  0.44931  Biso   1.000  C
  C3       1.0000 0.68079  0.43812  0.44580  Biso   1.000  C
  C4       1.0000 0.38232  0.39880  0.44712  Biso   1.000  C
  C5       1.0000 0.38406  0.40281  0.46640  Biso   1.000  C
  H1       1.0000 0.40029  0.40780  0.49091  Biso   1.000  H
  H2       1.0000 0.45313  0.40132  0.49621  Biso   1.000  H
  H3       1.0000 0.52201  0.34302  0.47219  Biso   1.000  H
  H4       1.0000 0.49651  0.39880  0.42449  Biso   1.000  H
  H5       1.0000 0.53458  0.33998  0.45381  Biso   1.000  H
  C6       1.0000 0.77967  0.49120  0.45461  Biso   1.000  C
  H6       1.0000 0.68639  0.40057  0.42881  Biso   1.000  H
  O2       1.0000 0.30857  0.46397  0.45686  Biso   1.000  O
  H7       1.0000 0.41497  0.40562  0.42400  Biso   1.000  H
  H8       1.0000 0.33352  0.35231  0.44750  Biso   1.000  H
  H9       1.0000 0.33682  0.35621  0.46340  Biso   1.000  H
  H10      1.0000 0.79930  0.48610  0.47892  Biso   1.000  H
  H11      1.0000 0.85241  0.47807  0.44140  Biso   1.000  H
  O3       1.0000 0.74739  0.56681  0.44763  Biso   1.000  O
  C7       1.0000 0.20198  0.45709  0.43579  Biso   1.000  C
  C8       1.0000 0.84462  0.61978  0.45311  Biso   1.000  C
  C9       1.0000 0.19006  0.52049  0.41071  Biso   1.000  C
  H12      1.0000 0.12998  0.45612  0.45050  Biso   1.000  H
  H13      1.0000 0.20538  0.40889  0.42330  Biso   1.000  H
  C10      1.0000 0.81214  0.69539  0.43587  Biso   1.000  C
  H14      1.0000 0.92011  0.59971  0.44339  Biso   1.000  H
  H15      1.0000 0.85672  0.62757  0.47770  Biso   1.000  H
  H16      1.0000 0.26234  0.52290  0.39611  Biso   1.000  H
  H17      1.0000 0.11897  0.51230  0.39611  Biso   1.000  H
  O4       1.0000 0.17694  0.58991  0.42941  Biso   1.000  O
  H18      1.0000 0.73564  0.71516  0.44510  Biso   1.000  H
  H19      1.0000 0.87608  0.73299  0.43990  Biso   1.000  H
  O5       1.0000 0.80031  0.68008  0.39954  Biso   1.000  O
  C11      1.0000 0.15502  0.65589  0.41121  Biso   1.000  C
  C12      1.0000 0.78187  0.74079  0.37822  Biso   1.000  C
  C13      1.0000 0.14447  0.72221  0.43098  Biso   1.000  C
  C14      1.0000 0.14529  0.66059  0.37550  Biso   1.000  C
  C15      1.0000 0.76307  0.72061  0.34396  Biso   1.000  C
  C16      1.0000 0.78013  0.81697  0.38840  Biso   1.000  C
  H20      1.0000 0.15061  0.71917  0.45490  Biso   1.000  H
  C17      1.0000 0.12511  0.79180  0.41547  Biso   1.000  C
  C18      1.0000 0.12227  0.73087  0.35952  Biso   1.000  C
  H21      1.0000 0.15410  0.61657  0.36211  Biso   1.000  H
  C19      1.0000 0.74454  0.77776  0.31911  Biso   1.000  C
  H22      1.0000 0.76289  0.66930  0.33750  Biso   1.000  H
  H23      1.0000 0.78967  0.83021  0.41152  Biso   1.000  H
  C20      1.0000 0.76353  0.87389  0.36299  Biso   1.000  C
  C21      1.0000 0.11099  0.79759  0.37904  Biso   1.000  C
  C22      1.0000 0.12686  0.86260  0.43711  Biso   1.000  C
  O6       1.0000 0.11411  0.72909  0.32449  Biso   1.000  O
  C23      1.0000 0.74601  0.85549  0.32821  Biso   1.000  C
  O7       1.0000 0.72601  0.76251  0.28478  Biso   1.000  O
  C24      1.0000 0.76637  0.95557  0.37568  Biso   1.000  C
  H24      1.0000 0.09466  0.84448  0.36849  Biso   1.000  H
  N1       1.0000 0.04687  0.91786  0.43103  Biso   1.000  N
  O8       1.0000 0.20446  0.86850  0.46103  Biso   1.000  O
  C25      1.0000 0.07026  0.79656  0.30761  Biso   1.000  C
  H25      1.0000 0.73564  0.89349  0.31159  Biso   1.000  H
  C26      1.0000 0.71326  0.68386  0.27521  Biso   1.000  C
  N2       1.0000 0.70611  0.00711  0.35683  Biso   1.000  N
  O9       1.0000 0.82288  0.97248  0.40205  Biso   1.000  O
  C27      1.0000 0.04183  0.98836  0.45154  Biso   1.000  C
  H26      1.0000 0.99569  0.91230  0.41431  Biso   1.000  H
  H27      1.0000 0.13300  0.83611  0.30810  Biso   1.000  H
  C28      1.0000 0.03843  0.77776  0.27087  Biso   1.000  C
  H28      1.0000 0.99826  0.81588  0.31950  Biso   1.000  H
  C29      1.0000 0.68868  0.67819  0.23760  Biso   1.000  C
  H29      1.0000 0.64621  0.66088  0.28811  Biso   1.000  H
  H30      1.0000 0.78793  0.65629  0.28090  Biso   1.000  H
  C30      1.0000 0.71244  0.08919  0.36415  Biso   1.000  C
  H31      1.0000 0.66199  0.99146  0.33980  Biso   1.000  H
  H32      1.0000 0.07659  0.97856  0.47421  Biso   1.000  H
  H33      1.0000 0.95680  0.00310  0.45469  Biso   1.000  H
  C31      1.0000 0.11016  0.05388  0.43486  Biso   1.000  C
  H34      1.0000 0.00009  0.72760  0.26991  Biso   1.000  H
  O10      1.0000 0.14520  0.77816  0.25008  Biso   1.000  O
  H35      1.0000 0.98028  0.81519  0.26211  Biso   1.000  H
  O11      1.0000 0.57467  0.71556  0.22943  Biso   1.000  O
  H36      1.0000 0.75500  0.70221  0.22480  Biso   1.000  H
  H37      1.0000 0.68465  0.62471  0.23090  Biso   1.000  H
  C32      1.0000 0.63649  0.11338  0.39562  Biso   1.000  C
  H38      1.0000 0.68364  0.11717  0.34411  Biso   1.000  H
  H39      1.0000 0.79728  0.10330  0.36800  Biso   1.000  H
  C33      1.0000 0.04770  0.10989  0.41780  Biso   1.000  C
  C34      1.0000 0.24106  0.05887  0.43628  Biso   1.000  C
  C35      1.0000 0.11961  0.75340  0.21562  Biso   1.000  C
  C36      1.0000 0.54229  0.69711  0.19577  Biso   1.000  C
  C37      1.0000 0.50715  0.10347  0.39580  Biso   1.000  C
  C38      1.0000 0.69061  0.14761  0.42325  Biso   1.000  C
  H40      1.0000 0.96303  0.10519  0.41591  Biso   1.000  H
  C39      1.0000 0.10438  0.17449  0.40280  Biso   1.000  C
  C40      1.0000 0.30187  0.12049  0.42186  Biso   1.000  C
  O12      1.0000 0.31031  0.00407  0.45182  Biso   1.000  O
  H41      1.0000 0.04696  0.77919  0.20701  Biso   1.000  H
  H42      1.0000 0.10420  0.69860  0.21541  Biso   1.000  H
  C41      1.0000 0.22849  0.77191  0.19284  Biso   1.000  C
  C42      1.0000 0.43873  0.74726  0.18390  Biso   1.000  C
  H43      1.0000 0.51761  0.64368  0.19460  Biso   1.000  H
  H44      1.0000 0.61246  0.70398  0.18059  Biso   1.000  H
  C43      1.0000 0.43680  0.12548  0.42387  Biso   1.000  C
  O13      1.0000 0.45671  0.07131  0.36705  Biso   1.000  O
  C44      1.0000 0.62521  0.16916  0.45288  Biso   1.000  C
  H45      1.0000 0.77454  0.15707  0.42250  Biso   1.000  H
  C45      1.0000 0.03733  0.23239  0.38571  Biso   1.000  C
  C46      1.0000 0.23610  0.17988  0.40472  Biso   1.000  C
  H46      1.0000 0.26903  0.96526  0.45451  Biso   1.000  H
  H47      1.0000 0.20969  0.75901  0.16901  Biso   1.000  H
  H48      1.0000 0.24610  0.82637  0.19401  Biso   1.000  H
  O14      1.0000 0.33141  0.72989  0.20399  Biso   1.000  O
  H49      1.0000 0.46056  0.80080  0.18679  Biso   1.000  H
  H50      1.0000 0.42231  0.73838  0.15960  Biso   1.000  H
  C47      1.0000 0.49541  0.15718  0.45353  Biso   1.000  C
  H51      1.0000 0.38232  0.07859  0.36710  Biso   1.000  H
  C48      1.0000 0.68409  0.20017  0.48254  Biso   1.000  C
  H52      1.0000 0.95230  0.22918  0.38450  Biso   1.000  H
  C49      1.0000 0.09650  0.29298  0.37090  Biso   1.000  C
  C50      1.0000 0.29307  0.24408  0.38920  Biso   1.000  C
  C51      1.0000 0.43056  0.17518  0.48437  Biso   1.000  C
  C52      1.0000 0.61732  0.21748  0.51180  Biso   1.000  C
  H53      1.0000 0.76821  0.20900  0.48220  Biso   1.000  H
  H54      1.0000 0.05164  0.33138  0.36009  Biso   1.000  H
  C53      1.0000 0.22400  0.29779  0.37209  Biso   1.000  C
  H55      1.0000 0.37782  0.24987  0.39060  Biso   1.000  H
  H56      1.0000 0.34627  0.16715  0.48551  Biso   1.000  H
  C54      1.0000 0.49101  0.20430  0.51240  Biso   1.000  C
  H57      1.0000 0.65630  0.23789  0.53112  Biso   1.000  H
  H58      1.0000 0.26307  0.33826  0.36100  Biso   1.000  H
  H59      1.0000 0.44698  0.21559  0.53241  Biso   1.000  H
  C55      1.0000 0.54183  0.51161  0.54846  Biso   1.000  C
  C56      1.0000 0.61016  0.44609  0.56514  Biso   1.000  C
  H60      1.0000 0.57659  0.52141  0.52582  Biso   1.000  H
  H61      1.0000 0.45680  0.49688  0.54531  Biso   1.000  H
  N3       1.0000 0.54687  0.58212  0.56897  Biso   1.000  N
  C57      1.0000 0.74106  0.44110  0.56372  Biso   1.000  C
  C58      1.0000 0.54770  0.39008  0.58220  Biso   1.000  C
  C59      1.0000 0.62686  0.63737  0.56289  Biso   1.000  C
  H62      1.0000 0.49569  0.58768  0.58569  Biso   1.000  H
  C60      1.0000 0.80187  0.37948  0.57814  Biso   1.000  C
  O15      1.0000 0.81031  0.49590  0.54818  Biso   1.000  O
  C61      1.0000 0.60438  0.32548  0.59722  Biso   1.000  C
  H63      1.0000 0.46303  0.39478  0.58412  Biso   1.000  H
  C62      1.0000 0.62511  0.70817  0.58453  Biso   1.000  C
  O16      1.0000 0.70446  0.63147  0.53897  Biso   1.000  O
  C63      1.0000 0.93680  0.37449  0.57613  Biso   1.000  C
  C64      1.0000 0.73610  0.32009  0.59528  Biso   1.000  C
  H64      1.0000 0.76903  0.53471  0.54552  Biso   1.000  H
  C65      1.0000 0.53733  0.26758  0.61431  Biso   1.000  C
  C66      1.0000 0.64447  0.77776  0.56902  Biso   1.000  C
  C67      1.0000 0.61099  0.70238  0.62098  Biso   1.000  C
  C68      1.0000 0.99541  0.34279  0.54647  Biso   1.000  C
  C69      1.0000 0.00715  0.39650  0.60420  Biso   1.000  C
  C70      1.0000 0.79307  0.25589  0.61080  Biso   1.000  C
  H65      1.0000 0.45230  0.27079  0.61550  Biso   1.000  H
  C71      1.0000 0.59650  0.20699  0.62910  Biso   1.000  C
  C72      1.0000 0.65502  0.84408  0.58882  Biso   1.000  C
  H66      1.0000 0.65061  0.78080  0.54510  Biso   1.000  H
  H67      1.0000 0.59466  0.65549  0.63151  Biso   1.000  H
  C73      1.0000 0.62227  0.76910  0.64048  Biso   1.000  C
  C74      1.0000 0.93056  0.32479  0.51565  Biso   1.000  C
  C75      1.0000 0.12521  0.33081  0.54714  Biso   1.000  C
  O17      1.0000 0.95671  0.42872  0.63295  Biso   1.000  O
  C76      1.0000 0.13649  0.38659  0.60441  Biso   1.000  C
  C77      1.0000 0.72400  0.20218  0.62791  Biso   1.000  C
  H68      1.0000 0.87782  0.25010  0.60940  Biso   1.000  H
  H69      1.0000 0.55164  0.16859  0.63991  Biso   1.000  H
  C78      1.0000 0.64529  0.83938  0.62452  Biso   1.000  C
  O18      1.0000 0.67694  0.91006  0.57062  Biso   1.000  O
  O19      1.0000 0.61411  0.77088  0.67551  Biso   1.000  O
  C79      1.0000 0.99101  0.29567  0.48760  Biso   1.000  C
  H70      1.0000 0.84627  0.33282  0.51449  Biso   1.000  H
  C80      1.0000 0.18409  0.29980  0.51749  Biso   1.000  C
  C81      1.0000 0.19061  0.35242  0.57677  Biso   1.000  C
  H71      1.0000 0.88232  0.42138  0.63290  Biso   1.000  H
  C82      1.0000 0.21244  0.41078  0.63587  Biso   1.000  C
  H72      1.0000 0.76307  0.16171  0.63900  Biso   1.000  H
  H73      1.0000 0.65410  0.88340  0.63792  Biso   1.000  H
  C83      1.0000 0.69006  0.97948  0.58931  Biso   1.000  C
  C84      1.0000 0.57026  0.70341  0.69239  Biso   1.000  C
  H74      1.0000 0.94698  0.28438  0.46759  Biso   1.000  H
  C85      1.0000 0.11732  0.28249  0.48820  Biso   1.000  C
  H75      1.0000 0.26821  0.29097  0.51780  Biso   1.000  H
  H76      1.0000 0.27454  0.34291  0.57750  Biso   1.000  H
  H77      1.0000 0.18364  0.38280  0.65591  Biso   1.000  H
  H78      1.0000 0.29728  0.39668  0.63200  Biso   1.000  H
  N4       1.0000 0.20611  0.49286  0.64317  Biso   1.000  N
  H79      1.0000 0.76234  0.97707  0.60389  Biso   1.000  H
  H80      1.0000 0.61897  0.98768  0.60389  Biso   1.000  H
  C86      1.0000 0.70198  0.04288  0.56421  Biso   1.000  C
  H81      1.0000 0.63300  0.66392  0.69190  Biso   1.000  H
  H82      1.0000 0.49826  0.68409  0.68050  Biso   1.000  H
  C87      1.0000 0.53843  0.72221  0.72913  Biso   1.000  C
  H83      1.0000 0.15630  0.26208  0.46891  Biso   1.000  H
  C88      1.0000 0.26637  0.54440  0.62432  Biso   1.000  C
  H84      1.0000 0.16199  0.50851  0.66020  Biso   1.000  H
  H85      1.0000 0.62998  0.04391  0.54950  Biso   1.000  H
  H86      1.0000 0.70538  0.09109  0.57670  Biso   1.000  H
  O20      1.0000 0.80857  0.03600  0.54316  Biso   1.000  O
  H87      1.0000 0.50009  0.77237  0.73011  Biso   1.000  H
  H88      1.0000 0.48028  0.68478  0.73789  Biso   1.000  H
  O21      1.0000 0.64520  0.72181  0.74992  Biso   1.000  O
  C89      1.0000 0.26353  0.62608  0.63701  Biso   1.000  C
  O22      1.0000 0.32288  0.52749  0.59795  Biso   1.000  O
  C90      1.0000 0.88232  0.10118  0.55291  Biso   1.000  C
  C91      1.0000 0.88406  0.09722  0.53360  Biso   1.000  C
  C92      1.0000 0.61961  0.74657  0.78438  Biso   1.000  C
  C93      1.0000 0.28013  0.68300  0.61162  Biso   1.000  C
  C94      1.0000 0.24601  0.64448  0.67179  Biso   1.000  C
  C95      1.0000 0.98542  0.10639  0.52690  Biso   1.000  C
  H89      1.0000 0.91497  0.09435  0.57600  Biso   1.000  H
  H90      1.0000 0.83352  0.14766  0.55250  Biso   1.000  H
  H91      1.0000 0.83682  0.14382  0.53660  Biso   1.000  H
  C96      1.0000 0.00238  0.10909  0.55071  Biso   1.000  C
  H92      1.0000 0.90029  0.09218  0.50911  Biso   1.000  H
  H93      1.0000 0.54696  0.72078  0.79301  Biso   1.000  H
  H94      1.0000 0.60420  0.80138  0.78461  Biso   1.000  H
  C97      1.0000 0.72849  0.72806  0.80718  Biso   1.000  C
  C98      1.0000 0.28187  0.75919  0.62181  Biso   1.000  C
  H95      1.0000 0.28967  0.66976  0.58851  Biso   1.000  H
  C99      1.0000 0.24454  0.72221  0.68089  Biso   1.000  C
  H96      1.0000 0.23564  0.60648  0.68841  Biso   1.000  H
  O23      1.0000 0.07742  0.04936  0.53411  Biso   1.000  O
  H97      1.0000 0.95313  0.09865  0.50381  Biso   1.000  H
  H98      1.0000 0.02201  0.15701  0.52781  Biso   1.000  H
  H99      1.0000 0.99651  0.10118  0.57551  Biso   1.000  H
  H100     1.0000 0.03458  0.15999  0.54621  Biso   1.000  H
  O24      1.0000 0.83141  0.77008  0.79601  Biso   1.000  O
  H101     1.0000 0.70969  0.74101  0.83099  Biso   1.000  H
  H102     1.0000 0.74610  0.67360  0.80602  Biso   1.000  H
  C100     1.0000 0.26307  0.77936  0.65607  Biso   1.000  C
  O25      1.0000 0.30031  0.81989  0.60046  Biso   1.000  O
  O26      1.0000 0.22601  0.73746  0.71522  Biso   1.000  O
  C101     1.0000 0.18079  0.06191  0.55420  Biso   1.000  C
  C102     1.0000 0.93873  0.75271  0.81610  Biso   1.000  C
  H103     1.0000 0.26289  0.83067  0.66250  Biso   1.000  H
  C103     1.0000 0.31214  0.80459  0.56413  Biso   1.000  C
  C104     1.0000 0.21326  0.81611  0.72481  Biso   1.000  C
  C105     1.0000 0.27967  0.00877  0.54541  Biso   1.000  C
  H104     1.0000 0.18639  0.09940  0.57121  Biso   1.000  H
  C106     1.0000 0.04229  0.80287  0.80423  Biso   1.000  C
  H105     1.0000 0.96056  0.69917  0.81321  Biso   1.000  H
  H106     1.0000 0.92231  0.76159  0.84040  Biso   1.000  H
  H107     1.0000 0.23564  0.78481  0.55490  Biso   1.000  H
  H108     1.0000 0.37608  0.76698  0.56010  Biso   1.000  H
  C107     1.0000 0.34462  0.88019  0.54691  Biso   1.000  C
  C108     1.0000 0.18868  0.82178  0.76240  Biso   1.000  C
  H109     1.0000 0.14621  0.83909  0.71191  Biso   1.000  H
  H110     1.0000 0.28793  0.84368  0.71910  Biso   1.000  H
  O27      1.0000 0.24739  0.93316  0.55237  Biso   1.000  O
  H111     1.0000 0.29930  0.01387  0.52111  Biso   1.000  H
  H112     1.0000 0.35241  0.02190  0.55860  Biso   1.000  H
  O28      1.0000 0.07467  0.78441  0.77057  Biso   1.000  O
  H113     1.0000 0.01761  0.85629  0.80540  Biso   1.000  H
  H114     1.0000 0.11246  0.79599  0.81941  Biso   1.000  H
  H115     1.0000 0.42011  0.90026  0.55661  Biso   1.000  H
  H116     1.0000 0.35672  0.87240  0.52230  Biso   1.000  H
  H117     1.0000 0.25500  0.79776  0.77520  Biso   1.000  H
  H118     1.0000 0.18465  0.87527  0.76910  Biso   1.000  H
  C109     1.0000 0.56127  0.24729  0.31611  Biso   1.000  C
  C110     1.0000 0.45771  0.19708  0.30425  Biso   1.000  C
  H119     1.0000 0.53944  0.30077  0.31319  Biso   1.000  H
  H120     1.0000 0.57769  0.23841  0.34039  Biso   1.000  H
  O29      1.0000 0.66859  0.22992  0.29600  Biso   1.000  O
  O30      1.0000 0.42533  0.21559  0.27056  Biso   1.000  O
  H121     1.0000 0.48239  0.14371  0.30541  Biso   1.000  H
  H122     1.0000 0.38754  0.20401  0.31940  Biso   1.000  H
  C111     1.0000 0.77151  0.27188  0.30717  Biso   1.000  C
  C112     1.0000 0.31132  0.17822  0.26239  Biso   1.000  C
  C113     1.0000 0.88039  0.25337  0.28437  Biso   1.000  C
  H123     1.0000 0.79031  0.25899  0.33101  Biso   1.000  H
  H124     1.0000 0.75390  0.32640  0.30601  Biso   1.000  H
  C114     1.0000 0.28674  0.18389  0.22480  Biso   1.000  C
  H125     1.0000 0.24500  0.20218  0.27521  Biso   1.000  H
  H126     1.0000 0.31535  0.12468  0.26911  Biso   1.000  H
  H127     1.0000 0.95304  0.27922  0.29300  Biso   1.000  H
  H128     1.0000 0.89580  0.19862  0.28460  Biso   1.000  H
  O31      1.0000 0.85480  0.27819  0.24990  Biso   1.000  O
  O32      1.0000 0.27399  0.26248  0.21523  Biso   1.000  O
  H129     1.0000 0.35379  0.16091  0.21190  Biso   1.000  H
  H130     1.0000 0.21207  0.15632  0.21911  Biso   1.000  H
  C115     1.0000 0.96157  0.27779  0.22912  Biso   1.000  C
  C116     1.0000 0.25546  0.27779  0.18090  Biso   1.000  C
  C117     1.0000 0.92974  0.29659  0.19240  Biso   1.000  C
  H131     1.0000 0.99991  0.22757  0.23010  Biso   1.000  H
  H132     1.0000 0.01972  0.31522  0.23791  Biso   1.000  H
  C118     1.0000 0.23693  0.22058  0.15605  Biso   1.000  C
  C119     1.0000 0.25399  0.35552  0.17180  Biso   1.000  C
  H133     1.0000 0.86700  0.33608  0.19191  Biso   1.000  H
  O33      1.0000 0.88589  0.22912  0.17550  Biso   1.000  O
  H134     1.0000 0.00174  0.31591  0.18051  Biso   1.000  H
  H135     1.0000 0.23711  0.16927  0.16249  Biso   1.000  H
  C120     1.0000 0.21813  0.24081  0.12180  Biso   1.000  C
  C121     1.0000 0.23647  0.37392  0.13703  Biso   1.000  C
  H136     1.0000 0.26436  0.39347  0.18840  Biso   1.000  H
  C122     1.0000 0.87773  0.23090  0.14046  Biso   1.000  C
  C123     1.0000 0.21987  0.31700  0.11161  Biso   1.000  C
  O34      1.0000 0.19969  0.18011  0.10047  Biso   1.000  O
  C124     1.0000 0.23363  0.45560  0.12433  Biso   1.000  C
  C125     1.0000 0.88901  0.29762  0.12097  Biso   1.000  C
  C126     1.0000 0.85471  0.16062  0.12451  Biso   1.000  C
  H137     1.0000 0.21033  0.33018  0.08850  Biso   1.000  H
  C127     1.0000 0.18786  0.19541  0.06414  Biso   1.000  C
  N5       1.0000 0.29389  0.50708  0.14318  Biso   1.000  N
  O35      1.0000 0.17712  0.47251  0.09796  Biso   1.000  O
  C128     1.0000 0.87489  0.29177  0.08452  Biso   1.000  C
  H138     1.0000 0.90534  0.34451  0.13149  Biso   1.000  H
  C129     1.0000 0.84498  0.15592  0.08881  Biso   1.000  C
  H139     1.0000 0.84590  0.11660  0.13790  Biso   1.000  H
  H140     1.0000 0.26436  0.21519  0.05489  Biso   1.000  H
  H141     1.0000 0.12392  0.23302  0.06011  Biso   1.000  H
  C130     1.0000 0.15538  0.11981  0.04690  Biso   1.000  C
  C131     1.0000 0.28756  0.58917  0.13586  Biso   1.000  C
  H142     1.0000 0.33801  0.49149  0.16019  Biso   1.000  H
  C132     1.0000 0.87314  0.36257  0.06288  Biso   1.000  C
  C133     1.0000 0.85553  0.22218  0.06903  Biso   1.000  C
  O36      1.0000 0.82306  0.08988  0.07061  Biso   1.000  O
  H143     1.0000 0.07989  0.09968  0.05659  Biso   1.000  H
  H144     1.0000 0.14328  0.12760  0.02231  Biso   1.000  H
  O37      1.0000 0.25261  0.06678  0.05235  Biso   1.000  O
  C134     1.0000 0.36351  0.61341  0.10440  Biso   1.000  C
  H145     1.0000 0.31636  0.61720  0.15590  Biso   1.000  H
  H146     1.0000 0.20272  0.60327  0.13201  Biso   1.000  H
  N6       1.0000 0.95313  0.41788  0.06895  Biso   1.000  N
  O38      1.0000 0.79554  0.36847  0.03896  Biso   1.000  O
  H147     1.0000 0.84939  0.21920  0.04509  Biso   1.000  H
  C135     1.0000 0.80994  0.02052  0.08930  Biso   1.000  C
  C136     1.0000 0.22033  0.99117  0.04540  Biso   1.000  C
  C137     1.0000 0.30939  0.64758  0.07676  Biso   1.000  C
  C138     1.0000 0.49285  0.60350  0.10422  Biso   1.000  C
  C139     1.0000 0.95817  0.48839  0.04845  Biso   1.000  C
  H148     1.0000 0.00431  0.41227  0.08571  Biso   1.000  H
  C140     1.0000 0.79802  0.95712  0.06420  Biso   1.000  C
  H149     1.0000 0.73766  0.02287  0.10391  Biso   1.000  H
  H150     1.0000 0.88103  0.01232  0.10391  Biso   1.000  H
  H151     1.0000 0.20070  0.98613  0.02110  Biso   1.000  H
  H152     1.0000 0.14759  0.97810  0.05861  Biso   1.000  H
  C141     1.0000 0.31921  0.93809  0.05419  Biso   1.000  C
  C142     1.0000 0.37479  0.66919  0.04713  Biso   1.000  C
  H153     1.0000 0.22546  0.65709  0.07751  Biso   1.000  H
  C143     1.0000 0.56320  0.62551  0.07614  Biso   1.000  C
  O39      1.0000 0.54329  0.57128  0.13294  Biso   1.000  O
  C144     1.0000 0.88984  0.55391  0.06513  Biso   1.000  C
  H154     1.0000 0.92341  0.47859  0.02580  Biso   1.000  H
  H155     1.0000 0.04320  0.50307  0.04530  Biso   1.000  H
  O40      1.0000 0.69143  0.96400  0.04315  Biso   1.000  O
  H156     1.0000 0.87002  0.95609  0.04951  Biso   1.000  H
  H157     1.0000 0.79462  0.90891  0.07671  Biso   1.000  H
  H158     1.0000 0.31361  0.90060  0.07120  Biso   1.000  H
  O41      1.0000 0.42258  0.95059  0.03410  Biso   1.000  O
  C145     1.0000 0.50459  0.65721  0.04649  Biso   1.000  C
  C146     1.0000 0.31591  0.70020  0.01748  Biso   1.000  C
  C147     1.0000 0.69813  0.62046  0.07816  Biso   1.000  C
  H159     1.0000 0.61768  0.57862  0.13289  Biso   1.000  H
  C148     1.0000 0.75894  0.55890  0.06373  Biso   1.000  C
  C149     1.0000 0.95230  0.60992  0.08219  Biso   1.000  C
  C150     1.0000 0.61768  0.89882  0.05290  Biso   1.000  C
  C151     1.0000 0.61594  0.90278  0.03361  Biso   1.000  C
  C152     1.0000 0.51458  0.89361  0.02689  Biso   1.000  C
  C153     1.0000 0.49762  0.89086  0.05070  Biso   1.000  C
  C154     1.0000 0.56944  0.67521  0.01564  Biso   1.000  C
  H160     1.0000 0.23179  0.70897  0.01779  Biso   1.000  H
  C155     1.0000 0.38268  0.71751  0.98821  Biso   1.000  C
  C156     1.0000 0.76390  0.67991  0.09530  Biso   1.000  C
  O42      1.0000 0.68969  0.50410  0.04819  Biso   1.000  O
  C157     1.0000 0.89562  0.67446  0.09721  Biso   1.000  C
  H161     1.0000 0.03697  0.60522  0.08410  Biso   1.000  H
  H162     1.0000 0.58503  0.90559  0.07601  Biso   1.000  H
  H163     1.0000 0.66648  0.85228  0.05251  Biso   1.000  H
  H164     1.0000 0.66318  0.85618  0.03661  Biso   1.000  H
  H165     1.0000 0.59971  0.90777  0.00910  Biso   1.000  H
  H166     1.0000 0.54687  0.90129  0.00380  Biso   1.000  H
  H167     1.0000 0.47799  0.84299  0.02779  Biso   1.000  H
  H168     1.0000 0.50349  0.89877  0.07549  Biso   1.000  H
  H169     1.0000 0.46542  0.84001  0.04620  Biso   1.000  H
  H170     1.0000 0.65373  0.66718  0.01450  Biso   1.000  H
  C158     1.0000 0.50899  0.70427  0.98759  Biso   1.000  C
  H171     1.0000 0.34370  0.73786  0.96890  Biso   1.000  H
  C159     1.0000 0.70693  0.74411  0.11078  Biso   1.000  C
  H172     1.0000 0.73097  0.46529  0.04550  Biso   1.000  H
  C160     1.0000 0.96267  0.73236  0.11430  Biso   1.000  C
  H173     1.0000 0.55302  0.71556  0.96761  Biso   1.000  H
  C161     1.0000 0.77600  0.79776  0.12790  Biso   1.000  C
  H174     1.0000 0.62218  0.74990  0.10941  Biso   1.000  H
  C162     1.0000 0.90350  0.79301  0.12909  Biso   1.000  C
  H175     1.0000 0.04770  0.72921  0.11549  Biso   1.000  H
  H176     1.0000 0.73693  0.83829  0.13899  Biso   1.000  H
  H177     1.0000 0.94836  0.83141  0.13990  Biso   1.000  H
  C163     1.0000 0.27151  0.22809  0.69283  Biso   1.000  C
  O43      1.0000 0.16859  0.27011  0.70400  Biso   1.000  O
  C164     1.0000 0.38039  0.24660  0.71563  Biso   1.000  C
  H178     1.0000 0.29031  0.24099  0.66899  Biso   1.000  H
  H179     1.0000 0.25390  0.17357  0.69399  Biso   1.000  H
  C165     1.0000 0.06127  0.25268  0.68391  Biso   1.000  C
  H180     1.0000 0.45304  0.22081  0.70700  Biso   1.000  H
  H181     1.0000 0.39580  0.30140  0.71540  Biso   1.000  H
  O44      1.0000 0.35480  0.22178  0.75010  Biso   1.000  O
  H182     1.0000 0.03944  0.19920  0.68681  Biso   1.000  H
  H183     1.0000 0.07769  0.26162  0.65961  Biso   1.000  H
  C166     1.0000 0.95771  0.30289  0.69578  Biso   1.000  C
  C167     1.0000 0.46157  0.22218  0.77088  Biso   1.000  C
  H184     1.0000 0.98239  0.35632  0.69461  Biso   1.000  H
  H185     1.0000 0.88754  0.29602  0.68060  Biso   1.000  H
  O45      1.0000 0.92533  0.28438  0.72944  Biso   1.000  O
  C168     1.0000 0.42974  0.20338  0.80762  Biso   1.000  C
  H186     1.0000 0.49991  0.27240  0.76990  Biso   1.000  H
  H187     1.0000 0.51972  0.18481  0.76209  Biso   1.000  H
  C169     1.0000 0.81132  0.32181  0.73761  Biso   1.000  C
  H188     1.0000 0.36700  0.16389  0.80811  Biso   1.000  H
  H189     1.0000 0.50174  0.18412  0.81951  Biso   1.000  H
  O46      1.0000 0.38589  0.27091  0.82450  Biso   1.000  O
  H190     1.0000 0.74500  0.29779  0.72481  Biso   1.000  H
  H191     1.0000 0.81535  0.37529  0.73091  Biso   1.000  H
  C170     1.0000 0.78674  0.31608  0.77520  Biso   1.000  C
  C171     1.0000 0.37773  0.26907  0.85954  Biso   1.000  C
  H192     1.0000 0.85379  0.33907  0.78810  Biso   1.000  H
  H193     1.0000 0.71207  0.34371  0.78091  Biso   1.000  H
  O47      1.0000 0.77399  0.23749  0.78479  Biso   1.000  O
  C172     1.0000 0.38901  0.20241  0.87903  Biso   1.000  C
  C173     1.0000 0.35471  0.33941  0.87549  Biso   1.000  C
  C174     1.0000 0.75546  0.22218  0.81913  Biso   1.000  C
  C175     1.0000 0.37489  0.20820  0.91548  Biso   1.000  C
  H194     1.0000 0.40534  0.15552  0.86851  Biso   1.000  H
  C176     1.0000 0.34498  0.34411  0.91119  Biso   1.000  C
  H195     1.0000 0.34590  0.38338  0.86210  Biso   1.000  H
  C177     1.0000 0.73693  0.27939  0.84395  Biso   1.000  C
  C178     1.0000 0.75399  0.14451  0.82823  Biso   1.000  C
  C179     1.0000 0.35553  0.27779  0.93100  Biso   1.000  C
  C180     1.0000 0.37314  0.13740  0.93712  Biso   1.000  C
  O48      1.0000 0.32306  0.41009  0.92939  Biso   1.000  O
  H196     1.0000 0.73711  0.33070  0.83751  Biso   1.000  H
  C181     1.0000 0.71813  0.25921  0.87820  Biso   1.000  C
  C182     1.0000 0.73647  0.12611  0.86297  Biso   1.000  C
  H197     1.0000 0.76436  0.10651  0.81160  Biso   1.000  H
  H198     1.0000 0.34939  0.28077  0.95491  Biso   1.000  H
  N7       1.0000 0.45313  0.08209  0.93105  Biso   1.000  N
  O49      1.0000 0.29554  0.13150  0.96104  Biso   1.000  O
  C183     1.0000 0.30994  0.47951  0.91070  Biso   1.000  C
  C184     1.0000 0.71987  0.18298  0.88839  Biso   1.000  C
  O50      1.0000 0.69969  0.31992  0.89956  Biso   1.000  O
  C185     1.0000 0.73363  0.04443  0.87569  Biso   1.000  C
  C186     1.0000 0.45817  0.01158  0.95155  Biso   1.000  C
  H199     1.0000 0.50431  0.08770  0.91429  Biso   1.000  H
  C187     1.0000 0.29802  0.54291  0.93580  Biso   1.000  C
  H200     1.0000 0.23766  0.47710  0.89612  Biso   1.000  H
  H201     1.0000 0.38103  0.48770  0.89612  Biso   1.000  H
  H202     1.0000 0.71033  0.16979  0.91150  Biso   1.000  H
  C188     1.0000 0.68786  0.30461  0.93588  Biso   1.000  C
  N8       1.0000 0.79389  0.99289  0.85685  Biso   1.000  N
  O51      1.0000 0.67712  0.02752  0.90207  Biso   1.000  O
  H203     1.0000 0.42341  0.02138  0.97420  Biso   1.000  H
  H204     1.0000 0.54320  0.99690  0.95470  Biso   1.000  H
  C189     1.0000 0.38984  0.94612  0.93487  Biso   1.000  C
  H205     1.0000 0.37002  0.54388  0.95052  Biso   1.000  H
  H206     1.0000 0.29462  0.59111  0.92332  Biso   1.000  H
  O52      1.0000 0.19143  0.53597  0.95685  Biso   1.000  O
  H207     1.0000 0.76436  0.28478  0.94511  Biso   1.000  H
  H208     1.0000 0.62392  0.26701  0.93992  Biso   1.000  H
  C190     1.0000 0.65538  0.38017  0.95310  Biso   1.000  C
  C191     1.0000 0.78756  0.91081  0.86414  Biso   1.000  C
  H209     1.0000 0.83801  0.00848  0.83981  Biso   1.000  H
  C192     1.0000 0.45230  0.89011  0.91781  Biso   1.000  C
  C193     1.0000 0.25894  0.94113  0.93630  Biso   1.000  C
  C194     1.0000 0.11768  0.60120  0.94710  Biso   1.000  C
  C195     1.0000 0.11594  0.59719  0.96642  Biso   1.000  C
  H210     1.0000 0.57989  0.40029  0.94341  Biso   1.000  H
  H211     1.0000 0.64328  0.37237  0.97771  Biso   1.000  H
  O53      1.0000 0.75261  0.43319  0.94765  Biso   1.000  O
  C196     1.0000 0.86351  0.88662  0.89560  Biso   1.000  C
  H212     1.0000 0.81636  0.88277  0.84410  Biso   1.000  H
  H213     1.0000 0.70272  0.89670  0.86802  Biso   1.000  H
  H214     1.0000 0.53697  0.89481  0.91590  Biso   1.000  H
  C197     1.0000 0.39562  0.82551  0.90279  Biso   1.000  C
  C198     1.0000 0.19813  0.87951  0.92187  Biso   1.000  C
  O54      1.0000 0.18969  0.99587  0.95183  Biso   1.000  O
  C199     1.0000 0.01458  0.60636  0.97311  Biso   1.000  C
  H215     1.0000 0.08503  0.59438  0.92402  Biso   1.000  H
  H216     1.0000 0.16648  0.64769  0.94752  Biso   1.000  H
  H217     1.0000 0.16318  0.64379  0.96342  Biso   1.000  H
  C200     1.0000 0.99762  0.60911  0.94930  Biso   1.000  C
  H218     1.0000 0.09971  0.59220  0.99090  Biso   1.000  H
  C201     1.0000 0.72033  0.50880  0.95460  Biso   1.000  C
  C202     1.0000 0.80939  0.85239  0.92324  Biso   1.000  C
  C203     1.0000 0.99285  0.89647  0.89581  Biso   1.000  C
  C204     1.0000 0.26390  0.82012  0.90473  Biso   1.000  C
  C205     1.0000 0.46267  0.76761  0.88570  Biso   1.000  C
  C206     1.0000 0.06320  0.87452  0.92389  Biso   1.000  C
  H219     1.0000 0.23097  0.03468  0.95450  Biso   1.000  H
  O55      1.0000 0.92258  0.54938  0.96590  Biso   1.000  O
  H220     1.0000 0.04687  0.59868  0.99620  Biso   1.000  H
  H221     1.0000 0.97799  0.65698  0.97221  Biso   1.000  H
  H222     1.0000 0.00349  0.60120  0.92451  Biso   1.000  H
  H223     1.0000 0.96542  0.66002  0.95380  Biso   1.000  H
  H224     1.0000 0.70070  0.51390  0.97890  Biso   1.000  H
  H225     1.0000 0.64759  0.52187  0.94142  Biso   1.000  H
  C207     1.0000 0.81921  0.56188  0.94581  Biso   1.000  C
  C208     1.0000 0.87479  0.83078  0.95287  Biso   1.000  C
  H226     1.0000 0.72546  0.84288  0.92252  Biso   1.000  H
  O56      1.0000 0.04329  0.92869  0.86706  Biso   1.000  O
  C209     1.0000 0.20693  0.75592  0.88922  Biso   1.000  C
  H227     1.0000 0.54770  0.77082  0.88451  Biso   1.000  H
  C210     1.0000 0.40350  0.70702  0.87091  Biso   1.000  C
  C211     1.0000 0.00459  0.84282  0.95351  Biso   1.000  C
  H228     1.0000 0.81361  0.59937  0.92880  Biso   1.000  H
  C212     1.0000 0.81591  0.79983  0.98252  Biso   1.000  C
  H229     1.0000 0.11768  0.92141  0.86711  Biso   1.000  H
  C213     1.0000 0.27600  0.70221  0.87210  Biso   1.000  C
  H230     1.0000 0.12218  0.75013  0.89061  Biso   1.000  H
  H231     1.0000 0.44836  0.66862  0.86010  Biso   1.000  H
  C214     1.0000 0.06944  0.82482  0.98436  Biso   1.000  C
  H232     1.0000 0.73179  0.79100  0.98221  Biso   1.000  H
  C215     1.0000 0.88268  0.78252  0.01182  Biso   1.000  C
  H233     1.0000 0.23693  0.66168  0.86101  Biso   1.000  H
  C216     1.0000 0.00899  0.79570  0.01241  Biso   1.000  C
  H234     1.0000 0.15373  0.83279  0.98550  Biso   1.000  H
  H235     1.0000 0.84370  0.76211  0.03110  Biso   1.000  H
  H236     1.0000 0.05302  0.78441  0.03242  Biso   1.000  H
