data_image0
_cell_length_a       11.865
_cell_length_b       32.622
_cell_length_c       20.179
_cell_angle_alpha    90
_cell_angle_beta     100.4
_cell_angle_gamma    90

_symmetry_space_group_name_H-M    "P 1"
_symmetry_int_tables_number       1

loop_
  _symmetry_equiv_pos_as_xyz
  'x, y, z'

loop_
  _atom_site_label
  _atom_site_occupancy
  _atom_site_fract_x
  _atom_site_fract_y
  _atom_site_fract_z
  _atom_site_thermal_displace_type
  _atom_site_B_iso_or_equiv
  _atom_site_type_symbol
  C1       1.0000 0.52311  0.57130  0.50752  Biso   1.000  C
  C2       1.0000 0.39509  0.56719  0.47870  Biso   1.000  C
  N1       1.0000 0.55654  0.57801  0.57962  Biso   1.000  N
  O1       1.0000 0.34307  0.60429  0.48550  Biso   1.000  O
  C3       1.0000 0.51984  0.53991  0.61711  Biso   1.000  C
  C4       1.0000 0.67629  0.58491  0.59851  Biso   1.000  C
  C5       1.0000 0.22306  0.61400  0.45119  Biso   1.000  C
  C6       1.0000 0.54774  0.54430  0.69041  Biso   1.000  C
  C7       1.0000 0.72140  0.62660  0.58209  Biso   1.000  C
  C8       1.0000 0.14018  0.59209  0.47608  Biso   1.000  C
  O2       1.0000 0.50229  0.58359  0.70981  Biso   1.000  O
  C9       1.0000 0.71393  0.65891  0.62421  Biso   1.000  C
  C10      1.0000 0.75467  0.63589  0.51780  Biso   1.000  C
  O3       1.0000 0.15198  0.60619  0.54828  Biso   1.000  O
  C11      1.0000 0.51067  0.58709  0.78322  Biso   1.000  C
  C12      1.0000 0.74600  0.70140  0.61061  Biso   1.000  C
  C13      1.0000 0.78914  0.67580  0.50571  Biso   1.000  C
  C14      1.0000 0.05694  0.59150  0.57831  Biso   1.000  C
  C15      1.0000 0.47701  0.62850  0.80071  Biso   1.000  C
  C16      1.0000 0.75443  0.73279  0.66170  Biso   1.000  C
  C17      1.0000 0.78852  0.70820  0.55312  Biso   1.000  C
  C18      1.0000 0.08178  0.59549  0.65318  Biso   1.000  C
  O4       1.0000 0.36772  0.64270  0.76070  Biso   1.000  O
  C19      1.0000 0.78872  0.76951  0.64381  Biso   1.000  C
  C20      1.0000 0.82220  0.74701  0.54339  Biso   1.000  C
  N2       1.0000 0.12993  0.63801  0.68402  Biso   1.000  N
  C21      1.0000 0.27578  0.61940  0.78161  Biso   1.000  C
  C22      1.0000 0.81113  0.77672  0.58229  Biso   1.000  C
  C23      1.0000 0.15795  0.63911  0.75909  Biso   1.000  C
  C24      1.0000 0.03441  0.66789  0.66361  Biso   1.000  C
  C25      1.0000 0.87416  0.81739  0.56879  Biso   1.000  C
  C26      1.0000 0.07357  0.71161  0.66432  Biso   1.000  C
  N3       1.0000 0.80172  0.85219  0.57332  Biso   1.000  N
  C27      1.0000 0.11558  0.72491  0.60678  Biso   1.000  C
  C28      1.0000 0.08054  0.73861  0.71420  Biso   1.000  C
  C29      1.0000 0.86247  0.88290  0.61580  Biso   1.000  C
  C30      1.0000 0.77552  0.88259  0.51241  Biso   1.000  C
  C31      1.0000 0.16518  0.76059  0.59952  Biso   1.000  C
  C32      1.0000 0.12056  0.77730  0.71168  Biso   1.000  C
  C33      1.0000 0.86633  0.88750  0.69041  Biso   1.000  C
  C34      1.0000 0.66612  0.88860  0.47779  Biso   1.000  C
  C35      1.0000 0.16697  0.78861  0.64900  Biso   1.000  C
  C36      1.0000 0.12717  0.80841  0.75929  Biso   1.000  C
  O5       1.0000 0.78148  0.86779  0.71878  Biso   1.000  O
  O6       1.0000 0.59629  0.90641  0.51059  Biso   1.000  O
  C37      1.0000 0.20777  0.83110  0.64270  Biso   1.000  C
  C38      1.0000 0.17600  0.84731  0.75581  Biso   1.000  C
  C39      1.0000 0.78211  0.87309  0.79028  Biso   1.000  C
  C40      1.0000 0.48681  0.92741  0.48701  Biso   1.000  C
  C41      1.0000 0.21547  0.85681  0.69581  Biso   1.000  C
  C42      1.0000 0.70689  0.84930  0.81622  Biso   1.000  C
  C43      1.0000 0.45197  0.95101  0.52178  Biso   1.000  C
  C44      1.0000 0.25624  0.90421  0.68830  Biso   1.000  C
  O7       1.0000 0.58861  0.86080  0.78181  Biso   1.000  O
  O8       1.0000 0.45047  0.93670  0.58632  Biso   1.000  O
  N4       1.0000 0.38402  0.90669  0.71248  Biso   1.000  N
  C45      1.0000 0.54229  0.89571  0.81320  Biso   1.000  C
  C46      1.0000 0.39582  0.95960  0.62738  Biso   1.000  C
  C47      1.0000 0.41421  0.89501  0.78448  Biso   1.000  C
  C48      1.0000 0.41478  0.95059  0.69409  Biso   1.000  C
  C49      1.0000 0.47687  0.42870  0.49251  Biso   1.000  C
  N5       1.0000 0.44352  0.42199  0.42041  Biso   1.000  N
  C50      1.0000 0.60488  0.43281  0.52128  Biso   1.000  C
  C51      1.0000 0.32369  0.41509  0.40151  Biso   1.000  C
  C52      1.0000 0.48022  0.46009  0.38292  Biso   1.000  C
  O9       1.0000 0.65691  0.39571  0.51452  Biso   1.000  O
  C53      1.0000 0.27857  0.37340  0.41789  Biso   1.000  C
  C54      1.0000 0.45232  0.45570  0.30961  Biso   1.000  C
  C55      1.0000 0.77691  0.38600  0.54878  Biso   1.000  C
  C56      1.0000 0.28613  0.34109  0.37582  Biso   1.000  C
  C57      1.0000 0.24529  0.36411  0.48218  Biso   1.000  C
  O10      1.0000 0.49770  0.41641  0.29021  Biso   1.000  O
  C58      1.0000 0.85979  0.40791  0.52389  Biso   1.000  C
  C59      1.0000 0.25399  0.29860  0.38942  Biso   1.000  C
  C60      1.0000 0.21093  0.32420  0.49432  Biso   1.000  C
  C61      1.0000 0.48932  0.41291  0.21680  Biso   1.000  C
  O11      1.0000 0.84799  0.39381  0.45169  Biso   1.000  O
  C62      1.0000 0.24562  0.26721  0.33828  Biso   1.000  C
  C63      1.0000 0.21154  0.29180  0.44691  Biso   1.000  C
  C64      1.0000 0.52297  0.37150  0.19932  Biso   1.000  C
  C65      1.0000 0.94313  0.40850  0.42172  Biso   1.000  C
  C66      1.0000 0.21134  0.23049  0.35622  Biso   1.000  C
  C67      1.0000 0.17777  0.25299  0.45658  Biso   1.000  C
  O12      1.0000 0.63235  0.35730  0.23932  Biso   1.000  O
  C68      1.0000 0.91819  0.40451  0.34679  Biso   1.000  C
  C69      1.0000 0.18892  0.22328  0.41769  Biso   1.000  C
  C70      1.0000 0.72420  0.38060  0.21842  Biso   1.000  C
  N6       1.0000 0.87013  0.36199  0.31601  Biso   1.000  N
  C71      1.0000 0.12581  0.18261  0.43119  Biso   1.000  C
  C72      1.0000 0.84201  0.36089  0.24089  Biso   1.000  C
  C73      1.0000 0.96557  0.33211  0.33642  Biso   1.000  C
  N7       1.0000 0.19826  0.14781  0.42670  Biso   1.000  N
  C74      1.0000 0.92641  0.28839  0.33571  Biso   1.000  C
  C75      1.0000 0.13750  0.11710  0.38418  Biso   1.000  C
  C76      1.0000 0.22455  0.11741  0.48762  Biso   1.000  C
  C77      1.0000 0.88439  0.27509  0.39320  Biso   1.000  C
  C78      1.0000 0.91951  0.26139  0.28578  Biso   1.000  C
  C79      1.0000 0.13374  0.11250  0.30961  Biso   1.000  C
  C80      1.0000 0.33394  0.11140  0.52218  Biso   1.000  C
  C81      1.0000 0.83480  0.23941  0.40050  Biso   1.000  C
  C82      1.0000 0.87941  0.22270  0.28830  Biso   1.000  C
  O13      1.0000 0.21848  0.13221  0.28119  Biso   1.000  O
  O14      1.0000 0.40368  0.09359  0.48938  Biso   1.000  O
  C83      1.0000 0.83300  0.21139  0.35098  Biso   1.000  C
  C84      1.0000 0.87280  0.19159  0.24069  Biso   1.000  C
  C85      1.0000 0.21794  0.12691  0.20970  Biso   1.000  C
  C86      1.0000 0.51317  0.07259  0.51301  Biso   1.000  C
  C87      1.0000 0.79221  0.16890  0.35732  Biso   1.000  C
  C88      1.0000 0.82399  0.15269  0.24421  Biso   1.000  C
  C89      1.0000 0.29309  0.15070  0.18380  Biso   1.000  C
  C90      1.0000 0.54799  0.04899  0.47820  Biso   1.000  C
  C91      1.0000 0.78451  0.14319  0.30422  Biso   1.000  C
  O15      1.0000 0.41137  0.13920  0.21821  Biso   1.000  O
  O16      1.0000 0.54952  0.06330  0.41370  Biso   1.000  O
  C92      1.0000 0.74381  0.09579  0.31168  Biso   1.000  C
  C93      1.0000 0.45769  0.10429  0.18682  Biso   1.000  C
  C94      1.0000 0.60423  0.04040  0.37259  Biso   1.000  C
  N8       1.0000 0.61603  0.09331  0.28749  Biso   1.000  N
  C95      1.0000 0.58584  0.10499  0.21549  Biso   1.000  C
  C96      1.0000 0.58519  0.04941  0.30588  Biso   1.000  C
  C97      1.0000 0.54225  0.60429  0.31319  Biso   1.000  C
  C98      1.0000 0.41419  0.60499  0.28452  Biso   1.000  C
  O17      1.0000 0.58858  0.63920  0.28180  Biso   1.000  O
  N9       1.0000 0.38400  0.59331  0.21252  Biso   1.000  N
  C99      1.0000 0.70694  0.65070  0.31621  Biso   1.000  C
  C100     1.0000 0.41483  0.54941  0.19408  Biso   1.000  C
  C101     1.0000 0.25620  0.59579  0.18829  Biso   1.000  C
  C102     1.0000 0.78209  0.62691  0.29031  Biso   1.000  C
  C103     1.0000 0.39580  0.54040  0.12742  Biso   1.000  C
  C104     1.0000 0.21553  0.64319  0.19579  Biso   1.000  C
  O18      1.0000 0.78147  0.63221  0.21882  Biso   1.000  O
  O19      1.0000 0.45052  0.56330  0.08631  Biso   1.000  O
  C105     1.0000 0.20782  0.66890  0.14269  Biso   1.000  C
  C106     1.0000 0.17596  0.65269  0.25580  Biso   1.000  C
  C107     1.0000 0.86629  0.61250  0.19040  Biso   1.000  C
  C108     1.0000 0.45204  0.54899  0.02182  Biso   1.000  C
  C109     1.0000 0.16702  0.71139  0.14899  Biso   1.000  C
  C110     1.0000 0.12722  0.69159  0.25928  Biso   1.000  C
  C111     1.0000 0.86252  0.61710  0.11578  Biso   1.000  C
  C112     1.0000 0.48686  0.57259  0.98700  Biso   1.000  C
  C113     1.0000 0.16523  0.73941  0.09951  Biso   1.000  C
  C114     1.0000 0.12062  0.72270  0.21171  Biso   1.000  C
  N10      1.0000 0.80169  0.64781  0.07331  Biso   1.000  N
  O20      1.0000 0.59625  0.59359  0.01058  Biso   1.000  O
  C115     1.0000 0.11564  0.77509  0.10681  Biso   1.000  C
  C116     1.0000 0.08051  0.76139  0.21418  Biso   1.000  C
  C117     1.0000 0.77549  0.61741  0.01239  Biso   1.000  C
  C118     1.0000 0.87423  0.68261  0.06882  Biso   1.000  C
  C119     1.0000 0.66610  0.61140  0.97783  Biso   1.000  C
  C120     1.0000 0.07362  0.78839  0.16430  Biso   1.000  C
  C121     1.0000 0.81110  0.72328  0.08228  Biso   1.000  C
  C122     1.0000 0.03438  0.83211  0.16360  Biso   1.000  C
  C123     1.0000 0.78869  0.73049  0.14380  Biso   1.000  C
  C124     1.0000 0.82217  0.75299  0.04338  Biso   1.000  C
  N11      1.0000 0.12990  0.86199  0.18400  Biso   1.000  N
  C125     1.0000 0.75440  0.76721  0.16168  Biso   1.000  C
  C126     1.0000 0.78849  0.79180  0.05310  Biso   1.000  C
  C127     1.0000 0.08176  0.90451  0.15322  Biso   1.000  C
  C128     1.0000 0.15801  0.86089  0.25908  Biso   1.000  C
  C129     1.0000 0.74596  0.79860  0.11059  Biso   1.000  C
  C130     1.0000 0.78911  0.82420  0.00569  Biso   1.000  C
  C131     1.0000 0.05691  0.90850  0.07830  Biso   1.000  C
  C132     1.0000 0.27583  0.88060  0.28160  Biso   1.000  C
  C133     1.0000 0.71390  0.84109  0.12420  Biso   1.000  C
  C134     1.0000 0.75472  0.86411  0.01779  Biso   1.000  C
  O21      1.0000 0.15204  0.89381  0.04832  Biso   1.000  O
  O22      1.0000 0.36769  0.85730  0.26069  Biso   1.000  O
  C135     1.0000 0.72136  0.87340  0.08208  Biso   1.000  C
  C136     1.0000 0.14024  0.90791  0.97612  Biso   1.000  C
  C137     1.0000 0.47698  0.87150  0.30069  Biso   1.000  C
  C138     1.0000 0.67626  0.91509  0.09850  Biso   1.000  C
  C139     1.0000 0.22312  0.88600  0.95123  Biso   1.000  C
  C140     1.0000 0.51072  0.91291  0.28321  Biso   1.000  C
  N12      1.0000 0.55651  0.92199  0.07961  Biso   1.000  N
  O23      1.0000 0.34314  0.89571  0.98554  Biso   1.000  O
  O24      1.0000 0.50234  0.91641  0.20980  Biso   1.000  O
  C141     1.0000 0.52308  0.92870  0.00751  Biso   1.000  C
  C142     1.0000 0.51981  0.96009  0.11709  Biso   1.000  C
  C143     1.0000 0.39516  0.93281  0.97874  Biso   1.000  C
  C144     1.0000 0.54771  0.95570  0.19040  Biso   1.000  C
  C145     1.0000 0.45771  0.39571  0.68679  Biso   1.000  C
  O25      1.0000 0.41139  0.36080  0.71818  Biso   1.000  O
  C146     1.0000 0.58579  0.39501  0.71551  Biso   1.000  C
  C147     1.0000 0.29312  0.34930  0.68381  Biso   1.000  C
  N13      1.0000 0.61598  0.40669  0.78751  Biso   1.000  N
  C148     1.0000 0.21789  0.37309  0.70971  Biso   1.000  C
  C149     1.0000 0.58522  0.45059  0.80590  Biso   1.000  C
  C150     1.0000 0.74376  0.40421  0.81169  Biso   1.000  C
  O26      1.0000 0.21852  0.36779  0.78121  Biso   1.000  O
  C151     1.0000 0.60418  0.45960  0.87260  Biso   1.000  C
  C152     1.0000 0.78453  0.35681  0.80418  Biso   1.000  C
  C153     1.0000 0.13369  0.38750  0.80962  Biso   1.000  C
  O27      1.0000 0.54946  0.43670  0.91372  Biso   1.000  O
  C154     1.0000 0.79223  0.33110  0.85729  Biso   1.000  C
  C155     1.0000 0.82402  0.34731  0.74423  Biso   1.000  C
  C156     1.0000 0.13753  0.38290  0.88419  Biso   1.000  C
  C157     1.0000 0.54803  0.45101  0.97821  Biso   1.000  C
  C158     1.0000 0.83303  0.28861  0.85099  Biso   1.000  C
  C159     1.0000 0.87283  0.30841  0.74070  Biso   1.000  C
  N14      1.0000 0.19829  0.35219  0.92672  Biso   1.000  N
  C160     1.0000 0.51319  0.42741  0.01297  Biso   1.000  C
  C161     1.0000 0.83483  0.26059  0.90052  Biso   1.000  C
  C162     1.0000 0.87944  0.27730  0.78831  Biso   1.000  C
  C163     1.0000 0.22448  0.38259  0.98758  Biso   1.000  C
  C164     1.0000 0.12584  0.31739  0.93120  Biso   1.000  C
  O28      1.0000 0.40371  0.40641  0.98939  Biso   1.000  O
  C165     1.0000 0.88442  0.22491  0.89321  Biso   1.000  C
  C166     1.0000 0.91946  0.23861  0.78579  Biso   1.000  C
  C167     1.0000 0.33388  0.38860  0.02219  Biso   1.000  C
  C168     1.0000 0.18887  0.27672  0.91770  Biso   1.000  C
  C169     1.0000 0.92645  0.21161  0.83572  Biso   1.000  C
  C170     1.0000 0.21128  0.26951  0.85618  Biso   1.000  C
  C171     1.0000 0.17780  0.24701  0.95659  Biso   1.000  C
  C172     1.0000 0.96559  0.16789  0.83638  Biso   1.000  C
  C173     1.0000 0.24557  0.23279  0.83829  Biso   1.000  C
  C174     1.0000 0.21149  0.20820  0.94692  Biso   1.000  C
  N15      1.0000 0.87008  0.13801  0.81602  Biso   1.000  N
  C175     1.0000 0.25400  0.20140  0.88938  Biso   1.000  C
  C176     1.0000 0.21086  0.17580  0.99428  Biso   1.000  C
  C177     1.0000 0.91822  0.09549  0.84681  Biso   1.000  C
  C178     1.0000 0.84196  0.13911  0.74090  Biso   1.000  C
  C179     1.0000 0.28607  0.15891  0.87578  Biso   1.000  C
  C180     1.0000 0.24533  0.13589  0.98219  Biso   1.000  C
  C181     1.0000 0.94306  0.09150  0.92168  Biso   1.000  C
  C182     1.0000 0.72422  0.11940  0.71838  Biso   1.000  C
  C183     1.0000 0.27860  0.12660  0.91790  Biso   1.000  C
  O29      1.0000 0.84802  0.10619  0.95171  Biso   1.000  O
  O30      1.0000 0.63228  0.14270  0.73929  Biso   1.000  O
  C184     1.0000 0.32372  0.08491  0.90152  Biso   1.000  C
  C185     1.0000 0.85972  0.09209  0.02386  Biso   1.000  C
  C186     1.0000 0.52299  0.12850  0.69928  Biso   1.000  C
  N16      1.0000 0.44347  0.07801  0.92042  Biso   1.000  N
  C187     1.0000 0.77686  0.11400  0.04880  Biso   1.000  C
  C188     1.0000 0.48927  0.08709  0.71682  Biso   1.000  C
  C189     1.0000 0.47690  0.07130  0.99252  Biso   1.000  C
  C190     1.0000 0.48016  0.03991  0.88288  Biso   1.000  C
  O31      1.0000 0.65684  0.10429  0.01449  Biso   1.000  O
  O32      1.0000 0.49771  0.08359  0.79018  Biso   1.000  O
  C191     1.0000 0.60491  0.06719  0.02129  Biso   1.000  C
  C192     1.0000 0.45227  0.04430  0.80962  Biso   1.000  C
