data_image0
_cell_length_a       21.949
_cell_length_b       12.527
_cell_length_c       21.949
_cell_angle_alpha    90
_cell_angle_beta     90
_cell_angle_gamma    90

_symmetry_space_group_name_H-M    "P 1"
_symmetry_int_tables_number       1

loop_
  _symmetry_equiv_pos_as_xyz
  'x, y, z'

loop_
  _atom_site_label
  _atom_site_occupancy
  _atom_site_fract_x
  _atom_site_fract_y
  _atom_site_fract_z
  _atom_site_thermal_displace_type
  _atom_site_B_iso_or_equiv
  _atom_site_type_symbol
  N1       1.0000 0.38785  0.64996  0.34393  Biso   1.000  N
  C1       1.0000 0.36562  0.55632  0.31222  Biso   1.000  C
  C2       1.0000 0.35368  0.67183  0.39501  Biso   1.000  C
  C3       1.0000 0.42622  0.72946  0.31505  Biso   1.000  C
  C4       1.0000 0.31806  0.50946  0.35614  Biso   1.000  C
  N2       1.0000 0.40899  0.47074  0.30498  Biso   1.000  N
  H1       1.0000 0.34712  0.57556  0.27309  Biso   1.000  H
  N3       1.0000 0.31637  0.58657  0.40535  Biso   1.000  N
  O1       1.0000 0.35651  0.75269  0.42562  Biso   1.000  O
  H2       1.0000 0.41583  0.73330  0.27209  Biso   1.000  H
  H3       1.0000 0.41751  0.79860  0.33291  Biso   1.000  H
  N4       1.0000 0.49046  0.70815  0.32074  Biso   1.000  N
  N5       1.0000 0.34325  0.40608  0.37173  Biso   1.000  N
  H4       1.0000 0.27819  0.50251  0.33651  Biso   1.000  H
  C5       1.0000 0.39291  0.38086  0.33683  Biso   1.000  C
  C6       1.0000 0.46020  0.47250  0.26325  Biso   1.000  C
  C7       1.0000 0.27195  0.58522  0.45410  Biso   1.000  C
  C8       1.0000 0.52545  0.63950  0.28029  Biso   1.000  C
  C9       1.0000 0.52709  0.76028  0.36097  Biso   1.000  C
  C10      1.0000 0.30949  0.32641  0.40549  Biso   1.000  C
  O2       1.0000 0.41833  0.29464  0.33441  Biso   1.000  O
  H5       1.0000 0.44772  0.50778  0.22589  Biso   1.000  H
  H6       1.0000 0.47100  0.39962  0.25300  Biso   1.000  H
  N6       1.0000 0.51365  0.52606  0.28712  Biso   1.000  N
  N7       1.0000 0.28840  0.51728  0.50458  Biso   1.000  N
  H7       1.0000 0.26653  0.65746  0.46900  Biso   1.000  H
  H8       1.0000 0.23322  0.56143  0.43779  Biso   1.000  H
  C11      1.0000 0.59151  0.65147  0.30361  Biso   1.000  C
  H9       1.0000 0.52171  0.66209  0.23769  Biso   1.000  H
  N8       1.0000 0.58545  0.72787  0.35273  Biso   1.000  N
  O3       1.0000 0.51005  0.82773  0.39788  Biso   1.000  O
  H10      1.0000 0.26680  0.33097  0.39432  Biso   1.000  H
  H11      1.0000 0.32402  0.25609  0.39382  Biso   1.000  H
  N9       1.0000 0.31478  0.33759  0.47068  Biso   1.000  N
  C12      1.0000 0.56344  0.47202  0.30744  Biso   1.000  C
  C13      1.0000 0.27591  0.40433  0.50736  Biso   1.000  C
  C14      1.0000 0.30571  0.55839  0.56016  Biso   1.000  C
  N10      1.0000 0.60827  0.54442  0.32243  Biso   1.000  N
  H12      1.0000 0.61862  0.67822  0.27158  Biso   1.000  H
  C15      1.0000 0.63584  0.77169  0.38699  Biso   1.000  C
  C16      1.0000 0.35118  0.27221  0.50449  Biso   1.000  C
  O4       1.0000 0.56777  0.37479  0.31145  Biso   1.000  O
  H13      1.0000 0.23281  0.38940  0.49961  Biso   1.000  H
  C17      1.0000 0.29405  0.37351  0.57324  Biso   1.000  C
  N11      1.0000 0.31327  0.47450  0.59953  Biso   1.000  N
  O5       1.0000 0.31327  0.65219  0.57169  Biso   1.000  O
  C18      1.0000 0.66992  0.51122  0.33701  Biso   1.000  C
  H14      1.0000 0.66923  0.78598  0.35920  Biso   1.000  H
  H15      1.0000 0.62331  0.83923  0.40453  Biso   1.000  H
  N12      1.0000 0.65766  0.70304  0.43528  Biso   1.000  N
  N13      1.0000 0.34238  0.29696  0.56472  Biso   1.000  N
  O6       1.0000 0.38453  0.20324  0.48485  Biso   1.000  O
  H16      1.0000 0.25969  0.34262  0.59561  Biso   1.000  H
  C19      1.0000 0.33013  0.48878  0.66299  Biso   1.000  C
  H17      1.0000 0.69812  0.55153  0.31190  Biso   1.000  H
  H18      1.0000 0.67443  0.43642  0.32648  Biso   1.000  H
  N14      1.0000 0.68677  0.52550  0.40052  Biso   1.000  N
  C20      1.0000 0.70600  0.62649  0.42676  Biso   1.000  C
  C21      1.0000 0.64887  0.72779  0.49556  Biso   1.000  C
  C22      1.0000 0.36421  0.22831  0.61306  Biso   1.000  C
  H19      1.0000 0.30193  0.44847  0.68810  Biso   1.000  H
  H20      1.0000 0.32562  0.56358  0.67352  Biso   1.000  H
  N15      1.0000 0.39173  0.45558  0.67757  Biso   1.000  N
  C23      1.0000 0.69429  0.44161  0.43984  Biso   1.000  C
  C24      1.0000 0.72413  0.59567  0.49264  Biso   1.000  C
  H21      1.0000 0.74031  0.65738  0.40439  Biso   1.000  H
  N16      1.0000 0.68527  0.66241  0.52932  Biso   1.000  N
  O7       1.0000 0.61547  0.79676  0.51519  Biso   1.000  O
  H22      1.0000 0.33081  0.21402  0.64080  Biso   1.000  H
  H23      1.0000 0.37669  0.16077  0.59552  Biso   1.000  H
  N17      1.0000 0.41460  0.27213  0.64727  Biso   1.000  N
  C25      1.0000 0.40849  0.34853  0.69639  Biso   1.000  C
  C26      1.0000 0.43660  0.52798  0.69261  Biso   1.000  C
  N18      1.0000 0.71160  0.48272  0.49542  Biso   1.000  N
  O8       1.0000 0.68673  0.34773  0.42836  Biso   1.000  O
  H24      1.0000 0.76723  0.61060  0.50039  Biso   1.000  H
  C27      1.0000 0.69051  0.67359  0.59456  Biso   1.000  C
  C28      1.0000 0.47291  0.23972  0.63903  Biso   1.000  C
  H25      1.0000 0.38143  0.32178  0.72842  Biso   1.000  H
  C29      1.0000 0.47460  0.36050  0.71976  Biso   1.000  C
  N19      1.0000 0.48635  0.47394  0.71293  Biso   1.000  N
  O9       1.0000 0.43227  0.62521  0.68855  Biso   1.000  O
  C30      1.0000 0.72810  0.41478  0.54590  Biso   1.000  C
  N20      1.0000 0.65675  0.59392  0.62827  Biso   1.000  N
  H26      1.0000 0.73320  0.66896  0.60572  Biso   1.000  H
  H27      1.0000 0.67602  0.74391  0.60622  Biso   1.000  H
  N21      1.0000 0.50954  0.29185  0.67930  Biso   1.000  N
  O10      1.0000 0.49000  0.17227  0.60212  Biso   1.000  O
  H28      1.0000 0.47829  0.33791  0.76231  Biso   1.000  H
  C31      1.0000 0.53984  0.52750  0.73680  Biso   1.000  C
  N22      1.0000 0.68363  0.41343  0.59465  Biso   1.000  N
  H29      1.0000 0.73352  0.34246  0.53100  Biso   1.000  H
  H30      1.0000 0.76682  0.43857  0.56221  Biso   1.000  H
  C32      1.0000 0.68194  0.49046  0.64386  Biso   1.000  C
  C33      1.0000 0.60709  0.61906  0.66317  Biso   1.000  C
  C34      1.0000 0.57383  0.27054  0.68495  Biso   1.000  C
  H31      1.0000 0.55233  0.49222  0.77411  Biso   1.000  H
  H32      1.0000 0.52900  0.60038  0.74700  Biso   1.000  H
  N23      1.0000 0.59101  0.52926  0.69502  Biso   1.000  N
  C35      1.0000 0.64636  0.32817  0.60499  Biso   1.000  C
  C36      1.0000 0.63438  0.44368  0.68778  Biso   1.000  C
  H33      1.0000 0.72181  0.49749  0.66349  Biso   1.000  H
  O11      1.0000 0.58167  0.70536  0.66563  Biso   1.000  O
  H34      1.0000 0.58422  0.26670  0.72791  Biso   1.000  H
  H35      1.0000 0.58253  0.20140  0.66709  Biso   1.000  H
  N24      1.0000 0.61219  0.35004  0.65607  Biso   1.000  N
  O12      1.0000 0.64349  0.24731  0.57438  Biso   1.000  O
  H36      1.0000 0.65292  0.42436  0.72691  Biso   1.000  H
  C37      1.0000 0.19053  0.82638  0.40549  Biso   1.000  C
  N25      1.0000 0.15677  0.90604  0.37173  Biso   1.000  N
  H37      1.0000 0.23322  0.83101  0.39432  Biso   1.000  H
  H38      1.0000 0.17600  0.75613  0.39382  Biso   1.000  H
  N26      1.0000 0.18525  0.83763  0.47068  Biso   1.000  N
  C38      1.0000 0.10711  0.88090  0.33683  Biso   1.000  C
  C39      1.0000 0.18192  0.00950  0.35614  Biso   1.000  C
  C40      1.0000 0.14885  0.77217  0.50449  Biso   1.000  C
  C41      1.0000 0.22411  0.90429  0.50736  Biso   1.000  C
  O13      1.0000 0.08164  0.79460  0.33441  Biso   1.000  O
  N27      1.0000 0.09103  0.97070  0.30498  Biso   1.000  N
  C42      1.0000 0.13440  0.05628  0.31222  Biso   1.000  C
  H39      1.0000 0.22179  0.00247  0.33651  Biso   1.000  H
  N28      1.0000 0.18365  0.08661  0.40535  Biso   1.000  N
  N29      1.0000 0.15764  0.79692  0.56472  Biso   1.000  N
  O14      1.0000 0.11545  0.70320  0.48485  Biso   1.000  O
  H40      1.0000 0.26721  0.88936  0.49961  Biso   1.000  H
  C43      1.0000 0.20598  0.87347  0.57324  Biso   1.000  C
  N30      1.0000 0.21163  0.01724  0.50458  Biso   1.000  N
  C44      1.0000 0.03982  0.97246  0.26325  Biso   1.000  C
  H41      1.0000 0.15290  0.07560  0.27309  Biso   1.000  H
  N31      1.0000 0.11217  0.14992  0.34393  Biso   1.000  N
  C45      1.0000 0.14634  0.17179  0.39501  Biso   1.000  C
  C46      1.0000 0.22807  0.08518  0.45410  Biso   1.000  C
  C47      1.0000 0.13581  0.72827  0.61306  Biso   1.000  C
  H42      1.0000 0.24028  0.84258  0.59561  Biso   1.000  H
  N32      1.0000 0.18675  0.97454  0.59953  Biso   1.000  N
  C48      1.0000 0.19431  0.05843  0.56016  Biso   1.000  C
  H43      1.0000 0.02902  0.89958  0.25300  Biso   1.000  H
  N33      1.0000 0.98638  0.02602  0.28712  Biso   1.000  N
  H44      1.0000 0.05230  0.00782  0.22589  Biso   1.000  H
  C49      1.0000 0.07381  0.22950  0.31505  Biso   1.000  C
  O15      1.0000 0.14351  0.25265  0.42562  Biso   1.000  O
  H45      1.0000 0.23350  0.15750  0.46900  Biso   1.000  H
  H46      1.0000 0.26680  0.06139  0.43779  Biso   1.000  H
  H47      1.0000 0.16921  0.71398  0.64080  Biso   1.000  H
  H48      1.0000 0.12329  0.66081  0.59552  Biso   1.000  H
  N34      1.0000 0.08543  0.77209  0.64727  Biso   1.000  N
  C50      1.0000 0.16989  0.98882  0.66299  Biso   1.000  C
  O16      1.0000 0.18675  0.15223  0.57169  Biso   1.000  O
  C51      1.0000 0.93658  0.97198  0.30744  Biso   1.000  C
  C52      1.0000 0.97458  0.13954  0.28029  Biso   1.000  C
  N35      1.0000 0.00957  0.20819  0.32074  Biso   1.000  N
  H49      1.0000 0.08420  0.23334  0.27209  Biso   1.000  H
  H50      1.0000 0.08251  0.29863  0.33291  Biso   1.000  H
  C53      1.0000 0.02706  0.73968  0.63903  Biso   1.000  C
  C54      1.0000 0.09148  0.84849  0.69639  Biso   1.000  C
  H51      1.0000 0.19810  0.94851  0.68810  Biso   1.000  H
  N36      1.0000 0.10830  0.95562  0.67757  Biso   1.000  N
  H52      1.0000 0.17440  0.06362  0.67352  Biso   1.000  H
  O17      1.0000 0.93230  0.87483  0.31145  Biso   1.000  O
  N37      1.0000 0.89175  0.04438  0.32243  Biso   1.000  N
  C55      1.0000 0.90852  0.15151  0.30361  Biso   1.000  C
  H53      1.0000 0.97831  0.16213  0.23769  Biso   1.000  H
  C56      1.0000 0.97294  0.26032  0.36097  Biso   1.000  C
  O18      1.0000 0.01002  0.67231  0.60212  Biso   1.000  O
  N38      1.0000 0.99048  0.79181  0.67930  Biso   1.000  N
  H54      1.0000 0.11859  0.82182  0.72842  Biso   1.000  H
  C57      1.0000 0.02542  0.86046  0.71976  Biso   1.000  C
  C58      1.0000 0.06342  0.02802  0.69261  Biso   1.000  C
  C59      1.0000 0.83011  0.01118  0.33701  Biso   1.000  C
  H55      1.0000 0.88141  0.17818  0.27158  Biso   1.000  H
  N39      1.0000 0.91457  0.22791  0.35273  Biso   1.000  N
  O19      1.0000 0.98998  0.32769  0.39788  Biso   1.000  O
  C60      1.0000 0.92619  0.77050  0.68495  Biso   1.000  C
  H56      1.0000 0.02169  0.83787  0.76231  Biso   1.000  H
  N40      1.0000 0.01367  0.97390  0.71293  Biso   1.000  N
  O20      1.0000 0.06775  0.12517  0.68855  Biso   1.000  O
  H57      1.0000 0.82560  0.93638  0.32648  Biso   1.000  H
  H58      1.0000 0.80190  0.05149  0.31190  Biso   1.000  H
  N41      1.0000 0.81329  0.02546  0.40052  Biso   1.000  N
  C61      1.0000 0.86419  0.27173  0.38699  Biso   1.000  C
  H59      1.0000 0.91580  0.76666  0.72791  Biso   1.000  H
  H60      1.0000 0.91754  0.70137  0.66709  Biso   1.000  H
  N42      1.0000 0.88788  0.85008  0.65607  Biso   1.000  N
  C62      1.0000 0.96018  0.02746  0.73680  Biso   1.000  C
  C63      1.0000 0.80573  0.94157  0.43984  Biso   1.000  C
  C64      1.0000 0.79402  0.12653  0.42676  Biso   1.000  C
  H61      1.0000 0.83084  0.28602  0.35920  Biso   1.000  H
  H62      1.0000 0.87671  0.33919  0.40453  Biso   1.000  H
  N43      1.0000 0.84241  0.20300  0.43528  Biso   1.000  N
  C65      1.0000 0.85366  0.82821  0.60499  Biso   1.000  C
  C66      1.0000 0.86564  0.94372  0.68778  Biso   1.000  C
  H63      1.0000 0.94770  0.99218  0.77411  Biso   1.000  H
  H64      1.0000 0.97102  0.10042  0.74700  Biso   1.000  H
  N44      1.0000 0.90902  0.02930  0.69502  Biso   1.000  N
  N45      1.0000 0.78842  0.98276  0.49542  Biso   1.000  N
  O21      1.0000 0.81329  0.84777  0.42836  Biso   1.000  O
  C67      1.0000 0.77594  0.09571  0.49264  Biso   1.000  C
  H65      1.0000 0.75972  0.15742  0.40439  Biso   1.000  H
  C68      1.0000 0.85115  0.22783  0.49556  Biso   1.000  C
  N46      1.0000 0.81639  0.91339  0.59465  Biso   1.000  N
  O22      1.0000 0.85653  0.74727  0.57438  Biso   1.000  O
  C69      1.0000 0.81808  0.99050  0.64386  Biso   1.000  C
  H66      1.0000 0.84710  0.92440  0.72691  Biso   1.000  H
  C70      1.0000 0.89293  0.11910  0.66317  Biso   1.000  C
  C71      1.0000 0.77193  0.91482  0.54590  Biso   1.000  C
  H67      1.0000 0.73284  0.11056  0.50039  Biso   1.000  H
  N47      1.0000 0.81475  0.16237  0.52932  Biso   1.000  N
  O23      1.0000 0.88455  0.29680  0.51519  Biso   1.000  O
  N48      1.0000 0.84327  0.09396  0.62827  Biso   1.000  N
  H68      1.0000 0.77821  0.99753  0.66349  Biso   1.000  H
  O24      1.0000 0.91836  0.20540  0.66563  Biso   1.000  O
  H69      1.0000 0.76650  0.84250  0.53100  Biso   1.000  H
  H70      1.0000 0.73320  0.93861  0.56221  Biso   1.000  H
  C72      1.0000 0.80951  0.17362  0.59456  Biso   1.000  C
  H71      1.0000 0.76682  0.16899  0.60572  Biso   1.000  H
  H72      1.0000 0.82400  0.24387  0.60622  Biso   1.000  H
  O25      1.0000 0.43227  0.87483  0.18853  Biso   1.000  O
  C73      1.0000 0.43660  0.97198  0.19258  Biso   1.000  C
  N49      1.0000 0.39173  0.04438  0.17759  Biso   1.000  N
  N50      1.0000 0.48635  0.02602  0.21290  Biso   1.000  N
  C74      1.0000 0.33013  0.01118  0.16301  Biso   1.000  C
  C75      1.0000 0.40849  0.15151  0.19636  Biso   1.000  C
  C76      1.0000 0.47460  0.13954  0.21974  Biso   1.000  C
  C77      1.0000 0.53984  0.97246  0.23678  Biso   1.000  C
  N51      1.0000 0.31327  0.02546  0.09950  Biso   1.000  N
  H73      1.0000 0.32562  0.93638  0.17349  Biso   1.000  H
  H74      1.0000 0.30193  0.05149  0.18812  Biso   1.000  H
  N52      1.0000 0.41460  0.22791  0.14725  Biso   1.000  N
  H75      1.0000 0.38143  0.17818  0.22839  Biso   1.000  H
  H76      1.0000 0.47829  0.16213  0.26229  Biso   1.000  H
  N53      1.0000 0.50954  0.20819  0.17928  Biso   1.000  N
  H77      1.0000 0.52900  0.89958  0.24703  Biso   1.000  H
  N54      1.0000 0.59101  0.97070  0.19500  Biso   1.000  N
  H78      1.0000 0.55233  0.00782  0.27409  Biso   1.000  H
  C78      1.0000 0.30571  0.94157  0.06014  Biso   1.000  C
  C79      1.0000 0.29405  0.12653  0.07322  Biso   1.000  C
  C80      1.0000 0.36421  0.27173  0.11303  Biso   1.000  C
  C81      1.0000 0.47291  0.26032  0.13900  Biso   1.000  C
  C82      1.0000 0.57383  0.22950  0.18497  Biso   1.000  C
  C83      1.0000 0.60709  0.88090  0.16315  Biso   1.000  C
  C84      1.0000 0.63438  0.05628  0.18780  Biso   1.000  C
  O26      1.0000 0.31327  0.84777  0.07167  Biso   1.000  O
  N55      1.0000 0.28840  0.98276  0.00460  Biso   1.000  N
  C85      1.0000 0.27591  0.09571  0.00734  Biso   1.000  C
  H79      1.0000 0.25969  0.15742  0.09559  Biso   1.000  H
  N56      1.0000 0.34238  0.20300  0.06474  Biso   1.000  N
  H80      1.0000 0.33081  0.28602  0.14078  Biso   1.000  H
  H81      1.0000 0.37669  0.33919  0.09549  Biso   1.000  H
  O27      1.0000 0.49000  0.32769  0.10210  Biso   1.000  O
  H82      1.0000 0.58422  0.23334  0.22789  Biso   1.000  H
  H83      1.0000 0.58253  0.29863  0.16711  Biso   1.000  H
  N57      1.0000 0.61219  0.14992  0.15604  Biso   1.000  N
  N58      1.0000 0.65675  0.90604  0.12830  Biso   1.000  N
  O28      1.0000 0.58167  0.79460  0.16561  Biso   1.000  O
  H84      1.0000 0.65292  0.07560  0.22689  Biso   1.000  H
  C86      1.0000 0.68194  0.00950  0.14388  Biso   1.000  C
  C87      1.0000 0.27195  0.91482  0.95412  Biso   1.000  C
  H85      1.0000 0.23281  0.11056  0.99964  Biso   1.000  H
  N59      1.0000 0.31478  0.16237  0.97070  Biso   1.000  N
  C88      1.0000 0.35118  0.22783  0.00446  Biso   1.000  C
  C89      1.0000 0.64636  0.17179  0.10497  Biso   1.000  C
  C90      1.0000 0.69051  0.82638  0.09454  Biso   1.000  C
  H86      1.0000 0.72181  0.00247  0.16352  Biso   1.000  H
  N60      1.0000 0.68363  0.08661  0.09463  Biso   1.000  N
  H87      1.0000 0.26653  0.84250  0.96902  Biso   1.000  H
  H88      1.0000 0.23322  0.93861  0.93781  Biso   1.000  H
  N61      1.0000 0.31637  0.91339  0.90537  Biso   1.000  N
  C91      1.0000 0.30949  0.17362  0.90546  Biso   1.000  C
  O29      1.0000 0.38453  0.29680  0.98483  Biso   1.000  O
  O30      1.0000 0.64349  0.25265  0.07440  Biso   1.000  O
  H89      1.0000 0.73320  0.83101  0.10570  Biso   1.000  H
  H90      1.0000 0.67602  0.75613  0.10620  Biso   1.000  H
  N62      1.0000 0.68527  0.83763  0.02934  Biso   1.000  N
  C92      1.0000 0.72810  0.08518  0.04588  Biso   1.000  C
  C93      1.0000 0.35368  0.82821  0.89503  Biso   1.000  C
  C94      1.0000 0.31806  0.99050  0.85617  Biso   1.000  C
  N63      1.0000 0.34325  0.09396  0.87175  Biso   1.000  N
  H91      1.0000 0.26680  0.16899  0.89430  Biso   1.000  H
  H92      1.0000 0.32402  0.24387  0.89380  Biso   1.000  H
  C95      1.0000 0.64887  0.77217  0.99558  Biso   1.000  C
  C96      1.0000 0.72413  0.90429  0.99266  Biso   1.000  C
  N64      1.0000 0.71160  0.01724  0.99544  Biso   1.000  N
  H93      1.0000 0.73352  0.15750  0.03098  Biso   1.000  H
  H94      1.0000 0.76682  0.06139  0.06219  Biso   1.000  H
  N65      1.0000 0.38785  0.85008  0.84396  Biso   1.000  N
  O31      1.0000 0.35651  0.74727  0.92565  Biso   1.000  O
  C97      1.0000 0.36562  0.94372  0.81225  Biso   1.000  C
  H95      1.0000 0.27819  0.99753  0.83653  Biso   1.000  H
  C98      1.0000 0.39291  0.11910  0.83685  Biso   1.000  C
  N66      1.0000 0.65766  0.79692  0.93530  Biso   1.000  N
  O32      1.0000 0.61547  0.70320  0.01517  Biso   1.000  O
  C99      1.0000 0.70600  0.87347  0.92678  Biso   1.000  C
  H96      1.0000 0.76723  0.88936  0.00041  Biso   1.000  H
  C100     1.0000 0.69429  0.05843  0.93986  Biso   1.000  C
  C101     1.0000 0.42622  0.77050  0.81507  Biso   1.000  C
  H97      1.0000 0.34712  0.92440  0.77311  Biso   1.000  H
  N67      1.0000 0.40899  0.02930  0.80500  Biso   1.000  N
  O33      1.0000 0.41833  0.20540  0.83439  Biso   1.000  O
  C102     1.0000 0.63584  0.72827  0.88697  Biso   1.000  C
  N68      1.0000 0.68677  0.97454  0.90050  Biso   1.000  N
  H98      1.0000 0.74031  0.84258  0.90441  Biso   1.000  H
  O34      1.0000 0.68673  0.15223  0.92833  Biso   1.000  O
  H99      1.0000 0.41583  0.76666  0.77211  Biso   1.000  H
  H100     1.0000 0.41751  0.70137  0.83293  Biso   1.000  H
  N69      1.0000 0.49046  0.79181  0.82077  Biso   1.000  N
  C103     1.0000 0.46020  0.02746  0.76322  Biso   1.000  C
  N70      1.0000 0.58545  0.77209  0.85275  Biso   1.000  N
  H101     1.0000 0.66923  0.71398  0.85922  Biso   1.000  H
  H102     1.0000 0.62331  0.66081  0.90451  Biso   1.000  H
  C104     1.0000 0.66992  0.98882  0.83703  Biso   1.000  C
  C105     1.0000 0.52709  0.73968  0.86100  Biso   1.000  C
  C106     1.0000 0.52545  0.86046  0.78026  Biso   1.000  C
  H103     1.0000 0.44772  0.99218  0.72591  Biso   1.000  H
  N71      1.0000 0.51365  0.97390  0.78714  Biso   1.000  N
  H104     1.0000 0.47100  0.10042  0.75302  Biso   1.000  H
  C107     1.0000 0.59151  0.84849  0.80364  Biso   1.000  C
  N72      1.0000 0.60827  0.95562  0.82245  Biso   1.000  N
  H105     1.0000 0.69812  0.94851  0.81193  Biso   1.000  H
  H106     1.0000 0.67443  0.06362  0.82651  Biso   1.000  H
  O35      1.0000 0.51005  0.67231  0.89790  Biso   1.000  O
  H107     1.0000 0.52171  0.83787  0.73771  Biso   1.000  H
  C108     1.0000 0.56344  0.02802  0.80742  Biso   1.000  C
  H108     1.0000 0.61862  0.82182  0.77161  Biso   1.000  H
  O36      1.0000 0.56777  0.12517  0.81147  Biso   1.000  O
  C109     1.0000 0.16989  0.51122  0.16301  Biso   1.000  C
  H109     1.0000 0.19810  0.55153  0.18812  Biso   1.000  H
  H110     1.0000 0.17440  0.43642  0.17349  Biso   1.000  H
  N73      1.0000 0.10830  0.54442  0.17759  Biso   1.000  N
  N74      1.0000 0.18675  0.52550  0.09950  Biso   1.000  N
  C110     1.0000 0.06342  0.47202  0.19258  Biso   1.000  C
  C111     1.0000 0.09148  0.65147  0.19636  Biso   1.000  C
  C112     1.0000 0.19431  0.44161  0.06014  Biso   1.000  C
  C113     1.0000 0.20598  0.62649  0.07322  Biso   1.000  C
  N75      1.0000 0.01367  0.52606  0.21290  Biso   1.000  N
  O37      1.0000 0.06775  0.37479  0.18853  Biso   1.000  O
  H111     1.0000 0.11859  0.67822  0.22839  Biso   1.000  H
  C114     1.0000 0.02542  0.63950  0.21974  Biso   1.000  C
  N76      1.0000 0.08543  0.72787  0.14725  Biso   1.000  N
  N77      1.0000 0.21163  0.48272  0.00460  Biso   1.000  N
  O38      1.0000 0.18675  0.34773  0.07167  Biso   1.000  O
  C115     1.0000 0.22411  0.59567  0.00734  Biso   1.000  C
  H112     1.0000 0.24028  0.65738  0.09559  Biso   1.000  H
  N78      1.0000 0.15764  0.70304  0.06474  Biso   1.000  N
  C116     1.0000 0.96018  0.47250  0.23678  Biso   1.000  C
  H113     1.0000 0.02169  0.66209  0.26229  Biso   1.000  H
  N79      1.0000 0.99048  0.70815  0.17928  Biso   1.000  N
  C117     1.0000 0.02706  0.76028  0.13900  Biso   1.000  C
  C118     1.0000 0.13581  0.77169  0.11303  Biso   1.000  C
  C119     1.0000 0.22807  0.41478  0.95412  Biso   1.000  C
  H114     1.0000 0.26721  0.61060  0.99964  Biso   1.000  H
  N80      1.0000 0.18525  0.66241  0.97070  Biso   1.000  N
  C120     1.0000 0.14885  0.72779  0.00446  Biso   1.000  C
  H115     1.0000 0.94770  0.50778  0.27409  Biso   1.000  H
  H116     1.0000 0.97102  0.39962  0.24703  Biso   1.000  H
  N81      1.0000 0.90902  0.47074  0.19500  Biso   1.000  N
  C121     1.0000 0.92619  0.72946  0.18497  Biso   1.000  C
  O39      1.0000 0.01002  0.82773  0.10210  Biso   1.000  O
  H117     1.0000 0.16921  0.78598  0.14078  Biso   1.000  H
  H118     1.0000 0.12329  0.83923  0.09549  Biso   1.000  H
  H119     1.0000 0.23350  0.34246  0.96902  Biso   1.000  H
  H120     1.0000 0.26680  0.43857  0.93781  Biso   1.000  H
  N82      1.0000 0.18365  0.41343  0.90537  Biso   1.000  N
  C122     1.0000 0.19053  0.67359  0.90546  Biso   1.000  C
  O40      1.0000 0.11545  0.79676  0.98483  Biso   1.000  O
  C123     1.0000 0.89293  0.38086  0.16315  Biso   1.000  C
  C124     1.0000 0.86564  0.55632  0.18780  Biso   1.000  C
  H121     1.0000 0.91580  0.73330  0.22789  Biso   1.000  H
  H122     1.0000 0.91754  0.79860  0.16711  Biso   1.000  H
  N83      1.0000 0.88788  0.64996  0.15604  Biso   1.000  N
  C125     1.0000 0.14634  0.32817  0.89503  Biso   1.000  C
  C126     1.0000 0.18192  0.49046  0.85617  Biso   1.000  C
  H123     1.0000 0.23322  0.66896  0.89430  Biso   1.000  H
  H124     1.0000 0.17600  0.74391  0.89380  Biso   1.000  H
  N84      1.0000 0.15677  0.59392  0.87175  Biso   1.000  N
  N85      1.0000 0.84327  0.40608  0.12830  Biso   1.000  N
  O41      1.0000 0.91836  0.29464  0.16561  Biso   1.000  O
  H125     1.0000 0.84710  0.57556  0.22689  Biso   1.000  H
  C127     1.0000 0.81808  0.50946  0.14388  Biso   1.000  C
  C128     1.0000 0.85366  0.67183  0.10497  Biso   1.000  C
  N86      1.0000 0.11217  0.35004  0.84396  Biso   1.000  N
  O42      1.0000 0.14351  0.24731  0.92565  Biso   1.000  O
  C129     1.0000 0.13440  0.44368  0.81225  Biso   1.000  C
  H126     1.0000 0.22179  0.49749  0.83653  Biso   1.000  H
  C130     1.0000 0.10711  0.61906  0.83685  Biso   1.000  C
  C131     1.0000 0.80951  0.32641  0.09454  Biso   1.000  C
  H127     1.0000 0.77821  0.50251  0.16352  Biso   1.000  H
  N87      1.0000 0.81639  0.58657  0.09463  Biso   1.000  N
  O43      1.0000 0.85653  0.75269  0.07440  Biso   1.000  O
  C132     1.0000 0.07381  0.27054  0.81507  Biso   1.000  C
  H128     1.0000 0.15290  0.42436  0.77311  Biso   1.000  H
  N88      1.0000 0.09103  0.52926  0.80500  Biso   1.000  N
  O44      1.0000 0.08164  0.70536  0.83439  Biso   1.000  O
  H129     1.0000 0.76682  0.33097  0.10570  Biso   1.000  H
  H130     1.0000 0.82400  0.25609  0.10620  Biso   1.000  H
  N89      1.0000 0.81475  0.33759  0.02934  Biso   1.000  N
  C133     1.0000 0.77193  0.58522  0.04588  Biso   1.000  C
  H131     1.0000 0.08420  0.26670  0.77211  Biso   1.000  H
  H132     1.0000 0.08251  0.20140  0.83293  Biso   1.000  H
  N90      1.0000 0.00957  0.29185  0.82077  Biso   1.000  N
  C134     1.0000 0.03982  0.52750  0.76322  Biso   1.000  C
  C135     1.0000 0.85115  0.27221  0.99558  Biso   1.000  C
  C136     1.0000 0.77594  0.40433  0.99266  Biso   1.000  C
  N91      1.0000 0.78842  0.51728  0.99544  Biso   1.000  N
  H133     1.0000 0.76650  0.65746  0.03098  Biso   1.000  H
  H134     1.0000 0.73320  0.56143  0.06219  Biso   1.000  H
  C137     1.0000 0.97294  0.23972  0.86100  Biso   1.000  C
  C138     1.0000 0.97458  0.36050  0.78026  Biso   1.000  C
  N92      1.0000 0.98638  0.47394  0.78714  Biso   1.000  N
  H135     1.0000 0.05230  0.49222  0.72591  Biso   1.000  H
  H136     1.0000 0.02902  0.60038  0.75302  Biso   1.000  H
  N93      1.0000 0.84241  0.29696  0.93530  Biso   1.000  N
  O45      1.0000 0.88455  0.20324  0.01517  Biso   1.000  O
  C139     1.0000 0.79402  0.37351  0.92678  Biso   1.000  C
  H137     1.0000 0.73284  0.38940  0.00041  Biso   1.000  H
  C140     1.0000 0.80573  0.55839  0.93986  Biso   1.000  C
  N94      1.0000 0.91457  0.27213  0.85275  Biso   1.000  N
  O46      1.0000 0.98998  0.17227  0.89790  Biso   1.000  O
  C141     1.0000 0.90852  0.34853  0.80364  Biso   1.000  C
  H138     1.0000 0.97831  0.33791  0.73771  Biso   1.000  H
  C142     1.0000 0.93658  0.52798  0.80742  Biso   1.000  C
  C143     1.0000 0.86419  0.22831  0.88697  Biso   1.000  C
  H139     1.0000 0.75972  0.34262  0.90441  Biso   1.000  H
  N95      1.0000 0.81329  0.47450  0.90050  Biso   1.000  N
  O47      1.0000 0.81329  0.65219  0.92833  Biso   1.000  O
  H140     1.0000 0.88141  0.32178  0.77161  Biso   1.000  H
  N96      1.0000 0.89175  0.45558  0.82245  Biso   1.000  N
  O48      1.0000 0.93230  0.62521  0.81147  Biso   1.000  O
  H141     1.0000 0.83084  0.21402  0.85922  Biso   1.000  H
  H142     1.0000 0.87671  0.16077  0.90451  Biso   1.000  H
  C144     1.0000 0.83011  0.48878  0.83703  Biso   1.000  C
  H143     1.0000 0.80190  0.44847  0.81193  Biso   1.000  H
  H144     1.0000 0.82560  0.56358  0.82651  Biso   1.000  H
