data_image0
_cell_length_a       21.949
_cell_length_b       12.527
_cell_length_c       21.949
_cell_angle_alpha    90
_cell_angle_beta     90
_cell_angle_gamma    90

_symmetry_space_group_name_H-M    "P 1"
_symmetry_int_tables_number       1

loop_
  _symmetry_equiv_pos_as_xyz
  'x, y, z'

loop_
  _atom_site_label
  _atom_site_occupancy
  _atom_site_fract_x
  _atom_site_fract_y
  _atom_site_fract_z
  _atom_site_thermal_displace_type
  _atom_site_B_iso_or_equiv
  _atom_site_type_symbol
  C1       1.0000 0.66992  0.51122  0.33701  Biso   1.000  C
  N1       1.0000 0.60827  0.54442  0.32243  Biso   1.000  N
  H1       1.0000 0.69812  0.55153  0.31190  Biso   1.000  H
  H2       1.0000 0.67443  0.43642  0.32648  Biso   1.000  H
  N2       1.0000 0.68677  0.52550  0.40052  Biso   1.000  N
  C2       1.0000 0.56344  0.47202  0.30744  Biso   1.000  C
  C3       1.0000 0.59151  0.65147  0.30361  Biso   1.000  C
  C4       1.0000 0.69429  0.44161  0.43984  Biso   1.000  C
  C5       1.0000 0.70600  0.62649  0.42676  Biso   1.000  C
  N3       1.0000 0.51365  0.52606  0.28712  Biso   1.000  N
  O1       1.0000 0.56777  0.37479  0.31145  Biso   1.000  O
  C6       1.0000 0.52545  0.63950  0.28029  Biso   1.000  C
  H3       1.0000 0.61862  0.67822  0.27158  Biso   1.000  H
  N4       1.0000 0.58545  0.72787  0.35273  Biso   1.000  N
  N5       1.0000 0.71160  0.48272  0.49542  Biso   1.000  N
  O2       1.0000 0.68673  0.34773  0.42836  Biso   1.000  O
  N6       1.0000 0.65766  0.70304  0.43528  Biso   1.000  N
  C7       1.0000 0.72413  0.59567  0.49264  Biso   1.000  C
  H4       1.0000 0.74031  0.65738  0.40439  Biso   1.000  H
  C8       1.0000 0.46020  0.47250  0.26325  Biso   1.000  C
  N7       1.0000 0.49046  0.70815  0.32074  Biso   1.000  N
  H5       1.0000 0.52171  0.66209  0.23769  Biso   1.000  H
  C9       1.0000 0.52709  0.76028  0.36097  Biso   1.000  C
  C10      1.0000 0.63584  0.77169  0.38699  Biso   1.000  C
  C11      1.0000 0.72810  0.41478  0.54590  Biso   1.000  C
  C12      1.0000 0.64887  0.72779  0.49556  Biso   1.000  C
  H6       1.0000 0.76723  0.61060  0.50039  Biso   1.000  H
  N8       1.0000 0.68527  0.66241  0.52932  Biso   1.000  N
  N9       1.0000 0.40899  0.47074  0.30498  Biso   1.000  N
  H7       1.0000 0.44772  0.50778  0.22589  Biso   1.000  H
  H8       1.0000 0.47100  0.39962  0.25300  Biso   1.000  H
  C13      1.0000 0.42622  0.72946  0.31505  Biso   1.000  C
  O3       1.0000 0.51005  0.82773  0.39788  Biso   1.000  O
  H9       1.0000 0.66923  0.78598  0.35920  Biso   1.000  H
  H10      1.0000 0.62331  0.83923  0.40453  Biso   1.000  H
  N10      1.0000 0.68363  0.41343  0.59465  Biso   1.000  N
  H11      1.0000 0.73352  0.34246  0.53100  Biso   1.000  H
  H12      1.0000 0.76682  0.43857  0.56221  Biso   1.000  H
  O4       1.0000 0.61547  0.79676  0.51519  Biso   1.000  O
  C14      1.0000 0.69051  0.67359  0.59456  Biso   1.000  C
  C15      1.0000 0.39291  0.38086  0.33683  Biso   1.000  C
  C16      1.0000 0.36562  0.55632  0.31222  Biso   1.000  C
  N11      1.0000 0.38785  0.64996  0.34393  Biso   1.000  N
  H13      1.0000 0.41583  0.73330  0.27209  Biso   1.000  H
  H14      1.0000 0.41751  0.79860  0.33291  Biso   1.000  H
  C17      1.0000 0.64636  0.32817  0.60499  Biso   1.000  C
  C18      1.0000 0.68194  0.49046  0.64386  Biso   1.000  C
  N12      1.0000 0.65675  0.59392  0.62827  Biso   1.000  N
  H15      1.0000 0.73320  0.66896  0.60572  Biso   1.000  H
  H16      1.0000 0.67602  0.74391  0.60622  Biso   1.000  H
  N13      1.0000 0.34325  0.40608  0.37173  Biso   1.000  N
  O5       1.0000 0.41833  0.29464  0.33441  Biso   1.000  O
  C19      1.0000 0.31806  0.50946  0.35614  Biso   1.000  C
  H17      1.0000 0.34712  0.57556  0.27309  Biso   1.000  H
  C20      1.0000 0.35368  0.67183  0.39501  Biso   1.000  C
  N14      1.0000 0.61219  0.35004  0.65607  Biso   1.000  N
  O6       1.0000 0.64349  0.24731  0.57438  Biso   1.000  O
  C21      1.0000 0.63438  0.44368  0.68778  Biso   1.000  C
  H18      1.0000 0.72181  0.49749  0.66349  Biso   1.000  H
  C22      1.0000 0.60709  0.61906  0.66317  Biso   1.000  C
  C23      1.0000 0.30949  0.32641  0.40549  Biso   1.000  C
  H19      1.0000 0.27819  0.50251  0.33651  Biso   1.000  H
  N15      1.0000 0.31637  0.58657  0.40535  Biso   1.000  N
  O7       1.0000 0.35651  0.75269  0.42562  Biso   1.000  O
  C24      1.0000 0.57383  0.27054  0.68495  Biso   1.000  C
  N16      1.0000 0.59101  0.52926  0.69502  Biso   1.000  N
  H20      1.0000 0.65292  0.42436  0.72691  Biso   1.000  H
  O8       1.0000 0.58167  0.70536  0.66563  Biso   1.000  O
  H21      1.0000 0.26680  0.33097  0.39432  Biso   1.000  H
  H22      1.0000 0.32402  0.25609  0.39382  Biso   1.000  H
  N17      1.0000 0.31478  0.33759  0.47068  Biso   1.000  N
  C25      1.0000 0.27195  0.58522  0.45410  Biso   1.000  C
  N18      1.0000 0.50954  0.29185  0.67930  Biso   1.000  N
  H23      1.0000 0.58422  0.26670  0.72791  Biso   1.000  H
  H24      1.0000 0.58253  0.20140  0.66709  Biso   1.000  H
  C26      1.0000 0.53984  0.52750  0.73680  Biso   1.000  C
  C27      1.0000 0.35118  0.27221  0.50449  Biso   1.000  C
  C28      1.0000 0.27591  0.40433  0.50736  Biso   1.000  C
  N19      1.0000 0.28840  0.51728  0.50458  Biso   1.000  N
  H25      1.0000 0.26653  0.65746  0.46900  Biso   1.000  H
  H26      1.0000 0.23322  0.56143  0.43779  Biso   1.000  H
  C29      1.0000 0.47291  0.23972  0.63903  Biso   1.000  C
  C30      1.0000 0.47460  0.36050  0.71976  Biso   1.000  C
  N20      1.0000 0.48635  0.47394  0.71293  Biso   1.000  N
  H27      1.0000 0.55233  0.49222  0.77411  Biso   1.000  H
  H28      1.0000 0.52900  0.60038  0.74700  Biso   1.000  H
  N21      1.0000 0.34238  0.29696  0.56472  Biso   1.000  N
  O9       1.0000 0.38453  0.20324  0.48485  Biso   1.000  O
  H29      1.0000 0.23281  0.38940  0.49961  Biso   1.000  H
  C31      1.0000 0.29405  0.37351  0.57324  Biso   1.000  C
  C32      1.0000 0.30571  0.55839  0.56016  Biso   1.000  C
  N22      1.0000 0.41460  0.27213  0.64727  Biso   1.000  N
  O10      1.0000 0.49000  0.17227  0.60212  Biso   1.000  O
  C33      1.0000 0.40849  0.34853  0.69639  Biso   1.000  C
  H30      1.0000 0.47829  0.33791  0.76231  Biso   1.000  H
  C34      1.0000 0.43660  0.52798  0.69261  Biso   1.000  C
  C35      1.0000 0.36421  0.22831  0.61306  Biso   1.000  C
  H31      1.0000 0.25969  0.34262  0.59561  Biso   1.000  H
  N23      1.0000 0.31327  0.47450  0.59953  Biso   1.000  N
  O11      1.0000 0.31327  0.65219  0.57169  Biso   1.000  O
  N24      1.0000 0.39173  0.45558  0.67757  Biso   1.000  N
  H32      1.0000 0.38143  0.32178  0.72842  Biso   1.000  H
  O12      1.0000 0.43227  0.62521  0.68855  Biso   1.000  O
  H33      1.0000 0.33081  0.21402  0.64080  Biso   1.000  H
  H34      1.0000 0.37669  0.16077  0.59552  Biso   1.000  H
  C36      1.0000 0.33013  0.48878  0.66299  Biso   1.000  C
  H35      1.0000 0.30193  0.44847  0.68810  Biso   1.000  H
  H36      1.0000 0.32562  0.56358  0.67352  Biso   1.000  H
  C37      1.0000 0.81808  0.50946  0.14388  Biso   1.000  C
  H37      1.0000 0.77821  0.50251  0.16352  Biso   1.000  H
  C38      1.0000 0.86560  0.55632  0.18780  Biso   1.000  C
  N25      1.0000 0.84323  0.40608  0.12830  Biso   1.000  N
  N26      1.0000 0.81635  0.58657  0.09467  Biso   1.000  N
  C39      1.0000 0.86564  0.55632  0.18780  Biso   1.000  C
  N27      1.0000 0.84327  0.40608  0.12830  Biso   1.000  N
  N28      1.0000 0.81639  0.58657  0.09467  Biso   1.000  N
  N29      1.0000 0.88783  0.64996  0.15604  Biso   1.000  N
  H38      1.0000 0.84710  0.57556  0.22694  Biso   1.000  H
  N30      1.0000 0.88783  0.64996  0.15609  Biso   1.000  N
  N31      1.0000 0.90897  0.47074  0.19504  Biso   1.000  N
  N32      1.0000 0.88788  0.64996  0.15604  Biso   1.000  N
  N33      1.0000 0.88788  0.64996  0.15609  Biso   1.000  N
  N34      1.0000 0.90902  0.47074  0.19504  Biso   1.000  N
  C40      1.0000 0.85366  0.67183  0.10497  Biso   1.000  C
  C41      1.0000 0.77193  0.58522  0.04588  Biso   1.000  C
  C42      1.0000 0.85366  0.67183  0.10502  Biso   1.000  C
  C43      1.0000 0.77193  0.58522  0.04592  Biso   1.000  C
  C44      1.0000 0.80947  0.32641  0.09454  Biso   1.000  C
  C45      1.0000 0.89289  0.38086  0.16320  Biso   1.000  C
  C46      1.0000 0.80951  0.32641  0.09454  Biso   1.000  C
  C47      1.0000 0.89293  0.38086  0.16320  Biso   1.000  C
  C48      1.0000 0.92619  0.72946  0.18497  Biso   1.000  C
  C49      1.0000 0.96018  0.47250  0.23678  Biso   1.000  C
  O13      1.0000 0.85649  0.75269  0.07440  Biso   1.000  O
  O14      1.0000 0.85653  0.75269  0.07440  Biso   1.000  O
  N35      1.0000 0.78837  0.51728  0.99540  Biso   1.000  N
  N36      1.0000 0.78837  0.51728  0.99544  Biso   1.000  N
  N37      1.0000 0.78842  0.51728  0.99540  Biso   1.000  N
  N38      1.0000 0.78842  0.51728  0.99544  Biso   1.000  N
  H39      1.0000 0.76650  0.65746  0.03098  Biso   1.000  H
  H40      1.0000 0.73320  0.56143  0.06219  Biso   1.000  H
  H41      1.0000 0.76650  0.65746  0.03103  Biso   1.000  H
  H42      1.0000 0.73320  0.56143  0.06224  Biso   1.000  H
  O15      1.0000 0.91836  0.29464  0.16561  Biso   1.000  O
  H43      1.0000 0.82400  0.25609  0.10620  Biso   1.000  H
  N39      1.0000 0.81475  0.33759  0.02934  Biso   1.000  N
  H44      1.0000 0.76678  0.33097  0.10570  Biso   1.000  H
  H45      1.0000 0.76682  0.33097  0.10570  Biso   1.000  H
  H46      1.0000 0.91580  0.73330  0.22789  Biso   1.000  H
  H47      1.0000 0.91580  0.73330  0.22794  Biso   1.000  H
  H48      1.0000 0.91754  0.79860  0.16711  Biso   1.000  H
  N40      1.0000 0.99048  0.70815  0.17928  Biso   1.000  N
  H49      1.0000 0.94770  0.50778  0.27409  Biso   1.000  H
  H50      1.0000 0.94770  0.50778  0.27414  Biso   1.000  H
  H51      1.0000 0.97102  0.39962  0.24703  Biso   1.000  H
  N41      1.0000 0.01367  0.52606  0.21290  Biso   1.000  N
  C50      1.0000 0.80573  0.55839  0.93986  Biso   1.000  C
  C51      1.0000 0.77594  0.40433  0.99266  Biso   1.000  C
  C52      1.0000 0.85115  0.27221  0.99554  Biso   1.000  C
  C53      1.0000 0.85115  0.27221  0.99558  Biso   1.000  C
  C54      1.0000 0.02706  0.76028  0.13905  Biso   1.000  C
  C55      1.0000 0.02711  0.76028  0.13905  Biso   1.000  C
  C56      1.0000 0.02547  0.63950  0.21978  Biso   1.000  C
  C57      1.0000 0.06342  0.47202  0.19258  Biso   1.000  C
  N42      1.0000 0.81329  0.47450  0.90050  Biso   1.000  N
  O16      1.0000 0.81329  0.65219  0.92833  Biso   1.000  O
  C58      1.0000 0.79402  0.37351  0.92678  Biso   1.000  C
  H52      1.0000 0.73279  0.38940  0.00041  Biso   1.000  H
  H53      1.0000 0.73284  0.38940  0.00041  Biso   1.000  H
  O17      1.0000 0.88455  0.20324  0.01517  Biso   1.000  O
  N43      1.0000 0.84241  0.29696  0.93526  Biso   1.000  N
  N44      1.0000 0.84241  0.29696  0.93530  Biso   1.000  N
  O18      1.0000 0.01002  0.82773  0.10215  Biso   1.000  O
  N45      1.0000 0.08547  0.72787  0.14730  Biso   1.000  N
  C59      1.0000 0.09153  0.65147  0.19636  Biso   1.000  C
  H54      1.0000 0.02173  0.66209  0.26229  Biso   1.000  H
  C60      1.0000 0.09153  0.65147  0.19641  Biso   1.000  C
  H55      1.0000 0.02173  0.66209  0.26234  Biso   1.000  H
  N46      1.0000 0.10830  0.54442  0.17759  Biso   1.000  N
  O19      1.0000 0.06775  0.37479  0.18853  Biso   1.000  O
  O20      1.0000 0.06775  0.37479  0.18857  Biso   1.000  O
  C61      1.0000 0.83011  0.48878  0.83703  Biso   1.000  C
  H56      1.0000 0.75972  0.34262  0.90441  Biso   1.000  H
  C62      1.0000 0.86419  0.22831  0.88697  Biso   1.000  C
  C63      1.0000 0.13581  0.77169  0.11303  Biso   1.000  C
  C64      1.0000 0.13581  0.77169  0.11308  Biso   1.000  C
  H57      1.0000 0.11859  0.67822  0.22839  Biso   1.000  H
  H58      1.0000 0.11859  0.67822  0.22844  Biso   1.000  H
  H59      1.0000 0.11864  0.67822  0.22839  Biso   1.000  H
  H60      1.0000 0.11864  0.67822  0.22844  Biso   1.000  H
  C65      1.0000 0.16989  0.51122  0.16301  Biso   1.000  C
  H61      1.0000 0.82560  0.56358  0.82651  Biso   1.000  H
  N47      1.0000 0.89170  0.45558  0.82241  Biso   1.000  N
  H62      1.0000 0.80190  0.44847  0.81193  Biso   1.000  H
  N48      1.0000 0.89170  0.45558  0.82245  Biso   1.000  N
  N49      1.0000 0.89175  0.45558  0.82241  Biso   1.000  N
  N50      1.0000 0.89175  0.45558  0.82245  Biso   1.000  N
  N51      1.0000 0.91457  0.27213  0.85275  Biso   1.000  N
  H63      1.0000 0.83079  0.21402  0.85922  Biso   1.000  H
  H64      1.0000 0.87671  0.16077  0.90451  Biso   1.000  H
  H65      1.0000 0.83084  0.21402  0.85922  Biso   1.000  H
  H66      1.0000 0.16921  0.78598  0.14078  Biso   1.000  H
  N52      1.0000 0.15764  0.70304  0.06474  Biso   1.000  N
  H67      1.0000 0.16921  0.78598  0.14083  Biso   1.000  H
  H68      1.0000 0.12333  0.83923  0.09554  Biso   1.000  H
  N53      1.0000 0.18675  0.52550  0.09950  Biso   1.000  N
  H69      1.0000 0.17440  0.43642  0.17349  Biso   1.000  H
  H70      1.0000 0.17440  0.43642  0.17354  Biso   1.000  H
  H71      1.0000 0.19814  0.55153  0.18812  Biso   1.000  H
  C66      1.0000 0.93658  0.52798  0.80742  Biso   1.000  C
  C67      1.0000 0.90852  0.34853  0.80364  Biso   1.000  C
  C68      1.0000 0.97294  0.23972  0.86100  Biso   1.000  C
  C69      1.0000 0.14885  0.72779  0.00446  Biso   1.000  C
  C70      1.0000 0.20598  0.62649  0.07322  Biso   1.000  C
  C71      1.0000 0.20598  0.62649  0.07326  Biso   1.000  C
  C72      1.0000 0.19431  0.44161  0.06018  Biso   1.000  C
  O21      1.0000 0.93225  0.62521  0.81147  Biso   1.000  O
  N54      1.0000 0.98638  0.47394  0.78710  Biso   1.000  N
  O22      1.0000 0.93230  0.62521  0.81147  Biso   1.000  O
  N55      1.0000 0.98638  0.47394  0.78714  Biso   1.000  N
  H72      1.0000 0.88141  0.32178  0.77161  Biso   1.000  H
  C73      1.0000 0.97458  0.36050  0.78026  Biso   1.000  C
  O23      1.0000 0.98998  0.17227  0.89790  Biso   1.000  O
  N56      1.0000 0.00957  0.29185  0.82077  Biso   1.000  N
  O24      1.0000 0.11545  0.79676  0.98483  Biso   1.000  O
  N57      1.0000 0.18529  0.66241  0.97066  Biso   1.000  N
  O25      1.0000 0.11550  0.79676  0.98483  Biso   1.000  O
  N58      1.0000 0.18529  0.66241  0.97070  Biso   1.000  N
  C74      1.0000 0.22411  0.59567  0.00734  Biso   1.000  C
  H73      1.0000 0.24028  0.65738  0.09559  Biso   1.000  H
  C75      1.0000 0.22411  0.59567  0.00738  Biso   1.000  C
  H74      1.0000 0.24028  0.65738  0.09563  Biso   1.000  H
  H75      1.0000 0.24033  0.65738  0.09559  Biso   1.000  H
  H76      1.0000 0.24033  0.65738  0.09563  Biso   1.000  H
  N59      1.0000 0.21163  0.48272  0.00460  Biso   1.000  N
  O26      1.0000 0.18675  0.34773  0.07167  Biso   1.000  O
  O27      1.0000 0.18675  0.34773  0.07171  Biso   1.000  O
  C76      1.0000 0.03982  0.52750  0.76322  Biso   1.000  C
  H77      1.0000 0.97831  0.33791  0.73771  Biso   1.000  H
  C77      1.0000 0.07381  0.27054  0.81507  Biso   1.000  C
  C78      1.0000 0.19053  0.67359  0.90546  Biso   1.000  C
  H78      1.0000 0.26721  0.61060  0.99964  Biso   1.000  H
  C79      1.0000 0.22807  0.41478  0.95412  Biso   1.000  C
  H79      1.0000 0.05230  0.49222  0.72591  Biso   1.000  H
  N60      1.0000 0.09103  0.52926  0.80500  Biso   1.000  N
  H80      1.0000 0.02902  0.60038  0.75302  Biso   1.000  H
  H81      1.0000 0.08251  0.20140  0.83289  Biso   1.000  H
  N61      1.0000 0.11217  0.35004  0.84396  Biso   1.000  N
  H82      1.0000 0.08251  0.20140  0.83293  Biso   1.000  H
  H83      1.0000 0.08424  0.26670  0.77211  Biso   1.000  H
  H84      1.0000 0.23322  0.66896  0.89430  Biso   1.000  H
  H85      1.0000 0.17600  0.74391  0.89380  Biso   1.000  H
  N62      1.0000 0.15677  0.59392  0.87175  Biso   1.000  N
  H86      1.0000 0.26680  0.43857  0.93781  Biso   1.000  H
  N63      1.0000 0.18365  0.41343  0.90537  Biso   1.000  N
  H87      1.0000 0.23354  0.34246  0.96902  Biso   1.000  H
  C80      1.0000 0.10711  0.61906  0.83685  Biso   1.000  C
  C81      1.0000 0.13440  0.44368  0.81225  Biso   1.000  C
  C82      1.0000 0.14634  0.32817  0.89503  Biso   1.000  C
  C83      1.0000 0.18192  0.49046  0.85617  Biso   1.000  C
  C84      1.0000 0.18197  0.49046  0.85617  Biso   1.000  C
  O28      1.0000 0.08164  0.70536  0.83439  Biso   1.000  O
  O29      1.0000 0.08169  0.70536  0.83439  Biso   1.000  O
  H88      1.0000 0.15290  0.42436  0.77311  Biso   1.000  H
  O30      1.0000 0.14351  0.24731  0.92560  Biso   1.000  O
  O31      1.0000 0.14351  0.24731  0.92565  Biso   1.000  O
  H89      1.0000 0.22179  0.49749  0.83653  Biso   1.000  H
  H90      1.0000 0.22183  0.49749  0.83653  Biso   1.000  H
  C85      1.0000 0.57383  0.22950  0.18497  Biso   1.000  C
  N64      1.0000 0.50954  0.20819  0.17928  Biso   1.000  N
  N65      1.0000 0.61219  0.14992  0.15604  Biso   1.000  N
  N66      1.0000 0.61219  0.14992  0.15609  Biso   1.000  N
  H91      1.0000 0.58422  0.23326  0.22789  Biso   1.000  H
  H92      1.0000 0.58253  0.29856  0.16711  Biso   1.000  H
  H93      1.0000 0.58422  0.23326  0.22794  Biso   1.000  H
  C86      1.0000 0.47460  0.13954  0.21978  Biso   1.000  C
  C87      1.0000 0.47291  0.26032  0.13905  Biso   1.000  C
  C88      1.0000 0.63438  0.05628  0.18780  Biso   1.000  C
  C89      1.0000 0.64636  0.17179  0.10497  Biso   1.000  C
  C90      1.0000 0.64636  0.17179  0.10502  Biso   1.000  C
  C91      1.0000 0.40849  0.15151  0.19636  Biso   1.000  C
  C92      1.0000 0.40849  0.15151  0.19641  Biso   1.000  C
  N67      1.0000 0.48635  0.02602  0.21290  Biso   1.000  N
  H94      1.0000 0.47829  0.16213  0.26229  Biso   1.000  H
  H95      1.0000 0.47829  0.16213  0.26234  Biso   1.000  H
  N68      1.0000 0.41460  0.22783  0.14730  Biso   1.000  N
  O32      1.0000 0.49000  0.32769  0.10215  Biso   1.000  O
  N69      1.0000 0.59101  0.97070  0.19504  Biso   1.000  N
  C93      1.0000 0.68194  0.00950  0.14388  Biso   1.000  C
  H96      1.0000 0.65292  0.07560  0.22694  Biso   1.000  H
  N70      1.0000 0.68363  0.08653  0.09467  Biso   1.000  N
  O33      1.0000 0.64349  0.25265  0.07440  Biso   1.000  O
  N71      1.0000 0.39173  0.04438  0.17759  Biso   1.000  N
  H97      1.0000 0.38143  0.17818  0.22839  Biso   1.000  H
  H98      1.0000 0.38143  0.17818  0.22844  Biso   1.000  H
  C94      1.0000 0.43660  0.97198  0.19258  Biso   1.000  C
  C95      1.0000 0.53984  0.97254  0.23678  Biso   1.000  C
  C96      1.0000 0.53984  0.97246  0.23678  Biso   1.000  C
  C97      1.0000 0.36421  0.27165  0.11303  Biso   1.000  C
  C98      1.0000 0.36421  0.27165  0.11308  Biso   1.000  C
  C99      1.0000 0.60709  0.88090  0.16320  Biso   1.000  C
  N72      1.0000 0.65675  0.90604  0.12830  Biso   1.000  N
  H99      1.0000 0.72181  0.00247  0.16352  Biso   1.000  H
  C100     1.0000 0.72810  0.08518  0.04588  Biso   1.000  C
  C101     1.0000 0.72810  0.08518  0.04592  Biso   1.000  C
  C102     1.0000 0.33013  0.01118  0.16301  Biso   1.000  C
  O34      1.0000 0.43227  0.87483  0.18853  Biso   1.000  O
  O35      1.0000 0.43227  0.87483  0.18857  Biso   1.000  O
  H100     1.0000 0.52900  0.89958  0.24703  Biso   1.000  H
  H101     1.0000 0.55233  0.00782  0.27409  Biso   1.000  H
  H102     1.0000 0.55233  0.00782  0.27414  Biso   1.000  H
  N73      1.0000 0.34238  0.20300  0.06474  Biso   1.000  N
  H103     1.0000 0.33081  0.28602  0.14078  Biso   1.000  H
  H104     1.0000 0.33081  0.28602  0.14083  Biso   1.000  H
  H105     1.0000 0.37669  0.33919  0.09554  Biso   1.000  H
  O36      1.0000 0.58167  0.79460  0.16561  Biso   1.000  O
  C103     1.0000 0.69051  0.82638  0.09454  Biso   1.000  C
  N74      1.0000 0.71160  0.01724  0.99540  Biso   1.000  N
  N75      1.0000 0.71160  0.01724  0.99544  Biso   1.000  N
  H106     1.0000 0.73352  0.15750  0.03098  Biso   1.000  H
  H107     1.0000 0.76682  0.06139  0.06219  Biso   1.000  H
  H108     1.0000 0.73352  0.15750  0.03103  Biso   1.000  H
  H109     1.0000 0.76682  0.06139  0.06224  Biso   1.000  H
  H110     1.0000 0.30193  0.05149  0.18812  Biso   1.000  H
  N76      1.0000 0.31327  0.02546  0.09950  Biso   1.000  N
  H111     1.0000 0.32562  0.93638  0.17349  Biso   1.000  H
  H112     1.0000 0.32562  0.93638  0.17354  Biso   1.000  H
  C104     1.0000 0.29405  0.12653  0.07322  Biso   1.000  C
  C105     1.0000 0.29405  0.12653  0.07326  Biso   1.000  C
  C106     1.0000 0.35118  0.22783  0.00446  Biso   1.000  C
  H113     1.0000 0.73320  0.83101  0.10570  Biso   1.000  H
  H114     1.0000 0.67602  0.75613  0.10620  Biso   1.000  H
  N77      1.0000 0.68527  0.83763  0.02934  Biso   1.000  N
  C107     1.0000 0.72413  0.90429  0.99266  Biso   1.000  C
  C108     1.0000 0.69429  0.05843  0.93986  Biso   1.000  C
  C109     1.0000 0.69429  0.05835  0.93986  Biso   1.000  C
  C110     1.0000 0.30571  0.94157  0.06018  Biso   1.000  C
  C111     1.0000 0.27591  0.09571  0.00734  Biso   1.000  C
  H115     1.0000 0.25969  0.15742  0.09559  Biso   1.000  H
  C112     1.0000 0.27591  0.09571  0.00738  Biso   1.000  C
  H116     1.0000 0.25969  0.15742  0.09563  Biso   1.000  H
  N78      1.0000 0.31478  0.16237  0.97066  Biso   1.000  N
  N79      1.0000 0.31478  0.16237  0.97070  Biso   1.000  N
  O37      1.0000 0.38453  0.29680  0.98483  Biso   1.000  O
  C113     1.0000 0.64887  0.77217  0.99554  Biso   1.000  C
  C114     1.0000 0.64887  0.77217  0.99558  Biso   1.000  C
  C115     1.0000 0.70600  0.87347  0.92678  Biso   1.000  C
  H117     1.0000 0.76723  0.88936  0.00041  Biso   1.000  H
  N80      1.0000 0.68677  0.97454  0.90050  Biso   1.000  N
  O38      1.0000 0.68673  0.15223  0.92833  Biso   1.000  O
  N81      1.0000 0.28840  0.98276  0.00460  Biso   1.000  N
  O39      1.0000 0.31327  0.84777  0.07167  Biso   1.000  O
  O40      1.0000 0.31327  0.84777  0.07171  Biso   1.000  O
  H118     1.0000 0.23281  0.11056  0.99964  Biso   1.000  H
  C116     1.0000 0.30949  0.17362  0.90546  Biso   1.000  C
  N82      1.0000 0.65766  0.79692  0.93526  Biso   1.000  N
  N83      1.0000 0.65766  0.79692  0.93530  Biso   1.000  N
  O41      1.0000 0.61547  0.70320  0.01517  Biso   1.000  O
  H119     1.0000 0.74031  0.84258  0.90441  Biso   1.000  H
  C117     1.0000 0.66992  0.98882  0.83703  Biso   1.000  C
  C118     1.0000 0.27195  0.91482  0.95412  Biso   1.000  C
  H120     1.0000 0.26680  0.16899  0.89430  Biso   1.000  H
  H121     1.0000 0.32402  0.24387  0.89380  Biso   1.000  H
  N84      1.0000 0.34325  0.09396  0.87175  Biso   1.000  N
  N85      1.0000 0.34325  0.09388  0.87175  Biso   1.000  N
  C119     1.0000 0.63584  0.72827  0.88697  Biso   1.000  C
  N86      1.0000 0.60827  0.95562  0.82241  Biso   1.000  N
  N87      1.0000 0.60827  0.95562  0.82245  Biso   1.000  N
  H122     1.0000 0.69812  0.94851  0.81193  Biso   1.000  H
  H123     1.0000 0.67443  0.06362  0.82651  Biso   1.000  H
  H124     1.0000 0.26653  0.84250  0.96902  Biso   1.000  H
  H125     1.0000 0.23322  0.93861  0.93781  Biso   1.000  H
  N88      1.0000 0.31637  0.91339  0.90537  Biso   1.000  N
  C120     1.0000 0.31806  0.99050  0.85617  Biso   1.000  C
  C121     1.0000 0.39291  0.11910  0.83685  Biso   1.000  C
  N89      1.0000 0.58545  0.77209  0.85275  Biso   1.000  N
  H126     1.0000 0.66923  0.71398  0.85922  Biso   1.000  H
  H127     1.0000 0.62331  0.66081  0.90451  Biso   1.000  H
  C122     1.0000 0.59151  0.84849  0.80364  Biso   1.000  C
  C123     1.0000 0.56344  0.02802  0.80742  Biso   1.000  C
  C124     1.0000 0.35368  0.82821  0.89503  Biso   1.000  C
  C125     1.0000 0.36562  0.94372  0.81225  Biso   1.000  C
  H128     1.0000 0.27819  0.99753  0.83653  Biso   1.000  H
  N90      1.0000 0.40899  0.02930  0.80500  Biso   1.000  N
  O42      1.0000 0.41833  0.20540  0.83439  Biso   1.000  O
  C126     1.0000 0.52709  0.73968  0.86100  Biso   1.000  C
  C127     1.0000 0.52545  0.86046  0.78026  Biso   1.000  C
  H129     1.0000 0.61862  0.82182  0.77161  Biso   1.000  H
  N91      1.0000 0.51365  0.97398  0.78710  Biso   1.000  N
  N92      1.0000 0.51365  0.97398  0.78714  Biso   1.000  N
  N93      1.0000 0.51365  0.97390  0.78710  Biso   1.000  N
  N94      1.0000 0.51365  0.97390  0.78714  Biso   1.000  N
  O43      1.0000 0.56777  0.12517  0.81147  Biso   1.000  O
  N95      1.0000 0.38785  0.85008  0.84396  Biso   1.000  N
  O44      1.0000 0.35651  0.74727  0.92560  Biso   1.000  O
  O45      1.0000 0.35651  0.74727  0.92565  Biso   1.000  O
  H130     1.0000 0.34712  0.92440  0.77311  Biso   1.000  H
  C128     1.0000 0.46020  0.02746  0.76322  Biso   1.000  C
  N96      1.0000 0.49046  0.79181  0.82077  Biso   1.000  N
  O46      1.0000 0.51005  0.67231  0.89790  Biso   1.000  O
  H131     1.0000 0.52171  0.83787  0.73771  Biso   1.000  H
  C129     1.0000 0.42622  0.77050  0.81507  Biso   1.000  C
  H132     1.0000 0.44772  0.99218  0.72591  Biso   1.000  H
  H133     1.0000 0.47100  0.10042  0.75302  Biso   1.000  H
  H134     1.0000 0.41583  0.76666  0.77211  Biso   1.000  H
  H135     1.0000 0.41751  0.70137  0.83289  Biso   1.000  H
  H136     1.0000 0.41751  0.70137  0.83293  Biso   1.000  H
  C130     1.0000 0.80573  0.94157  0.43984  Biso   1.000  C
  N97      1.0000 0.78837  0.98276  0.49542  Biso   1.000  N
  N98      1.0000 0.78842  0.98276  0.49542  Biso   1.000  N
  O47      1.0000 0.81329  0.84777  0.42836  Biso   1.000  O
  N99      1.0000 0.81329  0.02546  0.40052  Biso   1.000  N
  C131     1.0000 0.77193  0.91482  0.54590  Biso   1.000  C
  C132     1.0000 0.77594  0.09571  0.49264  Biso   1.000  C
  C133     1.0000 0.79402  0.12653  0.42676  Biso   1.000  C
  C134     1.0000 0.83011  0.01118  0.33701  Biso   1.000  C
  H137     1.0000 0.76650  0.84250  0.53100  Biso   1.000  H
  H138     1.0000 0.73320  0.93861  0.56221  Biso   1.000  H
  N100     1.0000 0.81635  0.91339  0.59465  Biso   1.000  N
  N101     1.0000 0.81639  0.91339  0.59465  Biso   1.000  N
  H139     1.0000 0.73279  0.11056  0.50039  Biso   1.000  H
  N102     1.0000 0.81475  0.16237  0.52932  Biso   1.000  N
  H140     1.0000 0.73284  0.11056  0.50039  Biso   1.000  H
  H141     1.0000 0.75972  0.15742  0.40439  Biso   1.000  H
  N103     1.0000 0.84241  0.20300  0.43528  Biso   1.000  N
  H142     1.0000 0.82560  0.93638  0.32648  Biso   1.000  H
  H143     1.0000 0.80190  0.05149  0.31190  Biso   1.000  H
  N104     1.0000 0.89170  0.04438  0.32243  Biso   1.000  N
  N105     1.0000 0.89175  0.04438  0.32243  Biso   1.000  N
  C135     1.0000 0.85366  0.82821  0.60499  Biso   1.000  C
  C136     1.0000 0.81808  0.99050  0.64386  Biso   1.000  C
  C137     1.0000 0.80947  0.17362  0.59456  Biso   1.000  C
  C138     1.0000 0.80951  0.17362  0.59456  Biso   1.000  C
  C139     1.0000 0.85115  0.22783  0.49556  Biso   1.000  C
  C140     1.0000 0.86419  0.27165  0.38699  Biso   1.000  C
  C141     1.0000 0.93658  0.97198  0.30744  Biso   1.000  C
  C142     1.0000 0.90852  0.15151  0.30361  Biso   1.000  C
  N106     1.0000 0.88783  0.85008  0.65607  Biso   1.000  N
  O48      1.0000 0.85649  0.74727  0.57438  Biso   1.000  O
  N107     1.0000 0.88788  0.85008  0.65607  Biso   1.000  N
  O49      1.0000 0.85653  0.74727  0.57438  Biso   1.000  O
  H144     1.0000 0.77821  0.99753  0.66349  Biso   1.000  H
  C143     1.0000 0.86560  0.94372  0.68778  Biso   1.000  C
  C144     1.0000 0.86564  0.94372  0.68778  Biso   1.000  C
  N108     1.0000 0.84323  0.09396  0.62827  Biso   1.000  N
  N109     1.0000 0.84323  0.09388  0.62827  Biso   1.000  N
  N110     1.0000 0.84327  0.09396  0.62827  Biso   1.000  N
  N111     1.0000 0.84327  0.09388  0.62827  Biso   1.000  N
  H145     1.0000 0.76678  0.16899  0.60572  Biso   1.000  H
  H146     1.0000 0.82400  0.24387  0.60622  Biso   1.000  H
  H147     1.0000 0.76682  0.16899  0.60572  Biso   1.000  H
  O50      1.0000 0.88455  0.29680  0.51519  Biso   1.000  O
  H148     1.0000 0.83079  0.28602  0.35920  Biso   1.000  H
  H149     1.0000 0.87671  0.33919  0.40453  Biso   1.000  H
  N112     1.0000 0.91457  0.22783  0.35273  Biso   1.000  N
  H150     1.0000 0.83084  0.28602  0.35920  Biso   1.000  H
  O51      1.0000 0.93225  0.87483  0.31145  Biso   1.000  O
  O52      1.0000 0.93230  0.87483  0.31145  Biso   1.000  O
  N113     1.0000 0.98638  0.02602  0.28712  Biso   1.000  N
  H151     1.0000 0.88141  0.17818  0.27158  Biso   1.000  H
  C145     1.0000 0.97458  0.13954  0.28029  Biso   1.000  C
  C146     1.0000 0.92619  0.77050  0.68495  Biso   1.000  C
  H152     1.0000 0.84710  0.92440  0.72691  Biso   1.000  H
  N114     1.0000 0.90897  0.02930  0.69502  Biso   1.000  N
  N115     1.0000 0.90902  0.02930  0.69502  Biso   1.000  N
  C147     1.0000 0.89289  0.11910  0.66317  Biso   1.000  C
  C148     1.0000 0.89293  0.11910  0.66317  Biso   1.000  C
  C149     1.0000 0.97294  0.26032  0.36097  Biso   1.000  C
  C150     1.0000 0.03982  0.97246  0.26325  Biso   1.000  C
  H153     1.0000 0.97831  0.16213  0.23769  Biso   1.000  H
  N116     1.0000 0.00957  0.20819  0.32074  Biso   1.000  N
  H154     1.0000 0.91580  0.76666  0.72791  Biso   1.000  H
  H155     1.0000 0.91754  0.70137  0.66709  Biso   1.000  H
  N117     1.0000 0.99048  0.79181  0.67930  Biso   1.000  N
  C151     1.0000 0.96018  0.02746  0.73680  Biso   1.000  C
  O53      1.0000 0.91836  0.20540  0.66563  Biso   1.000  O
  O54      1.0000 0.98998  0.32769  0.39788  Biso   1.000  O
  H156     1.0000 0.02902  0.89958  0.25300  Biso   1.000  H
  N118     1.0000 0.09103  0.97070  0.30498  Biso   1.000  N
  H157     1.0000 0.05230  0.00782  0.22589  Biso   1.000  H
  C152     1.0000 0.07381  0.22950  0.31505  Biso   1.000  C
  C153     1.0000 0.02706  0.73968  0.63903  Biso   1.000  C
  C154     1.0000 0.02711  0.73968  0.63903  Biso   1.000  C
  C155     1.0000 0.02547  0.86046  0.71976  Biso   1.000  C
  H158     1.0000 0.94770  0.99218  0.77411  Biso   1.000  H
  H159     1.0000 0.97102  0.10042  0.74700  Biso   1.000  H
  N119     1.0000 0.01367  0.97398  0.71293  Biso   1.000  N
  N120     1.0000 0.01367  0.97390  0.71293  Biso   1.000  N
  C156     1.0000 0.10711  0.88090  0.33683  Biso   1.000  C
  C157     1.0000 0.13440  0.05628  0.31222  Biso   1.000  C
  H160     1.0000 0.08251  0.29863  0.33291  Biso   1.000  H
  N121     1.0000 0.11217  0.14992  0.34393  Biso   1.000  N
  H161     1.0000 0.08251  0.29856  0.33291  Biso   1.000  H
  H162     1.0000 0.08424  0.23326  0.27209  Biso   1.000  H
  O55      1.0000 0.01002  0.67231  0.60212  Biso   1.000  O
  N122     1.0000 0.08547  0.77209  0.64727  Biso   1.000  N
  C158     1.0000 0.09153  0.84849  0.69639  Biso   1.000  C
  H163     1.0000 0.02173  0.83787  0.76231  Biso   1.000  H
  C159     1.0000 0.06342  0.02802  0.69261  Biso   1.000  C
  N123     1.0000 0.15677  0.90604  0.37173  Biso   1.000  N
  O56      1.0000 0.08164  0.79460  0.33441  Biso   1.000  O
  O57      1.0000 0.08169  0.79460  0.33441  Biso   1.000  O
  H164     1.0000 0.15290  0.07560  0.27309  Biso   1.000  H
  C160     1.0000 0.18192  0.00950  0.35614  Biso   1.000  C
  C161     1.0000 0.18197  0.00950  0.35614  Biso   1.000  C
  C162     1.0000 0.14634  0.17179  0.39501  Biso   1.000  C
  C163     1.0000 0.13581  0.72827  0.61306  Biso   1.000  C
  H165     1.0000 0.11859  0.82182  0.72842  Biso   1.000  H
  N124     1.0000 0.10830  0.95562  0.67757  Biso   1.000  N
  H166     1.0000 0.11864  0.82182  0.72842  Biso   1.000  H
  O58      1.0000 0.06775  0.12517  0.68855  Biso   1.000  O
  C164     1.0000 0.19053  0.82638  0.40549  Biso   1.000  C
  H167     1.0000 0.22179  0.00247  0.33651  Biso   1.000  H
  N125     1.0000 0.18365  0.08653  0.40535  Biso   1.000  N
  H168     1.0000 0.22183  0.00247  0.33651  Biso   1.000  H
  O59      1.0000 0.14351  0.25265  0.42562  Biso   1.000  O
  H169     1.0000 0.16921  0.71398  0.64080  Biso   1.000  H
  N126     1.0000 0.15764  0.79692  0.56472  Biso   1.000  N
  H170     1.0000 0.12333  0.66081  0.59552  Biso   1.000  H
  C165     1.0000 0.16989  0.98882  0.66299  Biso   1.000  C
  N127     1.0000 0.18529  0.83763  0.47068  Biso   1.000  N
  H171     1.0000 0.23322  0.83101  0.39432  Biso   1.000  H
  H172     1.0000 0.17600  0.75613  0.39382  Biso   1.000  H
  C166     1.0000 0.22807  0.08518  0.45410  Biso   1.000  C
  C167     1.0000 0.14885  0.77217  0.50449  Biso   1.000  C
  C168     1.0000 0.20598  0.87347  0.57324  Biso   1.000  C
  N128     1.0000 0.18675  0.97454  0.59953  Biso   1.000  N
  H173     1.0000 0.19814  0.94851  0.68810  Biso   1.000  H
  H174     1.0000 0.17440  0.06362  0.67352  Biso   1.000  H
  C169     1.0000 0.22411  0.90429  0.50736  Biso   1.000  C
  N129     1.0000 0.21163  0.01724  0.50458  Biso   1.000  N
  H175     1.0000 0.26680  0.06139  0.43779  Biso   1.000  H
  H176     1.0000 0.23354  0.15750  0.46900  Biso   1.000  H
  O60      1.0000 0.11545  0.70320  0.48485  Biso   1.000  O
  O61      1.0000 0.11550  0.70320  0.48485  Biso   1.000  O
  H177     1.0000 0.24028  0.84258  0.59561  Biso   1.000  H
  H178     1.0000 0.24033  0.84258  0.59561  Biso   1.000  H
  C170     1.0000 0.19431  0.05843  0.56016  Biso   1.000  C
  C171     1.0000 0.19431  0.05835  0.56016  Biso   1.000  C
  H179     1.0000 0.26721  0.88936  0.49961  Biso   1.000  H
  O62      1.0000 0.18675  0.15223  0.57169  Biso   1.000  O
