data_image0
_cell_length_a       21.03
_cell_length_b       10.11
_cell_length_c       15.33
_cell_angle_alpha    90
_cell_angle_beta     111.02
_cell_angle_gamma    90

_symmetry_space_group_name_H-M    "P 1"
_symmetry_int_tables_number       1

loop_
  _symmetry_equiv_pos_as_xyz
  'x, y, z'

loop_
  _atom_site_label
  _atom_site_occupancy
  _atom_site_fract_x
  _atom_site_fract_y
  _atom_site_fract_z
  _atom_site_thermal_displace_type
  _atom_site_B_iso_or_equiv
  _atom_site_type_symbol
  O1       1.0000 0.58501  0.15430  0.41461  Biso   1.000  O
  C1       1.0000 0.60402  0.27626  0.38491  Biso   1.000  C
  C2       1.0000 0.57418  0.28754  0.27771  Biso   1.000  C
  C3       1.0000 0.68170  0.28714  0.42048  Biso   1.000  C
  O2       1.0000 0.50051  0.29011  0.24417  Biso   1.000  O
  C4       1.0000 0.60161  0.41157  0.24710  Biso   1.000  C
  O3       1.0000 0.70252  0.40059  0.38463  Biso   1.000  O
  O4       1.0000 0.70678  0.17132  0.39127  Biso   1.000  O
  C5       1.0000 0.67882  0.40148  0.28253  Biso   1.000  C
  O5       1.0000 0.57398  0.41227  0.14528  Biso   1.000  O
  C6       1.0000 0.75439  0.09021  0.46227  Biso   1.000  C
  C7       1.0000 0.71671  0.51494  0.25521  Biso   1.000  C
  C8       1.0000 0.54918  0.53343  0.10063  Biso   1.000  C
  C9       1.0000 0.82658  0.12077  0.47010  Biso   1.000  C
  C10      1.0000 0.73519  0.95015  0.43138  Biso   1.000  C
  O6       1.0000 0.69880  0.64303  0.27240  Biso   1.000  O
  O7       1.0000 0.75902  0.58902  0.30119  Biso   1.000  O
  C11      1.0000 0.47881  0.50999  0.02607  Biso   1.000  C
  O8       1.0000 0.59270  0.58447  0.05793  Biso   1.000  O
  C12      1.0000 0.85262  0.25391  0.51531  Biso   1.000  C
  O9       1.0000 0.87271  0.02591  0.52977  Biso   1.000  O
  C13      1.0000 0.78718  0.85381  0.49490  Biso   1.000  C
  O10      1.0000 0.66901  0.92404  0.43578  Biso   1.000  O
  O11      1.0000 0.43469  0.45193  0.07030  Biso   1.000  O
  C14      1.0000 0.48361  0.41909  0.94731  Biso   1.000  C
  C15      1.0000 0.60279  0.49822  0.98868  Biso   1.000  C
  O12      1.0000 0.84520  0.25945  0.60588  Biso   1.000  O
  C16      1.0000 0.85839  0.89298  0.49993  Biso   1.000  C
  O13      1.0000 0.77310  0.72107  0.46108  Biso   1.000  O
  C17      1.0000 0.53510  0.47695  0.90999  Biso   1.000  C
  O14      1.0000 0.41992  0.41256  0.87233  Biso   1.000  O
  C18      1.0000 0.65949  0.56073  0.95891  Biso   1.000  C
  O15      1.0000 0.86022  0.87854  0.40797  Biso   1.000  O
  O16      1.0000 0.54320  0.38348  0.84423  Biso   1.000  O
  O17      1.0000 0.64183  0.68605  0.91992  Biso   1.000  O
  C19      1.0000 0.91869  0.81731  0.39937  Biso   1.000  C
  C20      1.0000 0.52418  0.42384  0.74947  Biso   1.000  C
  C21      1.0000 0.89582  0.68754  0.34899  Biso   1.000  C
  C22      1.0000 0.94651  0.91039  0.34137  Biso   1.000  C
  C23      1.0000 0.48322  0.31177  0.68833  Biso   1.000  C
  O18      1.0000 0.58190  0.45242  0.72711  Biso   1.000  O
  C24      1.0000 0.94901  0.62651  0.31782  Biso   1.000  C
  O19      1.0000 0.87891  0.59634  0.41091  Biso   1.000  O
  C25      1.0000 0.98391  0.02760  0.39749  Biso   1.000  C
  O20      1.0000 0.99571  0.84154  0.31258  Biso   1.000  O
  C26      1.0000 0.52659  0.18902  0.70160  Biso   1.000  C
  O21      1.0000 0.42308  0.28764  0.70929  Biso   1.000  O
  C27      1.0000 0.62770  0.34125  0.73822  Biso   1.000  C
  C28      1.0000 0.97071  0.72661  0.25933  Biso   1.000  C
  O22      1.0000 0.92288  0.50821  0.26408  Biso   1.000  O
  O23      1.0000 0.00619  0.11405  0.34410  Biso   1.000  O
  C29      1.0000 0.59098  0.22235  0.68399  Biso   1.000  C
  O24      1.0000 0.49061  0.08615  0.63892  Biso   1.000  O
  C30      1.0000 0.68168  0.39308  0.70188  Biso   1.000  C
  O25      1.0000 0.91310  0.75757  0.17939  Biso   1.000  O
  O26      1.0000 0.63489  0.10940  0.71551  Biso   1.000  O
  O27      1.0000 0.65021  0.43749  0.60461  Biso   1.000  O
  C31      1.0000 0.91768  0.73620  0.08980  Biso   1.000  C
  C32      1.0000 0.66251  0.04708  0.65220  Biso   1.000  C
  C33      1.0000 0.85548  0.65747  0.03089  Biso   1.000  C
  C34      1.0000 0.91751  0.87043  0.04277  Biso   1.000  C
  C35      1.0000 0.65103  0.89960  0.65723  Biso   1.000  C
  O28      1.0000 0.73239  0.07745  0.67743  Biso   1.000  O
  C36      1.0000 0.85858  0.63956  0.93417  Biso   1.000  C
  O29      1.0000 0.85299  0.53462  0.07282  Biso   1.000  O
  O30      1.0000 0.92018  0.84411  0.94969  Biso   1.000  O
  C37      1.0000 0.97831  0.95638  0.09581  Biso   1.000  C
  C38      1.0000 0.69211  0.84936  0.75667  Biso   1.000  C
  O31      1.0000 0.57949  0.87646  0.63221  Biso   1.000  O
  C39      1.0000 0.77381  0.03660  0.77107  Biso   1.000  C
  O32      1.0000 0.80042  0.56904  0.87393  Biso   1.000  O
  C40      1.0000 0.86420  0.77112  0.89001  Biso   1.000  C
  O33      1.0000 0.04138  0.88675  0.11880  Biso   1.000  O
  C41      1.0000 0.76562  0.88665  0.77903  Biso   1.000  C
  O34      1.0000 0.68341  0.71029  0.76107  Biso   1.000  O
  C42      1.0000 0.84451  0.08427  0.78868  Biso   1.000  C
  O35      1.0000 0.80238  0.84273  0.87288  Biso   1.000  O
  O36      1.0000 0.87370  0.02898  0.72082  Biso   1.000  O
  O37      1.0000 0.41498  0.65430  0.58540  Biso   1.000  O
  C43      1.0000 0.39602  0.77626  0.61510  Biso   1.000  C
  C44      1.0000 0.31829  0.78714  0.57953  Biso   1.000  C
  C45      1.0000 0.42581  0.78754  0.72230  Biso   1.000  C
  O38      1.0000 0.29320  0.67132  0.60867  Biso   1.000  O
  O39      1.0000 0.29747  0.90059  0.61538  Biso   1.000  O
  C46      1.0000 0.39839  0.91157  0.75291  Biso   1.000  C
  O40      1.0000 0.49952  0.79011  0.75577  Biso   1.000  O
  C47      1.0000 0.24558  0.59021  0.53767  Biso   1.000  C
  C48      1.0000 0.32117  0.90148  0.71748  Biso   1.000  C
  O41      1.0000 0.42601  0.91227  0.85472  Biso   1.000  O
  C49      1.0000 0.26480  0.45015  0.56863  Biso   1.000  C
  C50      1.0000 0.17341  0.62077  0.52991  Biso   1.000  C
  C51      1.0000 0.28329  0.01494  0.74480  Biso   1.000  C
  C52      1.0000 0.45081  0.03343  0.89938  Biso   1.000  C
  C53      1.0000 0.21281  0.35381  0.50511  Biso   1.000  C
  O42      1.0000 0.33103  0.42404  0.56423  Biso   1.000  O
  O43      1.0000 0.12733  0.52591  0.47023  Biso   1.000  O
  C54      1.0000 0.14742  0.75391  0.48470  Biso   1.000  C
  O44      1.0000 0.30119  0.14303  0.72761  Biso   1.000  O
  O45      1.0000 0.24102  0.08902  0.69882  Biso   1.000  O
  C55      1.0000 0.52121  0.00999  0.97387  Biso   1.000  C
  O46      1.0000 0.40729  0.08447  0.94208  Biso   1.000  O
  C56      1.0000 0.14160  0.39298  0.50007  Biso   1.000  C
  O47      1.0000 0.22689  0.22107  0.53893  Biso   1.000  O
  O48      1.0000 0.15479  0.75945  0.39413  Biso   1.000  O
  O49      1.0000 0.56530  0.95193  0.92971  Biso   1.000  O
  C57      1.0000 0.51638  0.91909  0.05270  Biso   1.000  C
  C58      1.0000 0.39720  0.99822  0.01133  Biso   1.000  C
  O50      1.0000 0.13981  0.37854  0.59197  Biso   1.000  O
  C59      1.0000 0.46490  0.97695  0.09002  Biso   1.000  C
  O51      1.0000 0.58012  0.91256  0.12768  Biso   1.000  O
  C60      1.0000 0.34050  0.06073  0.04110  Biso   1.000  C
  C61      1.0000 0.08130  0.31731  0.60063  Biso   1.000  C
  O52      1.0000 0.45679  0.88348  0.15578  Biso   1.000  O
  O53      1.0000 0.35821  0.18605  0.08009  Biso   1.000  O
  C62      1.0000 0.10422  0.18754  0.65102  Biso   1.000  C
  C63      1.0000 0.05351  0.41039  0.65857  Biso   1.000  C
  C64      1.0000 0.47580  0.92384  0.25047  Biso   1.000  C
  C65      1.0000 0.05098  0.12651  0.68219  Biso   1.000  C
  O54      1.0000 0.12108  0.09634  0.58910  Biso   1.000  O
  O55      1.0000 0.00433  0.34154  0.68743  Biso   1.000  O
  C66      1.0000 0.01613  0.52760  0.60252  Biso   1.000  C
  C67      1.0000 0.51682  0.81177  0.31168  Biso   1.000  C
  O56      1.0000 0.41809  0.95242  0.27290  Biso   1.000  O
  C68      1.0000 0.02928  0.22661  0.74068  Biso   1.000  C
  O57      1.0000 0.07711  0.00821  0.73593  Biso   1.000  O
  O58      1.0000 0.99380  0.61405  0.65591  Biso   1.000  O
  C69      1.0000 0.47340  0.68902  0.29840  Biso   1.000  C
  O59      1.0000 0.57691  0.78764  0.29072  Biso   1.000  O
  C70      1.0000 0.37229  0.84125  0.26179  Biso   1.000  C
  O60      1.0000 0.08690  0.25757  0.82062  Biso   1.000  O
  C71      1.0000 0.40901  0.72235  0.31601  Biso   1.000  C
  O61      1.0000 0.50938  0.58615  0.36109  Biso   1.000  O
  C72      1.0000 0.31831  0.89308  0.29813  Biso   1.000  C
  C73      1.0000 0.08231  0.23620  0.91021  Biso   1.000  C
  O62      1.0000 0.36511  0.60940  0.28450  Biso   1.000  O
  O63      1.0000 0.34979  0.93749  0.39540  Biso   1.000  O
  C74      1.0000 0.14451  0.15747  0.96912  Biso   1.000  C
  C75      1.0000 0.08251  0.37043  0.95717  Biso   1.000  C
  C76      1.0000 0.33749  0.54708  0.34781  Biso   1.000  C
  O64      1.0000 0.14700  0.03462  0.92719  Biso   1.000  O
  C77      1.0000 0.14139  0.13956  0.06577  Biso   1.000  C
  C78      1.0000 0.02168  0.45638  0.90420  Biso   1.000  C
  O65      1.0000 0.07981  0.34411  0.05032  Biso   1.000  O
  C79      1.0000 0.34901  0.39960  0.34278  Biso   1.000  C
  O66      1.0000 0.26760  0.57745  0.32258  Biso   1.000  O
  O67      1.0000 0.19957  0.06904  0.12608  Biso   1.000  O
  C80      1.0000 0.13579  0.27112  0.11000  Biso   1.000  C
  O68      1.0000 0.95861  0.38675  0.88121  Biso   1.000  O
  C81      1.0000 0.30791  0.34936  0.24327  Biso   1.000  C
  O69      1.0000 0.42050  0.37646  0.36780  Biso   1.000  O
  C82      1.0000 0.22621  0.53660  0.22887  Biso   1.000  C
  O70      1.0000 0.19761  0.34273  0.12712  Biso   1.000  O
  C83      1.0000 0.23437  0.38665  0.22098  Biso   1.000  C
  O71      1.0000 0.31661  0.21029  0.23887  Biso   1.000  O
  C84      1.0000 0.15548  0.58427  0.21133  Biso   1.000  C
  O72      1.0000 0.12629  0.52898  0.27919  Biso   1.000  O
