data_image0
_cell_length_a       14.28
_cell_length_b       11.56
_cell_length_c       13.183
_cell_angle_alpha    90
_cell_angle_beta     90
_cell_angle_gamma    90

_symmetry_space_group_name_H-M    "P 1"
_symmetry_int_tables_number       1

loop_
  _symmetry_equiv_pos_as_xyz
  'x, y, z'

loop_
  _atom_site_label
  _atom_site_occupancy
  _atom_site_fract_x
  _atom_site_fract_y
  _atom_site_fract_z
  _atom_site_thermal_displace_type
  _atom_site_B_iso_or_equiv
  _atom_site_type_symbol
  C1       1.0000 0.17269  0.42119  0.49412  Biso   1.000  C
  N1       1.0000 0.21408  0.34144  0.42267  Biso   1.000  N
  N2       1.0000 0.07661  0.45744  0.46628  Biso   1.000  N
  H1       1.0000 0.17122  0.38452  0.56194  Biso   1.000  H
  H2       1.0000 0.21289  0.49083  0.49882  Biso   1.000  H
  C2       1.0000 0.26940  0.37284  0.33361  Biso   1.000  C
  C3       1.0000 0.21387  0.22491  0.43427  Biso   1.000  C
  C4       1.0000 0.00000  0.40061  0.50482  Biso   1.000  C
  C5       1.0000 0.05742  0.55580  0.40370  Biso   1.000  C
  C6       1.0000 0.29867  0.25882  0.28969  Biso   1.000  C
  N3       1.0000 0.21303  0.42587  0.25101  Biso   1.000  N
  H3       1.0000 0.32458  0.42171  0.35197  Biso   1.000  H
  N4       1.0000 0.26401  0.17344  0.35804  Biso   1.000  N
  O1       1.0000 0.17990  0.17413  0.50762  Biso   1.000  O
  O2       1.0000 0.00000  0.31964  0.56087  Biso   1.000  O
  N5       1.0000 0.92339  0.45744  0.46628  Biso   1.000  N
  N6       1.0000 0.07920  0.54221  0.29773  Biso   1.000  N
  H4       1.0000 0.08389  0.62881  0.43253  Biso   1.000  H
  C7       1.0000 0.94258  0.55580  0.40370  Biso   1.000  C
  N7       1.0000 0.26078  0.25891  0.18721  Biso   1.000  N
  H5       1.0000 0.36863  0.25458  0.28681  Biso   1.000  H
  C8       1.0000 0.21450  0.35839  0.16643  Biso   1.000  C
  C9       1.0000 0.17269  0.53988  0.25290  Biso   1.000  C
  C10      1.0000 0.27220  0.05234  0.34939  Biso   1.000  C
  C11      1.0000 0.82731  0.42119  0.49412  Biso   1.000  C
  C12      1.0000 0.00000  0.53720  0.23583  Biso   1.000  C
  N8       1.0000 0.92080  0.54221  0.29773  Biso   1.000  N
  H6       1.0000 0.91611  0.62881  0.43253  Biso   1.000  H
  C13      1.0000 0.27941  0.17457  0.11158  Biso   1.000  C
  O3       1.0000 0.18151  0.38676  0.08450  Biso   1.000  O
  H7       1.0000 0.21422  0.59187  0.29212  Biso   1.000  H
  H8       1.0000 0.16912  0.56990  0.18274  Biso   1.000  H
  H9       1.0000 0.33613  0.03374  0.32542  Biso   1.000  H
  H10      1.0000 0.26478  0.01782  0.41773  Biso   1.000  H
  N9       1.0000 0.20371  0.99758  0.28013  Biso   1.000  N
  N10      1.0000 0.78592  0.34144  0.42267  Biso   1.000  N
  H11      1.0000 0.82878  0.38452  0.56194  Biso   1.000  H
  H12      1.0000 0.78711  0.49083  0.49882  Biso   1.000  H
  O4       1.0000 0.00000  0.53114  0.14299  Biso   1.000  O
  C14      1.0000 0.82731  0.53988  0.25290  Biso   1.000  C
  N11      1.0000 0.21548  0.07682  0.11090  Biso   1.000  N
  H13      1.0000 0.27703  0.21263  0.04430  Biso   1.000  H
  H14      1.0000 0.34391  0.14524  0.12137  Biso   1.000  H
  C15      1.0000 0.12850  0.93270  0.31859  Biso   1.000  C
  C16      1.0000 0.21982  0.98019  0.17629  Biso   1.000  C
  C17      1.0000 0.78613  0.22491  0.43427  Biso   1.000  C
  C18      1.0000 0.73060  0.37284  0.33361  Biso   1.000  C
  N12      1.0000 0.78697  0.42587  0.25101  Biso   1.000  N
  H15      1.0000 0.78578  0.59187  0.29212  Biso   1.000  H
  H16      1.0000 0.83088  0.56990  0.18274  Biso   1.000  H
  C19      1.0000 0.13200  0.07846  0.05317  Biso   1.000  C
  O5       1.0000 0.10931  0.92284  0.40719  Biso   1.000  O
  N13      1.0000 0.08480  0.88469  0.23652  Biso   1.000  N
  C20      1.0000 0.13137  0.90631  0.14420  Biso   1.000  C
  H17      1.0000 0.27892  0.93564  0.16521  Biso   1.000  H
  O6       1.0000 0.82010  0.17413  0.50762  Biso   1.000  O
  N14      1.0000 0.73599  0.17344  0.35804  Biso   1.000  N
  C21      1.0000 0.70133  0.25882  0.28969  Biso   1.000  C
  H18      1.0000 0.67542  0.42171  0.35197  Biso   1.000  H
  C22      1.0000 0.78550  0.35839  0.16643  Biso   1.000  C
  N15      1.0000 0.08592  0.98002  0.07168  Biso   1.000  N
  O7       1.0000 0.11289  0.15381  0.99219  Biso   1.000  O
  C23      1.0000 0.00000  0.81583  0.25078  Biso   1.000  C
  H19      1.0000 0.15133  0.83209  0.11173  Biso   1.000  H
  C24      1.0000 0.72780  0.05234  0.34939  Biso   1.000  C
  N16      1.0000 0.73922  0.25891  0.18721  Biso   1.000  N
  H20      1.0000 0.63137  0.25458  0.28681  Biso   1.000  H
  O8       1.0000 0.81849  0.38676  0.08450  Biso   1.000  O
  C25      1.0000 0.00000  0.94827  0.01510  Biso   1.000  C
  N17      1.0000 0.91520  0.88469  0.23652  Biso   1.000  N
  H21      1.0000 0.00000  0.78279  0.32011  Biso   1.000  H
  H22      1.0000 0.00000  0.75078  0.20193  Biso   1.000  H
  N18      1.0000 0.79629  0.99758  0.28013  Biso   1.000  N
  H23      1.0000 0.66387  0.03374  0.32542  Biso   1.000  H
  H24      1.0000 0.73522  0.01782  0.41773  Biso   1.000  H
  C26      1.0000 0.72059  0.17457  0.11158  Biso   1.000  C
  N19      1.0000 0.91408  0.98002  0.07168  Biso   1.000  N
  H25      1.0000 0.00000  0.98806  0.94872  Biso   1.000  H
  H26      1.0000 0.00000  0.86393  0.00243  Biso   1.000  H
  C27      1.0000 0.86863  0.90631  0.14420  Biso   1.000  C
  C28      1.0000 0.87150  0.93270  0.31859  Biso   1.000  C
  C29      1.0000 0.78018  0.98019  0.17629  Biso   1.000  C
  N20      1.0000 0.78452  0.07682  0.11090  Biso   1.000  N
  H27      1.0000 0.72297  0.21263  0.04430  Biso   1.000  H
  H28      1.0000 0.65609  0.14524  0.12137  Biso   1.000  H
  C30      1.0000 0.86800  0.07846  0.05317  Biso   1.000  C
  H29      1.0000 0.84867  0.83209  0.11173  Biso   1.000  H
  O9       1.0000 0.89069  0.92284  0.40719  Biso   1.000  O
  H30      1.0000 0.72108  0.93564  0.16521  Biso   1.000  H
  O10      1.0000 0.88711  0.15381  0.99219  Biso   1.000  O
  C31      1.0000 0.17269  0.42119  0.49412  Biso   1.000  C
  N21      1.0000 0.21408  0.34144  0.42267  Biso   1.000  N
  N22      1.0000 0.07661  0.45744  0.46628  Biso   1.000  N
  H31      1.0000 0.17122  0.38452  0.56194  Biso   1.000  H
  H32      1.0000 0.21289  0.49083  0.49882  Biso   1.000  H
  C32      1.0000 0.26940  0.37284  0.33361  Biso   1.000  C
  C33      1.0000 0.21387  0.22491  0.43427  Biso   1.000  C
  C34      1.0000 0.00000  0.40061  0.50482  Biso   1.000  C
  C35      1.0000 0.05742  0.55580  0.40370  Biso   1.000  C
  C36      1.0000 0.29867  0.25882  0.28969  Biso   1.000  C
  N23      1.0000 0.21303  0.42587  0.25101  Biso   1.000  N
  H33      1.0000 0.32458  0.42171  0.35197  Biso   1.000  H
  N24      1.0000 0.26401  0.17344  0.35804  Biso   1.000  N
  O11      1.0000 0.17990  0.17413  0.50762  Biso   1.000  O
  O12      1.0000 0.00000  0.31964  0.56087  Biso   1.000  O
  N25      1.0000 0.92339  0.45744  0.46628  Biso   1.000  N
  N26      1.0000 0.07920  0.54221  0.29773  Biso   1.000  N
  H34      1.0000 0.08389  0.62881  0.43253  Biso   1.000  H
  C37      1.0000 0.94258  0.55580  0.40370  Biso   1.000  C
  N27      1.0000 0.26078  0.25891  0.18721  Biso   1.000  N
  H35      1.0000 0.36863  0.25458  0.28681  Biso   1.000  H
  C38      1.0000 0.21450  0.35839  0.16643  Biso   1.000  C
  C39      1.0000 0.17269  0.53988  0.25290  Biso   1.000  C
  C40      1.0000 0.27220  0.05234  0.34939  Biso   1.000  C
  C41      1.0000 0.82731  0.42119  0.49412  Biso   1.000  C
  C42      1.0000 0.00000  0.53720  0.23583  Biso   1.000  C
  N28      1.0000 0.92080  0.54221  0.29773  Biso   1.000  N
  H36      1.0000 0.91611  0.62881  0.43253  Biso   1.000  H
  C43      1.0000 0.27941  0.17457  0.11158  Biso   1.000  C
  O13      1.0000 0.18151  0.38676  0.08450  Biso   1.000  O
  H37      1.0000 0.21422  0.59187  0.29212  Biso   1.000  H
  H38      1.0000 0.16912  0.56990  0.18274  Biso   1.000  H
  H39      1.0000 0.33613  0.03374  0.32542  Biso   1.000  H
  H40      1.0000 0.26478  0.01782  0.41773  Biso   1.000  H
  N29      1.0000 0.20371  0.99758  0.28013  Biso   1.000  N
  N30      1.0000 0.78592  0.34144  0.42267  Biso   1.000  N
  H41      1.0000 0.82878  0.38452  0.56194  Biso   1.000  H
  H42      1.0000 0.78711  0.49083  0.49882  Biso   1.000  H
  O14      1.0000 0.00000  0.53114  0.14299  Biso   1.000  O
  C44      1.0000 0.82731  0.53988  0.25290  Biso   1.000  C
  N31      1.0000 0.21548  0.07682  0.11090  Biso   1.000  N
  H43      1.0000 0.27703  0.21263  0.04430  Biso   1.000  H
  H44      1.0000 0.34391  0.14524  0.12137  Biso   1.000  H
  C45      1.0000 0.12850  0.93270  0.31859  Biso   1.000  C
  C46      1.0000 0.21982  0.98019  0.17629  Biso   1.000  C
  C47      1.0000 0.78613  0.22491  0.43427  Biso   1.000  C
  C48      1.0000 0.73060  0.37284  0.33361  Biso   1.000  C
  N32      1.0000 0.78697  0.42587  0.25101  Biso   1.000  N
  H45      1.0000 0.78578  0.59187  0.29212  Biso   1.000  H
  H46      1.0000 0.83088  0.56990  0.18274  Biso   1.000  H
  C49      1.0000 0.13200  0.07846  0.05317  Biso   1.000  C
  O15      1.0000 0.10931  0.92284  0.40719  Biso   1.000  O
  N33      1.0000 0.08480  0.88469  0.23652  Biso   1.000  N
  C50      1.0000 0.13137  0.90631  0.14420  Biso   1.000  C
  H47      1.0000 0.27892  0.93564  0.16521  Biso   1.000  H
  O16      1.0000 0.82010  0.17413  0.50762  Biso   1.000  O
  N34      1.0000 0.73599  0.17344  0.35804  Biso   1.000  N
  C51      1.0000 0.70133  0.25882  0.28969  Biso   1.000  C
  H48      1.0000 0.67542  0.42171  0.35197  Biso   1.000  H
  C52      1.0000 0.78550  0.35839  0.16643  Biso   1.000  C
  N35      1.0000 0.08592  0.98002  0.07168  Biso   1.000  N
  O17      1.0000 0.11289  0.15381  0.99219  Biso   1.000  O
  C53      1.0000 0.00000  0.81583  0.25078  Biso   1.000  C
  H49      1.0000 0.15133  0.83209  0.11173  Biso   1.000  H
  C54      1.0000 0.72780  0.05234  0.34939  Biso   1.000  C
  N36      1.0000 0.73922  0.25891  0.18721  Biso   1.000  N
  H50      1.0000 0.63137  0.25458  0.28681  Biso   1.000  H
  O18      1.0000 0.81849  0.38676  0.08450  Biso   1.000  O
  C55      1.0000 0.00000  0.94827  0.01510  Biso   1.000  C
  N37      1.0000 0.91520  0.88469  0.23652  Biso   1.000  N
  H51      1.0000 0.00000  0.78279  0.32011  Biso   1.000  H
  H52      1.0000 0.00000  0.75078  0.20193  Biso   1.000  H
  N38      1.0000 0.79629  0.99758  0.28013  Biso   1.000  N
  H53      1.0000 0.66387  0.03374  0.32542  Biso   1.000  H
  H54      1.0000 0.73522  0.01782  0.41773  Biso   1.000  H
  C56      1.0000 0.72059  0.17457  0.11158  Biso   1.000  C
  N39      1.0000 0.91408  0.98002  0.07168  Biso   1.000  N
  H55      1.0000 0.00000  0.98806  0.94872  Biso   1.000  H
  H56      1.0000 0.00000  0.86393  0.00243  Biso   1.000  H
  C57      1.0000 0.86863  0.90631  0.14420  Biso   1.000  C
  C58      1.0000 0.87150  0.93270  0.31859  Biso   1.000  C
  C59      1.0000 0.78018  0.98019  0.17629  Biso   1.000  C
  N40      1.0000 0.78452  0.07682  0.11090  Biso   1.000  N
  H57      1.0000 0.72297  0.21263  0.04430  Biso   1.000  H
  H58      1.0000 0.65609  0.14524  0.12137  Biso   1.000  H
  C60      1.0000 0.86800  0.07846  0.05317  Biso   1.000  C
  H59      1.0000 0.84867  0.83209  0.11173  Biso   1.000  H
  O19      1.0000 0.89069  0.92284  0.40719  Biso   1.000  O
  H60      1.0000 0.72108  0.93564  0.16521  Biso   1.000  H
  O20      1.0000 0.88711  0.15381  0.99219  Biso   1.000  O
  O21      1.0000 0.31849  0.61324  0.58446  Biso   1.000  O
  C61      1.0000 0.28550  0.64161  0.66639  Biso   1.000  C
  N41      1.0000 0.23922  0.74109  0.68717  Biso   1.000  N
  N42      1.0000 0.28697  0.57413  0.75097  Biso   1.000  N
  C62      1.0000 0.22059  0.82543  0.61162  Biso   1.000  C
  C63      1.0000 0.20133  0.74118  0.78973  Biso   1.000  C
  C64      1.0000 0.23060  0.62716  0.83357  Biso   1.000  C
  C65      1.0000 0.32731  0.46012  0.75286  Biso   1.000  C
  N43      1.0000 0.28452  0.92318  0.61086  Biso   1.000  N
  H61      1.0000 0.22297  0.78737  0.54434  Biso   1.000  H
  H62      1.0000 0.15609  0.85476  0.62141  Biso   1.000  H
  N44      1.0000 0.23599  0.82656  0.85800  Biso   1.000  N
  H63      1.0000 0.13137  0.74542  0.78677  Biso   1.000  H
  N45      1.0000 0.28592  0.65856  0.92270  Biso   1.000  N
  H64      1.0000 0.17542  0.57829  0.85201  Biso   1.000  H
  N46      1.0000 0.42080  0.45779  0.79769  Biso   1.000  N
  H65      1.0000 0.28578  0.40813  0.79208  Biso   1.000  H
  H66      1.0000 0.33088  0.43010  0.68270  Biso   1.000  H
  C66      1.0000 0.36800  0.92154  0.55321  Biso   1.000  C
  C67      1.0000 0.28018  0.01981  0.67633  Biso   1.000  C
  C68      1.0000 0.22780  0.94766  0.84943  Biso   1.000  C
  C69      1.0000 0.28613  0.77509  0.93431  Biso   1.000  C
  C70      1.0000 0.32731  0.57881  0.99408  Biso   1.000  C
  C71      1.0000 0.50000  0.46280  0.73580  Biso   1.000  C
  C72      1.0000 0.44258  0.44420  0.90366  Biso   1.000  C
  O22      1.0000 0.38711  0.84619  0.49222  Biso   1.000  O
  N47      1.0000 0.41408  0.01998  0.57172  Biso   1.000  N
  N48      1.0000 0.29629  0.00242  0.78010  Biso   1.000  N
  C73      1.0000 0.36863  0.09369  0.64416  Biso   1.000  C
  H67      1.0000 0.22108  0.06436  0.66517  Biso   1.000  H
  H68      1.0000 0.16387  0.96626  0.82538  Biso   1.000  H
  H69      1.0000 0.23522  0.98218  0.91770  Biso   1.000  H
  O23      1.0000 0.32010  0.82587  0.00759  Biso   1.000  O
  N49      1.0000 0.42339  0.54256  0.96632  Biso   1.000  N
  H70      1.0000 0.28711  0.50917  0.99879  Biso   1.000  H
  H71      1.0000 0.32878  0.61548  0.06190  Biso   1.000  H
  O24      1.0000 0.50000  0.46886  0.64303  Biso   1.000  O
  N50      1.0000 0.57920  0.45779  0.79769  Biso   1.000  N
  C74      1.0000 0.55742  0.44420  0.90366  Biso   1.000  C
  H72      1.0000 0.41611  0.37119  0.93249  Biso   1.000  H
  C75      1.0000 0.50000  0.05173  0.51513  Biso   1.000  C
  C76      1.0000 0.37150  0.06730  0.81863  Biso   1.000  C
  N51      1.0000 0.41520  0.11531  0.73648  Biso   1.000  N
  H73      1.0000 0.34867  0.16791  0.61170  Biso   1.000  H
  C77      1.0000 0.50000  0.59939  0.00478  Biso   1.000  C
  C78      1.0000 0.67269  0.46012  0.75286  Biso   1.000  C
  N52      1.0000 0.57661  0.54256  0.96632  Biso   1.000  N
  H74      1.0000 0.58389  0.37119  0.93249  Biso   1.000  H
  N53      1.0000 0.58592  0.01998  0.57172  Biso   1.000  N
  H75      1.0000 0.50000  0.01194  0.44868  Biso   1.000  H
  H76      1.0000 0.50000  0.13607  0.50239  Biso   1.000  H
  O25      1.0000 0.39069  0.07716  0.90723  Biso   1.000  O
  C79      1.0000 0.50000  0.18417  0.75082  Biso   1.000  C
  O26      1.0000 0.50000  0.68036  0.06091  Biso   1.000  O
  N54      1.0000 0.71303  0.57413  0.75097  Biso   1.000  N
  H77      1.0000 0.71422  0.40813  0.79208  Biso   1.000  H
  H78      1.0000 0.66912  0.43010  0.68270  Biso   1.000  H
  C80      1.0000 0.67269  0.57881  0.99408  Biso   1.000  C
  C81      1.0000 0.63200  0.92154  0.55321  Biso   1.000  C
  C82      1.0000 0.63137  0.09369  0.64416  Biso   1.000  C
  N55      1.0000 0.58480  0.11531  0.73648  Biso   1.000  N
  H79      1.0000 0.50000  0.21721  0.82007  Biso   1.000  H
  H80      1.0000 0.50000  0.24922  0.70189  Biso   1.000  H
  C83      1.0000 0.76940  0.62716  0.83357  Biso   1.000  C
  C84      1.0000 0.71450  0.64161  0.66639  Biso   1.000  C
  N56      1.0000 0.71408  0.65856  0.92270  Biso   1.000  N
  H81      1.0000 0.71289  0.50917  0.99879  Biso   1.000  H
  H82      1.0000 0.67122  0.61548  0.06190  Biso   1.000  H
  O27      1.0000 0.61289  0.84619  0.49222  Biso   1.000  O
  N57      1.0000 0.71548  0.92318  0.61086  Biso   1.000  N
  H83      1.0000 0.65133  0.16791  0.61170  Biso   1.000  H
  C85      1.0000 0.71982  0.01981  0.67633  Biso   1.000  C
  C86      1.0000 0.62850  0.06730  0.81863  Biso   1.000  C
  C87      1.0000 0.79867  0.74118  0.78973  Biso   1.000  C
  H84      1.0000 0.82458  0.57829  0.85201  Biso   1.000  H
  O28      1.0000 0.68151  0.61324  0.58446  Biso   1.000  O
  N58      1.0000 0.76078  0.74109  0.68717  Biso   1.000  N
  C88      1.0000 0.71387  0.77509  0.93431  Biso   1.000  C
  C89      1.0000 0.77941  0.82543  0.61162  Biso   1.000  C
  N59      1.0000 0.70371  0.00242  0.78010  Biso   1.000  N
  H85      1.0000 0.77892  0.06436  0.66517  Biso   1.000  H
  O29      1.0000 0.60931  0.07716  0.90723  Biso   1.000  O
  N60      1.0000 0.76401  0.82656  0.85800  Biso   1.000  N
  H86      1.0000 0.86863  0.74542  0.78677  Biso   1.000  H
  O30      1.0000 0.67990  0.82587  0.00759  Biso   1.000  O
  H87      1.0000 0.77703  0.78737  0.54434  Biso   1.000  H
  H88      1.0000 0.84391  0.85476  0.62141  Biso   1.000  H
  C90      1.0000 0.77220  0.94766  0.84943  Biso   1.000  C
  H89      1.0000 0.83613  0.96626  0.82538  Biso   1.000  H
  H90      1.0000 0.76478  0.98218  0.91770  Biso   1.000  H
  Ne1      1.0000 0.00000  0.21360  0.26855  Biso   1.000  Ne
  He1      1.0000 0.00000  0.09640  0.48447  Biso   1.000  He
  He2      1.0000 0.00000  0.32724  0.04733  Biso   1.000  He
  Ar1      1.0000 0.00000  0.21360  0.26855  Biso   1.000  Ar
  Ne2      1.0000 0.00000  0.21360  0.26855  Biso   1.000  Ne
  He3      1.0000 0.00000  0.09640  0.48447  Biso   1.000  He
  He4      1.0000 0.00000  0.32724  0.04733  Biso   1.000  He
  Ar2      1.0000 0.00000  0.21360  0.26855  Biso   1.000  Ar
  Ne3      1.0000 0.50000  0.78640  0.76855  Biso   1.000  Ne
  He5      1.0000 0.50000  0.90657  0.99022  Biso   1.000  He
  He6      1.0000 0.50000  0.67820  0.55783  Biso   1.000  He
  Ar3      1.0000 0.50000  0.78640  0.76855  Biso   1.000  Ar
