data_image0
_cell_length_a       15.908
_cell_length_b       11.873
_cell_length_c       14.477
_cell_angle_alpha    90
_cell_angle_beta     90
_cell_angle_gamma    90

_symmetry_space_group_name_H-M    "P 1"
_symmetry_int_tables_number       1

loop_
  _symmetry_equiv_pos_as_xyz
  'x, y, z'

loop_
  _atom_site_label
  _atom_site_occupancy
  _atom_site_fract_x
  _atom_site_fract_y
  _atom_site_fract_z
  _atom_site_thermal_displace_type
  _atom_site_B_iso_or_equiv
  _atom_site_type_symbol
  N1       1.0000 0.66828  0.31694  0.29378  Biso   1.000  N
  C1       1.0000 0.60642  0.29344  0.22249  Biso   1.000  C
  C2       1.0000 0.74045  0.39038  0.28065  Biso   1.000  C
  C3       1.0000 0.67607  0.25141  0.37031  Biso   1.000  C
  N2       1.0000 0.53904  0.37581  0.21987  Biso   1.000  N
  H1       1.0000 0.58197  0.21789  0.23347  Biso   1.000  H
  H2       1.0000 0.63477  0.29192  0.16170  Biso   1.000  H
  N3       1.0000 0.72159  0.50897  0.28259  Biso   1.000  N
  C4       1.0000 0.79212  0.37227  0.37052  Biso   1.000  C
  H3       1.0000 0.77338  0.36933  0.22442  Biso   1.000  H
  O1       1.0000 0.62899  0.17435  0.39255  Biso   1.000  O
  N4       1.0000 0.74736  0.28224  0.41638  Biso   1.000  N
  C5       1.0000 0.45713  0.34600  0.23520  Biso   1.000  C
  C6       1.0000 0.54526  0.47705  0.16398  Biso   1.000  C
  C7       1.0000 0.68356  0.57121  0.20785  Biso   1.000  C
  C8       1.0000 0.74943  0.56035  0.36161  Biso   1.000  C
  N5       1.0000 0.78608  0.48075  0.41652  Biso   1.000  N
  H4       1.0000 0.85171  0.35139  0.35698  Biso   1.000  H
  C9       1.0000 0.77477  0.22724  0.50003  Biso   1.000  C
  N6       1.0000 0.40671  0.43283  0.20488  Biso   1.000  N
  O2       1.0000 0.43192  0.25849  0.26912  Biso   1.000  O
  C10      1.0000 0.45474  0.52304  0.16398  Biso   1.000  C
  N7       1.0000 0.59329  0.56725  0.20488  Biso   1.000  N
  H5       1.0000 0.56500  0.45970  0.10002  Biso   1.000  H
  H6       1.0000 0.70568  0.54148  0.14872  Biso   1.000  H
  H7       1.0000 0.70128  0.65089  0.21268  Biso   1.000  H
  O3       1.0000 0.74365  0.66142  0.37874  Biso   1.000  O
  C11      1.0000 0.83178  0.50788  0.50003  Biso   1.000  C
  N8       1.0000 0.74736  0.28224  0.58362  Biso   1.000  N
  H8       1.0000 0.83700  0.22362  0.50003  Biso   1.000  H
  H9       1.0000 0.75339  0.14891  0.50003  Biso   1.000  H
  C12      1.0000 0.31638  0.42879  0.20785  Biso   1.000  C
  N9       1.0000 0.46096  0.62419  0.21987  Biso   1.000  N
  H10      1.0000 0.43500  0.54030  0.10002  Biso   1.000  H
  C13      1.0000 0.54281  0.65400  0.23520  Biso   1.000  C
  N10      1.0000 0.78608  0.48075  0.58348  Biso   1.000  N
  H11      1.0000 0.84498  0.58940  0.50003  Biso   1.000  H
  H12      1.0000 0.88566  0.46635  0.50003  Biso   1.000  H
  C14      1.0000 0.67607  0.25141  0.62969  Biso   1.000  C
  C15      1.0000 0.79212  0.37227  0.62948  Biso   1.000  C
  N11      1.0000 0.27841  0.49103  0.28259  Biso   1.000  N
  H13      1.0000 0.29432  0.45852  0.14872  Biso   1.000  H
  H14      1.0000 0.29872  0.34911  0.21268  Biso   1.000  H
  C16      1.0000 0.39358  0.70665  0.22249  Biso   1.000  C
  O4       1.0000 0.56808  0.74160  0.26912  Biso   1.000  O
  C17      1.0000 0.74943  0.56035  0.63839  Biso   1.000  C
  N12      1.0000 0.66828  0.31694  0.70622  Biso   1.000  N
  O5       1.0000 0.62899  0.17435  0.60745  Biso   1.000  O
  C18      1.0000 0.74045  0.39038  0.71935  Biso   1.000  C
  H15      1.0000 0.85171  0.35139  0.64302  Biso   1.000  H
  C19      1.0000 0.25057  0.43974  0.36161  Biso   1.000  C
  C20      1.0000 0.25955  0.60962  0.28065  Biso   1.000  C
  N13      1.0000 0.33172  0.68306  0.29378  Biso   1.000  N
  H16      1.0000 0.41797  0.78211  0.23347  Biso   1.000  H
  H17      1.0000 0.36516  0.70816  0.16170  Biso   1.000  H
  N14      1.0000 0.72159  0.50897  0.71741  Biso   1.000  N
  O6       1.0000 0.74365  0.66142  0.62126  Biso   1.000  O
  C21      1.0000 0.60642  0.29344  0.77751  Biso   1.000  C
  H18      1.0000 0.77338  0.36933  0.77558  Biso   1.000  H
  O7       1.0000 0.25635  0.33858  0.37874  Biso   1.000  O
  N15      1.0000 0.21392  0.51925  0.41652  Biso   1.000  N
  C22      1.0000 0.20788  0.62773  0.37052  Biso   1.000  C
  H19      1.0000 0.22662  0.63076  0.22442  Biso   1.000  H
  C23      1.0000 0.32393  0.74859  0.37031  Biso   1.000  C
  C24      1.0000 0.68356  0.57121  0.79215  Biso   1.000  C
  N16      1.0000 0.53904  0.37581  0.78013  Biso   1.000  N
  H20      1.0000 0.58197  0.21789  0.76653  Biso   1.000  H
  H21      1.0000 0.63477  0.29192  0.83830  Biso   1.000  H
  C25      1.0000 0.16822  0.49212  0.50003  Biso   1.000  C
  N17      1.0000 0.25258  0.71776  0.41638  Biso   1.000  N
  H22      1.0000 0.14829  0.64861  0.35698  Biso   1.000  H
  O8       1.0000 0.37101  0.82574  0.39255  Biso   1.000  O
  N18      1.0000 0.59329  0.56725  0.79512  Biso   1.000  N
  H23      1.0000 0.70568  0.54148  0.85128  Biso   1.000  H
  H24      1.0000 0.70128  0.65089  0.78732  Biso   1.000  H
  C26      1.0000 0.45713  0.34600  0.76480  Biso   1.000  C
  C27      1.0000 0.54526  0.47705  0.83602  Biso   1.000  C
  N19      1.0000 0.21392  0.51925  0.58348  Biso   1.000  N
  H25      1.0000 0.15502  0.41060  0.50003  Biso   1.000  H
  H26      1.0000 0.11428  0.53373  0.50003  Biso   1.000  H
  C28      1.0000 0.22517  0.77285  0.50003  Biso   1.000  C
  C29      1.0000 0.54281  0.65400  0.76480  Biso   1.000  C
  N20      1.0000 0.40671  0.43283  0.79512  Biso   1.000  N
  O9       1.0000 0.43192  0.25849  0.73088  Biso   1.000  O
  C30      1.0000 0.45474  0.52304  0.83602  Biso   1.000  C
  H27      1.0000 0.56500  0.45970  0.89998  Biso   1.000  H
  C31      1.0000 0.20788  0.62773  0.62948  Biso   1.000  C
  C32      1.0000 0.25057  0.43974  0.63839  Biso   1.000  C
  N21      1.0000 0.25258  0.71776  0.58362  Biso   1.000  N
  H28      1.0000 0.16300  0.77647  0.50003  Biso   1.000  H
  H29      1.0000 0.24661  0.85109  0.50003  Biso   1.000  H
  N22      1.0000 0.46096  0.62419  0.78013  Biso   1.000  N
  O10      1.0000 0.56808  0.74160  0.73088  Biso   1.000  O
  C33      1.0000 0.31638  0.42879  0.79215  Biso   1.000  C
  H30      1.0000 0.43500  0.54030  0.89998  Biso   1.000  H
  C34      1.0000 0.25955  0.60962  0.71935  Biso   1.000  C
  H31      1.0000 0.14829  0.64861  0.64302  Biso   1.000  H
  O11      1.0000 0.25635  0.33858  0.62126  Biso   1.000  O
  N23      1.0000 0.27841  0.49103  0.71741  Biso   1.000  N
  C35      1.0000 0.32393  0.74859  0.62969  Biso   1.000  C
  C36      1.0000 0.39358  0.70665  0.77751  Biso   1.000  C
  H32      1.0000 0.29432  0.45852  0.85128  Biso   1.000  H
  H33      1.0000 0.29872  0.34911  0.78732  Biso   1.000  H
  N24      1.0000 0.33172  0.68306  0.70622  Biso   1.000  N
  H34      1.0000 0.22662  0.63076  0.77558  Biso   1.000  H
  O12      1.0000 0.37101  0.82574  0.60745  Biso   1.000  O
  H35      1.0000 0.41797  0.78211  0.76653  Biso   1.000  H
  H36      1.0000 0.36516  0.70816  0.83830  Biso   1.000  H
  O13      1.0000 0.75635  0.16137  0.12123  Biso   1.000  O
  C37      1.0000 0.75057  0.06030  0.13836  Biso   1.000  C
  N25      1.0000 0.71392  0.98080  0.08351  Biso   1.000  N
  N26      1.0000 0.77841  0.00901  0.21745  Biso   1.000  N
  C38      1.0000 0.66822  0.00792  0.00000  Biso   1.000  C
  C39      1.0000 0.70788  0.87232  0.12945  Biso   1.000  C
  C40      1.0000 0.75955  0.89042  0.21938  Biso   1.000  C
  C41      1.0000 0.81638  0.07117  0.29219  Biso   1.000  C
  H37      1.0000 0.65502  0.08936  0.00000  Biso   1.000  H
  N27      1.0000 0.71392  0.98080  0.91649  Biso   1.000  N
  H38      1.0000 0.61428  0.96631  0.00000  Biso   1.000  H
  N28      1.0000 0.75258  0.78228  0.08358  Biso   1.000  N
  H39      1.0000 0.64829  0.85143  0.14299  Biso   1.000  H
  N29      1.0000 0.83172  0.81698  0.20626  Biso   1.000  N
  H40      1.0000 0.72662  0.86937  0.27561  Biso   1.000  H
  N30      1.0000 0.90671  0.06721  0.29509  Biso   1.000  N
  H41      1.0000 0.79425  0.04152  0.35132  Biso   1.000  H
  H42      1.0000 0.79865  0.15093  0.28728  Biso   1.000  H
  C42      1.0000 0.70788  0.87232  0.87055  Biso   1.000  C
  C43      1.0000 0.75057  0.06030  0.86164  Biso   1.000  C
  C44      1.0000 0.72517  0.72720  0.00000  Biso   1.000  C
  C45      1.0000 0.82393  0.75145  0.12965  Biso   1.000  C
  C46      1.0000 0.89358  0.79340  0.27747  Biso   1.000  C
  C47      1.0000 0.95713  0.15405  0.26483  Biso   1.000  C
  C48      1.0000 0.95474  0.97701  0.33605  Biso   1.000  C
  N31      1.0000 0.75258  0.78228  0.91642  Biso   1.000  N
  C49      1.0000 0.75955  0.89042  0.78062  Biso   1.000  C
  H43      1.0000 0.64829  0.85143  0.85701  Biso   1.000  H
  O14      1.0000 0.75635  0.16137  0.87877  Biso   1.000  O
  N32      1.0000 0.77841  0.00901  0.78255  Biso   1.000  N
  H44      1.0000 0.66300  0.72366  0.00000  Biso   1.000  H
  H45      1.0000 0.74661  0.64895  0.00000  Biso   1.000  H
  O15      1.0000 0.87095  0.67430  0.10748  Biso   1.000  O
  N33      1.0000 0.96096  0.87585  0.28010  Biso   1.000  N
  H46      1.0000 0.91797  0.71793  0.26649  Biso   1.000  H
  H47      1.0000 0.86516  0.79196  0.33833  Biso   1.000  H
  O16      1.0000 0.93192  0.24156  0.23092  Biso   1.000  O
  N34      1.0000 0.03904  0.12415  0.28010  Biso   1.000  N
  H48      1.0000 0.93500  0.95974  0.40001  Biso   1.000  H
  C50      1.0000 0.04526  0.02299  0.33605  Biso   1.000  C
  C51      1.0000 0.82393  0.75145  0.87035  Biso   1.000  C
  N35      1.0000 0.83172  0.81698  0.79374  Biso   1.000  N
  H49      1.0000 0.72662  0.86937  0.72439  Biso   1.000  H
  C52      1.0000 0.81638  0.07117  0.70781  Biso   1.000  C
  C53      1.0000 0.04281  0.84604  0.26483  Biso   1.000  C
  C54      1.0000 0.10642  0.20660  0.27747  Biso   1.000  C
  N36      1.0000 0.09329  0.93279  0.29509  Biso   1.000  N
  H50      1.0000 0.06500  0.04026  0.40001  Biso   1.000  H
  O17      1.0000 0.87095  0.67430  0.89252  Biso   1.000  O
  C55      1.0000 0.89358  0.79340  0.72253  Biso   1.000  C
  N37      1.0000 0.90671  0.06721  0.70491  Biso   1.000  N
  H51      1.0000 0.79425  0.04152  0.64868  Biso   1.000  H
  H52      1.0000 0.79865  0.15093  0.71272  Biso   1.000  H
  O18      1.0000 0.06808  0.75844  0.23092  Biso   1.000  O
  N38      1.0000 0.16828  0.18302  0.20626  Biso   1.000  N
  H53      1.0000 0.08197  0.28207  0.26649  Biso   1.000  H
  H54      1.0000 0.13477  0.20812  0.33833  Biso   1.000  H
  C56      1.0000 0.18356  0.92883  0.29219  Biso   1.000  C
  N39      1.0000 0.96096  0.87585  0.71990  Biso   1.000  N
  H55      1.0000 0.91797  0.71793  0.73351  Biso   1.000  H
  H56      1.0000 0.86516  0.79196  0.66167  Biso   1.000  H
  C57      1.0000 0.95474  0.97701  0.66395  Biso   1.000  C
  C58      1.0000 0.95713  0.15405  0.73517  Biso   1.000  C
  C59      1.0000 0.24045  0.10958  0.21938  Biso   1.000  C
  C60      1.0000 0.17607  0.24863  0.12965  Biso   1.000  C
  N40      1.0000 0.22159  0.99107  0.21745  Biso   1.000  N
  H57      1.0000 0.20568  0.95856  0.35132  Biso   1.000  H
  H58      1.0000 0.20128  0.84915  0.28728  Biso   1.000  H
  C61      1.0000 0.04281  0.84604  0.73517  Biso   1.000  C
  H59      1.0000 0.93500  0.95974  0.59999  Biso   1.000  H
  C62      1.0000 0.04526  0.02299  0.66395  Biso   1.000  C
  O19      1.0000 0.93192  0.24156  0.76908  Biso   1.000  O
  N41      1.0000 0.03904  0.12415  0.71990  Biso   1.000  N
  C63      1.0000 0.29212  0.12768  0.12945  Biso   1.000  C
  H60      1.0000 0.27338  0.13072  0.27561  Biso   1.000  H
  O20      1.0000 0.12899  0.32570  0.10748  Biso   1.000  O
  N42      1.0000 0.24742  0.21781  0.08358  Biso   1.000  N
  C64      1.0000 0.24943  0.93970  0.13836  Biso   1.000  C
  O21      1.0000 0.06808  0.75844  0.76908  Biso   1.000  O
  N43      1.0000 0.09329  0.93279  0.70491  Biso   1.000  N
  H61      1.0000 0.06500  0.04026  0.59999  Biso   1.000  H
  C65      1.0000 0.10642  0.20660  0.72253  Biso   1.000  C
  N44      1.0000 0.28608  0.01929  0.08351  Biso   1.000  N
  H62      1.0000 0.35171  0.14857  0.14299  Biso   1.000  H
  C66      1.0000 0.27477  0.27280  0.00000  Biso   1.000  C
  O22      1.0000 0.24365  0.83863  0.12123  Biso   1.000  O
  C67      1.0000 0.18356  0.92883  0.70781  Biso   1.000  C
  N45      1.0000 0.16828  0.18302  0.79374  Biso   1.000  N
  H63      1.0000 0.08197  0.28207  0.73351  Biso   1.000  H
  H64      1.0000 0.13477  0.20812  0.66167  Biso   1.000  H
  C68      1.0000 0.33178  0.99217  0.00000  Biso   1.000  C
  N46      1.0000 0.24742  0.21781  0.91642  Biso   1.000  N
  H65      1.0000 0.33700  0.27643  0.00000  Biso   1.000  H
  H66      1.0000 0.25339  0.35113  0.00000  Biso   1.000  H
  N47      1.0000 0.22159  0.99107  0.78255  Biso   1.000  N
  H67      1.0000 0.20568  0.95856  0.64868  Biso   1.000  H
  H68      1.0000 0.20128  0.84915  0.71272  Biso   1.000  H
  C69      1.0000 0.24045  0.10958  0.78062  Biso   1.000  C
  C70      1.0000 0.17607  0.24863  0.87035  Biso   1.000  C
  N48      1.0000 0.28608  0.01929  0.91649  Biso   1.000  N
  H69      1.0000 0.34498  0.91064  0.00000  Biso   1.000  H
  H70      1.0000 0.38572  0.03369  0.00000  Biso   1.000  H
  C71      1.0000 0.29212  0.12768  0.87055  Biso   1.000  C
  C72      1.0000 0.24943  0.93970  0.86164  Biso   1.000  C
  H71      1.0000 0.27338  0.13072  0.72439  Biso   1.000  H
  O23      1.0000 0.12899  0.32570  0.89252  Biso   1.000  O
  H72      1.0000 0.35171  0.14857  0.85701  Biso   1.000  H
  O24      1.0000 0.24365  0.83863  0.87877  Biso   1.000  O
  Ne1      1.0000 0.49999  0.50002  0.50000  Biso   1.000  Ne
  He1      1.0000 0.55464  0.77250  0.49999  Biso   1.000  He
  He2      1.0000 0.44968  0.24573  0.50000  Biso   1.000  He
  Ar1      1.0000 0.49999  0.49999  0.50000  Biso   1.000  Ar
  Ne2      1.0000 0.99999  0.00001  0.00000  Biso   1.000  Ne
  He3      1.0000 0.94969  0.25414  1.00000  Biso   1.000  He
  He4      1.0000 0.05145  0.74082  0.00000  Biso   1.000  He
  Ar2      1.0000 0.99999  0.00001  0.00000  Biso   1.000  Ar
