data_image0
_cell_length_a       22.995
_cell_length_b       10.854
_cell_length_c       28.601
_cell_angle_alpha    90
_cell_angle_beta     113.55
_cell_angle_gamma    90

_symmetry_space_group_name_H-M    "P 1"
_symmetry_int_tables_number       1

loop_
  _symmetry_equiv_pos_as_xyz
  'x, y, z'

loop_
  _atom_site_label
  _atom_site_occupancy
  _atom_site_fract_x
  _atom_site_fract_y
  _atom_site_fract_z
  _atom_site_thermal_displace_type
  _atom_site_B_iso_or_equiv
  _atom_site_type_symbol
  C1       1.0000 0.55634  0.42114  0.48007  Biso   1.000  C
  N1       1.0000 0.52312  0.33739  0.44254  Biso   1.000  N
  O1       1.0000 0.57275  0.52395  0.47275  Biso   1.000  O
  N2       1.0000 0.56526  0.37083  0.52603  Biso   1.000  N
  C2       1.0000 0.50707  0.36374  0.38907  Biso   1.000  C
  C3       1.0000 0.50425  0.23088  0.46241  Biso   1.000  C
  C4       1.0000 0.53125  0.25576  0.52104  Biso   1.000  C
  C5       1.0000 0.59376  0.43919  0.57260  Biso   1.000  C
  N3       1.0000 0.54972  0.30790  0.36962  Biso   1.000  N
  H1       1.0000 0.50748  0.45412  0.38438  Biso   1.000  H
  H2       1.0000 0.46355  0.33398  0.36878  Biso   1.000  H
  N4       1.0000 0.53557  0.11526  0.45929  Biso   1.000  N
  H3       1.0000 0.45705  0.22167  0.44777  Biso   1.000  H
  N5       1.0000 0.57052  0.14778  0.54301  Biso   1.000  N
  H4       1.0000 0.49647  0.26396  0.53339  Biso   1.000  H
  N6       1.0000 0.65900  0.40160  0.60430  Biso   1.000  N
  H5       1.0000 0.56746  0.42915  0.59259  Biso   1.000  H
  H6       1.0000 0.59374  0.52773  0.56417  Biso   1.000  H
  C6       1.0000 0.54155  0.18519  0.34906  Biso   1.000  C
  C7       1.0000 0.59486  0.37452  0.36035  Biso   1.000  C
  C8       1.0000 0.56846  0.06569  0.50612  Biso   1.000  C
  C9       1.0000 0.52308  0.04920  0.41340  Biso   1.000  C
  C10      1.0000 0.60396  0.12373  0.59690  Biso   1.000  C
  C11      1.0000 0.67373  0.30376  0.64068  Biso   1.000  C
  C12      1.0000 0.71013  0.47089  0.60830  Biso   1.000  C
  N7       1.0000 0.56064  0.08789  0.38617  Biso   1.000  N
  C13      1.0000 0.59257  0.17846  0.32519  Biso   1.000  C
  H7       1.0000 0.49766  0.17183  0.32278  Biso   1.000  H
  O2       1.0000 0.60708  0.48240  0.36989  Biso   1.000  O
  N8       1.0000 0.62461  0.29556  0.33918  Biso   1.000  N
  O3       1.0000 0.59115  0.96232  0.51432  Biso   1.000  O
  H8       1.0000 0.47764  0.05887  0.39067  Biso   1.000  H
  H9       1.0000 0.53076  0.96048  0.42160  Biso   1.000  H
  N9       1.0000 0.66529  0.18279  0.61986  Biso   1.000  N
  H10      1.0000 0.60976  0.03363  0.60209  Biso   1.000  H
  H11      1.0000 0.57732  0.15183  0.61479  Biso   1.000  H
  C14      1.0000 0.74783  0.31518  0.66990  Biso   1.000  C
  H12      1.0000 0.65163  0.31454  0.66429  Biso   1.000  H
  O4       1.0000 0.70956  0.56366  0.58302  Biso   1.000  O
  N10      1.0000 0.76261  0.41938  0.64530  Biso   1.000  N
  C15      1.0000 0.61086  0.02055  0.38510  Biso   1.000  C
  N11      1.0000 0.63030  0.07398  0.35063  Biso   1.000  N
  H13      1.0000 0.57248  0.16704  0.28739  Biso   1.000  H
  C16      1.0000 0.66469  0.34080  0.31454  Biso   1.000  C
  C17      1.0000 0.72163  0.11996  0.63355  Biso   1.000  C
  N12      1.0000 0.76955  0.19928  0.65891  Biso   1.000  N
  H14      1.0000 0.76092  0.32863  0.70728  Biso   1.000  H
  C18      1.0000 0.82303  0.48185  0.66467  Biso   1.000  C
  O5       1.0000 0.63266  0.92712  0.40963  Biso   1.000  O
  C19      1.0000 0.67687  0.01806  0.33529  Biso   1.000  C
  N13      1.0000 0.73039  0.30072  0.34105  Biso   1.000  N
  H15      1.0000 0.64809  0.31058  0.27888  Biso   1.000  H
  H16      1.0000 0.66326  0.43201  0.31359  Biso   1.000  H
  O6       1.0000 0.72691  0.01124  0.62405  Biso   1.000  O
  C20      1.0000 0.83525  0.15920  0.68542  Biso   1.000  C
  N14      1.0000 0.86964  0.42602  0.64934  Biso   1.000  N
  H17      1.0000 0.81655  0.56836  0.65277  Biso   1.000  H
  H18      1.0000 0.83995  0.48314  0.70239  Biso   1.000  H
  N15      1.0000 0.73731  0.08062  0.35471  Biso   1.000  N
  H19      1.0000 0.65997  0.01686  0.29761  Biso   1.000  H
  H20      1.0000 0.68339  0.93164  0.34719  Biso   1.000  H
  C21      1.0000 0.75207  0.18482  0.33007  Biso   1.000  C
  C22      1.0000 0.77828  0.37995  0.36645  Biso   1.000  C
  N16      1.0000 0.87528  0.20444  0.66078  Biso   1.000  N
  H21      1.0000 0.85185  0.18942  0.72108  Biso   1.000  H
  H22      1.0000 0.83664  0.06799  0.68638  Biso   1.000  H
  C23      1.0000 0.90733  0.32154  0.67478  Biso   1.000  C
  C24      1.0000 0.88905  0.47945  0.61490  Biso   1.000  C
  C25      1.0000 0.78977  0.02911  0.39166  Biso   1.000  C
  C26      1.0000 0.82617  0.19624  0.35928  Biso   1.000  C
  H23      1.0000 0.73897  0.17137  0.29269  Biso   1.000  H
  O7       1.0000 0.77298  0.48876  0.37591  Biso   1.000  O
  N17      1.0000 0.83460  0.31721  0.38011  Biso   1.000  N
  C27      1.0000 0.90503  0.12548  0.63962  Biso   1.000  C
  C28      1.0000 0.95835  0.31481  0.65091  Biso   1.000  C
  H24      1.0000 0.92742  0.33296  0.71258  Biso   1.000  H
  O8       1.0000 0.86724  0.57288  0.59034  Biso   1.000  O
  N18      1.0000 0.93925  0.41211  0.61379  Biso   1.000  N
  N19      1.0000 0.84094  0.09840  0.39567  Biso   1.000  N
  O9       1.0000 0.79033  0.93634  0.41695  Biso   1.000  O
  H25      1.0000 0.84827  0.18546  0.33567  Biso   1.000  H
  C29      1.0000 0.89600  0.37627  0.40311  Biso   1.000  C
  O10      1.0000 0.89281  0.01760  0.63008  Biso   1.000  O
  N20      1.0000 0.95018  0.19210  0.63035  Biso   1.000  N
  H26      1.0000 0.00224  0.32817  0.67718  Biso   1.000  H
  C30      1.0000 0.97688  0.45080  0.58660  Biso   1.000  C
  C31      1.0000 0.90616  0.06081  0.42740  Biso   1.000  C
  N21      1.0000 0.92942  0.35222  0.45696  Biso   1.000  N
  H27      1.0000 0.89018  0.46637  0.39788  Biso   1.000  H
  H28      1.0000 0.92258  0.34817  0.38518  Biso   1.000  H
  C32      1.0000 0.99287  0.13626  0.61090  Biso   1.000  C
  N22      1.0000 0.96437  0.38465  0.54068  Biso   1.000  N
  H29      1.0000 0.96915  0.53952  0.57840  Biso   1.000  H
  H30      1.0000 0.02225  0.44113  0.60929  Biso   1.000  H
  N23      1.0000 0.93468  0.12917  0.47393  Biso   1.000  N
  H31      1.0000 0.93248  0.07076  0.40738  Biso   1.000  H
  H32      1.0000 0.90615  0.97227  0.43579  Biso   1.000  H
  C33      1.0000 0.96864  0.24424  0.47893  Biso   1.000  C
  C34      1.0000 0.93146  0.43431  0.49388  Biso   1.000  C
  N24      1.0000 0.97682  0.16261  0.55742  Biso   1.000  N
  H33      1.0000 0.99246  0.04588  0.61559  Biso   1.000  H
  H34      1.0000 0.03631  0.16602  0.63119  Biso   1.000  H
  C35      1.0000 0.99565  0.26912  0.53755  Biso   1.000  C
  C36      1.0000 0.94356  0.07886  0.51989  Biso   1.000  C
  H35      1.0000 0.00343  0.23604  0.46657  Biso   1.000  H
  O11      1.0000 0.90875  0.53768  0.48564  Biso   1.000  O
  H36      1.0000 0.04285  0.27833  0.55220  Biso   1.000  H
  O12      1.0000 0.92715  0.97605  0.52722  Biso   1.000  O
  C37      1.0000 0.44353  0.57886  0.51989  Biso   1.000  C
  N25      1.0000 0.43465  0.62917  0.47393  Biso   1.000  N
  O13      1.0000 0.42713  0.47595  0.52722  Biso   1.000  O
  N26      1.0000 0.47680  0.66261  0.55742  Biso   1.000  N
  C38      1.0000 0.40618  0.56081  0.42740  Biso   1.000  C
  C39      1.0000 0.46867  0.74415  0.47893  Biso   1.000  C
  C40      1.0000 0.49562  0.76912  0.53755  Biso   1.000  C
  C41      1.0000 0.49285  0.63626  0.61090  Biso   1.000  C
  N27      1.0000 0.34092  0.59840  0.39567  Biso   1.000  N
  H37      1.0000 0.43246  0.57076  0.40738  Biso   1.000  H
  H38      1.0000 0.40618  0.47227  0.43579  Biso   1.000  H
  N28      1.0000 0.42939  0.85222  0.45696  Biso   1.000  N
  H39      1.0000 0.50345  0.73595  0.46657  Biso   1.000  H
  N29      1.0000 0.46435  0.88465  0.54068  Biso   1.000  N
  H40      1.0000 0.54287  0.77833  0.55220  Biso   1.000  H
  N30      1.0000 0.45015  0.69210  0.63035  Biso   1.000  N
  H41      1.0000 0.49244  0.54588  0.61559  Biso   1.000  H
  H42      1.0000 0.53633  0.66602  0.63119  Biso   1.000  H
  C42      1.0000 0.28975  0.52911  0.39166  Biso   1.000  C
  C43      1.0000 0.32619  0.69615  0.35928  Biso   1.000  C
  C44      1.0000 0.39598  0.87627  0.40311  Biso   1.000  C
  C45      1.0000 0.43148  0.93431  0.49388  Biso   1.000  C
  C46      1.0000 0.47686  0.95080  0.58660  Biso   1.000  C
  C47      1.0000 0.45833  0.81481  0.65091  Biso   1.000  C
  C48      1.0000 0.40501  0.62548  0.63962  Biso   1.000  C
  N31      1.0000 0.23729  0.58062  0.35471  Biso   1.000  N
  O14      1.0000 0.29031  0.43634  0.41695  Biso   1.000  O
  C49      1.0000 0.25205  0.68482  0.33007  Biso   1.000  C
  N32      1.0000 0.33458  0.81721  0.38011  Biso   1.000  N
  H43      1.0000 0.34825  0.68546  0.33567  Biso   1.000  H
  H44      1.0000 0.39016  0.96637  0.39788  Biso   1.000  H
  H45      1.0000 0.42256  0.84817  0.38518  Biso   1.000  H
  O15      1.0000 0.40873  0.03768  0.48564  Biso   1.000  O
  N33      1.0000 0.43923  0.91211  0.61379  Biso   1.000  N
  H46      1.0000 0.52223  0.94113  0.60929  Biso   1.000  H
  H47      1.0000 0.46913  0.03952  0.57840  Biso   1.000  H
  C50      1.0000 0.40731  0.82145  0.67478  Biso   1.000  C
  H48      1.0000 0.50222  0.82817  0.67718  Biso   1.000  H
  O16      1.0000 0.39284  0.51760  0.63008  Biso   1.000  O
  N34      1.0000 0.37526  0.70435  0.66078  Biso   1.000  N
  C51      1.0000 0.17685  0.51806  0.33529  Biso   1.000  C
  N35      1.0000 0.23037  0.80072  0.34105  Biso   1.000  N
  H49      1.0000 0.23895  0.67137  0.29269  Biso   1.000  H
  C52      1.0000 0.27826  0.87995  0.36645  Biso   1.000  C
  C53      1.0000 0.38903  0.97945  0.61490  Biso   1.000  C
  N36      1.0000 0.36962  0.92602  0.64934  Biso   1.000  N
  H50      1.0000 0.42744  0.83296  0.71258  Biso   1.000  H
  C54      1.0000 0.33523  0.65920  0.68542  Biso   1.000  C
  N37      1.0000 0.13028  0.57398  0.35063  Biso   1.000  N
  H51      1.0000 0.18337  0.43164  0.34719  Biso   1.000  H
  H52      1.0000 0.15999  0.51686  0.29761  Biso   1.000  H
  C55      1.0000 0.16466  0.84080  0.31454  Biso   1.000  C
  O17      1.0000 0.27296  0.98876  0.37591  Biso   1.000  O
  O18      1.0000 0.36721  0.07288  0.59034  Biso   1.000  O
  C56      1.0000 0.32301  0.98185  0.66467  Biso   1.000  C
  N38      1.0000 0.26953  0.69928  0.65891  Biso   1.000  N
  H53      1.0000 0.35182  0.68942  0.72108  Biso   1.000  H
  H54      1.0000 0.33662  0.56799  0.68638  Biso   1.000  H
  C57      1.0000 0.09254  0.67846  0.32519  Biso   1.000  C
  C58      1.0000 0.11088  0.52045  0.38510  Biso   1.000  C
  N39      1.0000 0.12459  0.79556  0.33918  Biso   1.000  N
  H55      1.0000 0.14807  0.81058  0.27888  Biso   1.000  H
  H56      1.0000 0.16328  0.93201  0.31359  Biso   1.000  H
  N40      1.0000 0.26263  0.91938  0.64530  Biso   1.000  N
  H57      1.0000 0.33993  0.98305  0.70239  Biso   1.000  H
  H58      1.0000 0.31653  0.06836  0.65277  Biso   1.000  H
  C59      1.0000 0.22165  0.61996  0.63355  Biso   1.000  C
  C60      1.0000 0.24785  0.81518  0.66990  Biso   1.000  C
  C61      1.0000 0.04157  0.68519  0.34906  Biso   1.000  C
  H59      1.0000 0.07246  0.66704  0.28739  Biso   1.000  H
  O19      1.0000 0.13264  0.42712  0.40963  Biso   1.000  O
  N41      1.0000 0.06066  0.58789  0.38617  Biso   1.000  N
  C62      1.0000 0.09484  0.87452  0.36035  Biso   1.000  C
  C63      1.0000 0.21011  0.97089  0.60830  Biso   1.000  C
  N42      1.0000 0.16527  0.68279  0.61986  Biso   1.000  N
  O20      1.0000 0.22694  0.51124  0.62405  Biso   1.000  O
  C64      1.0000 0.17371  0.80376  0.64068  Biso   1.000  C
  H60      1.0000 0.26090  0.82863  0.70728  Biso   1.000  H
  N43      1.0000 0.04974  0.80790  0.36962  Biso   1.000  N
  H61      1.0000 0.99772  0.67183  0.32278  Biso   1.000  H
  C65      1.0000 0.02306  0.54920  0.41340  Biso   1.000  C
  O21      1.0000 0.10706  0.98240  0.36989  Biso   1.000  O
  N44      1.0000 0.15897  0.90160  0.60430  Biso   1.000  N
  O22      1.0000 0.20959  0.06366  0.58302  Biso   1.000  O
  C66      1.0000 0.10394  0.62373  0.59690  Biso   1.000  C
  H62      1.0000 0.15165  0.81454  0.66429  Biso   1.000  H
  C67      1.0000 0.00705  0.86374  0.38907  Biso   1.000  C
  N45      1.0000 0.03555  0.61526  0.45929  Biso   1.000  N
  H63      1.0000 0.03074  0.46048  0.42160  Biso   1.000  H
  H64      1.0000 0.97767  0.55887  0.39067  Biso   1.000  H
  C68      1.0000 0.09373  0.93919  0.57260  Biso   1.000  C
  N46      1.0000 0.07050  0.64778  0.54301  Biso   1.000  N
  H65      1.0000 0.10973  0.53363  0.60209  Biso   1.000  H
  H66      1.0000 0.07734  0.65183  0.61479  Biso   1.000  H
  N47      1.0000 0.02310  0.83739  0.44254  Biso   1.000  N
  H67      1.0000 0.00746  0.95412  0.38438  Biso   1.000  H
  H68      1.0000 0.96361  0.83398  0.36878  Biso   1.000  H
  C69      1.0000 0.00423  0.73088  0.46241  Biso   1.000  C
  C70      1.0000 0.06844  0.56569  0.50612  Biso   1.000  C
  N48      1.0000 0.06524  0.87083  0.52603  Biso   1.000  N
  H69      1.0000 0.06744  0.92915  0.59259  Biso   1.000  H
  H70      1.0000 0.09372  0.02773  0.56417  Biso   1.000  H
  C71      1.0000 0.03123  0.75576  0.52104  Biso   1.000  C
  C72      1.0000 0.05632  0.92114  0.48007  Biso   1.000  C
  H71      1.0000 0.95703  0.72167  0.44777  Biso   1.000  H
  O23      1.0000 0.09117  0.46232  0.51432  Biso   1.000  O
  H72      1.0000 0.99649  0.76396  0.53339  Biso   1.000  H
  O24      1.0000 0.07273  0.02395  0.47275  Biso   1.000  O
  N49      1.0000 0.65906  0.59840  0.10431  Biso   1.000  N
  N50      1.0000 0.66536  0.81721  0.11988  Biso   1.000  N
  C73      1.0000 0.74789  0.68482  0.16992  Biso   1.000  C
  H73      1.0000 0.65169  0.68546  0.16431  Biso   1.000  H
  C74      1.0000 0.59382  0.56081  0.07262  Biso   1.000  C
  C75      1.0000 0.71019  0.52911  0.10832  Biso   1.000  C
  C76      1.0000 0.67379  0.69615  0.14070  Biso   1.000  C
  C77      1.0000 0.60402  0.87627  0.09691  Biso   1.000  C
  C78      1.0000 0.72169  0.87995  0.13357  Biso   1.000  C
  N51      1.0000 0.76267  0.58062  0.14532  Biso   1.000  N
  N52      1.0000 0.76961  0.80072  0.15893  Biso   1.000  N
  H74      1.0000 0.76098  0.67137  0.20729  Biso   1.000  H
  N53      1.0000 0.56533  0.62917  0.02605  Biso   1.000  N
  H75      1.0000 0.56753  0.57076  0.09261  Biso   1.000  H
  H76      1.0000 0.59380  0.47227  0.06419  Biso   1.000  H
  O25      1.0000 0.70963  0.43634  0.08303  Biso   1.000  O
  N54      1.0000 0.57059  0.85222  0.04302  Biso   1.000  N
  H77      1.0000 0.60982  0.96637  0.10210  Biso   1.000  H
  H78      1.0000 0.57743  0.84817  0.11480  Biso   1.000  H
  O26      1.0000 0.72698  0.98876  0.12407  Biso   1.000  O
  C79      1.0000 0.82309  0.51806  0.16469  Biso   1.000  C
  C80      1.0000 0.83532  0.84080  0.18544  Biso   1.000  C
  C81      1.0000 0.53132  0.74415  0.02105  Biso   1.000  C
  C82      1.0000 0.55630  0.57886  0.98005  Biso   1.000  C
  C83      1.0000 0.56850  0.93431  0.00610  Biso   1.000  C
  C84      1.0000 0.56852  0.93431  0.00614  Biso   1.000  C
  N55      1.0000 0.86970  0.57398  0.14936  Biso   1.000  N
  H79      1.0000 0.81661  0.43164  0.15279  Biso   1.000  H
  H80      1.0000 0.84001  0.51686  0.20241  Biso   1.000  H
  N56      1.0000 0.87534  0.79556  0.16080  Biso   1.000  N
  H81      1.0000 0.85191  0.81058  0.22110  Biso   1.000  H
  H82      1.0000 0.83670  0.93201  0.18639  Biso   1.000  H
  H83      1.0000 0.49653  0.73595  0.03341  Biso   1.000  H
  C85      1.0000 0.50421  0.76912  0.96239  Biso   1.000  C
  O27      1.0000 0.57271  0.47595  0.97273  Biso   1.000  O
  N57      1.0000 0.52308  0.66261  0.94252  Biso   1.000  N
  N58      1.0000 0.53553  0.88465  0.95927  Biso   1.000  N
  O28      1.0000 0.59121  0.03768  0.01434  Biso   1.000  O
  C86      1.0000 0.90739  0.67846  0.17480  Biso   1.000  C
  C87      1.0000 0.88912  0.52045  0.11492  Biso   1.000  C
  C88      1.0000 0.90509  0.87452  0.13963  Biso   1.000  C
  H84      1.0000 0.45701  0.77833  0.94775  Biso   1.000  H
  H85      1.0000 0.45703  0.77833  0.94779  Biso   1.000  H
  C89      1.0000 0.50705  0.63626  0.88909  Biso   1.000  C
  C90      1.0000 0.52303  0.95080  0.91338  Biso   1.000  C
  C91      1.0000 0.95841  0.68519  0.15092  Biso   1.000  C
  H86      1.0000 0.92748  0.66704  0.21259  Biso   1.000  H
  O29      1.0000 0.86730  0.42712  0.09035  Biso   1.000  O
  N59      1.0000 0.93932  0.58789  0.11381  Biso   1.000  N
  N60      1.0000 0.95024  0.80790  0.13036  Biso   1.000  N
  O30      1.0000 0.89288  0.98240  0.13010  Biso   1.000  O
  N61      1.0000 0.54968  0.69210  0.86960  Biso   1.000  N
  H87      1.0000 0.50744  0.54588  0.88436  Biso   1.000  H
  H88      1.0000 0.46350  0.66602  0.86876  Biso   1.000  H
  N62      1.0000 0.56064  0.91211  0.88615  Biso   1.000  N
  H89      1.0000 0.47762  0.94113  0.89069  Biso   1.000  H
  H90      1.0000 0.53072  0.03952  0.92158  Biso   1.000  H
  H91      1.0000 0.00230  0.67183  0.17720  Biso   1.000  H
  H92      1.0000 0.00226  0.67183  0.17720  Biso   1.000  H
  C92      1.0000 0.97688  0.54920  0.08658  Biso   1.000  C
  C93      1.0000 0.97694  0.54920  0.08662  Biso   1.000  C
  C94      1.0000 0.99293  0.86374  0.11091  Biso   1.000  C
  C95      1.0000 0.54150  0.81481  0.84904  Biso   1.000  C
  C96      1.0000 0.59482  0.62548  0.86033  Biso   1.000  C
  C97      1.0000 0.61082  0.97945  0.88508  Biso   1.000  C
  N63      1.0000 0.96443  0.61526  0.04070  Biso   1.000  N
  H93      1.0000 0.96922  0.46048  0.07842  Biso   1.000  H
  H94      1.0000 0.02232  0.55887  0.10931  Biso   1.000  H
  H95      1.0000 0.02227  0.55887  0.10931  Biso   1.000  H
  N64      1.0000 0.97688  0.83739  0.05744  Biso   1.000  N
  H96      1.0000 0.99252  0.95412  0.11560  Biso   1.000  H
  H97      1.0000 0.03637  0.83398  0.13120  Biso   1.000  H
  C98      1.0000 0.59252  0.82145  0.82516  Biso   1.000  C
  H98      1.0000 0.49761  0.82817  0.82276  Biso   1.000  H
  O31      1.0000 0.60704  0.51760  0.86986  Biso   1.000  O
  N65      1.0000 0.62459  0.70435  0.83920  Biso   1.000  N
  N66      1.0000 0.63026  0.92602  0.85060  Biso   1.000  N
  O32      1.0000 0.63262  0.07288  0.90961  Biso   1.000  O
  C99      1.0000 0.99571  0.73088  0.03757  Biso   1.000  C
  C100     1.0000 0.93141  0.56569  0.99386  Biso   1.000  C
  C101     1.0000 0.94362  0.92114  0.01991  Biso   1.000  C
  H99      1.0000 0.57243  0.83296  0.78737  Biso   1.000  H
  C102     1.0000 0.66464  0.65920  0.81452  Biso   1.000  C
  C103     1.0000 0.67682  0.98185  0.83527  Biso   1.000  C
  C104     1.0000 0.96860  0.75576  0.97891  Biso   1.000  C
  C105     1.0000 0.96864  0.75576  0.97891  Biso   1.000  C
  H100     1.0000 0.04291  0.72167  0.05221  Biso   1.000  H
  H101     1.0000 0.04286  0.72167  0.05221  Biso   1.000  H
  N67      1.0000 0.92937  0.64778  0.95694  Biso   1.000  N
  N68      1.0000 0.92939  0.64778  0.95698  Biso   1.000  N
  O33      1.0000 0.90871  0.46232  0.98562  Biso   1.000  O
  N69      1.0000 0.93463  0.87083  0.97391  Biso   1.000  N
  O34      1.0000 0.92721  0.02395  0.02723  Biso   1.000  O
  N70      1.0000 0.73031  0.69928  0.84103  Biso   1.000  N
  H102     1.0000 0.64805  0.68942  0.77886  Biso   1.000  H
  H103     1.0000 0.66321  0.56799  0.81357  Biso   1.000  H
  N71      1.0000 0.73035  0.69928  0.84103  Biso   1.000  N
  H104     1.0000 0.66326  0.56799  0.81357  Biso   1.000  H
  N72      1.0000 0.73727  0.91938  0.85468  Biso   1.000  N
  H105     1.0000 0.65990  0.98305  0.79755  Biso   1.000  H
  H106     1.0000 0.65997  0.98305  0.79759  Biso   1.000  H
  H107     1.0000 0.68335  0.06836  0.84717  Biso   1.000  H
  H108     1.0000 0.00343  0.76396  0.96655  Biso   1.000  H
  H109     1.0000 0.00338  0.76396  0.96655  Biso   1.000  H
  C106     1.0000 0.89596  0.62373  0.90309  Biso   1.000  C
  C107     1.0000 0.90612  0.93919  0.92738  Biso   1.000  C
  C108     1.0000 0.75203  0.81518  0.83005  Biso   1.000  C
  C109     1.0000 0.77824  0.61996  0.86643  Biso   1.000  C
  C110     1.0000 0.78973  0.97089  0.89164  Biso   1.000  C
  N73      1.0000 0.83456  0.68279  0.88009  Biso   1.000  N
  H110     1.0000 0.89014  0.53363  0.89786  Biso   1.000  H
  H111     1.0000 0.92253  0.65183  0.88516  Biso   1.000  H
  N74      1.0000 0.84090  0.90160  0.89565  Biso   1.000  N
  H112     1.0000 0.93243  0.92915  0.90736  Biso   1.000  H
  H113     1.0000 0.90611  0.02773  0.93577  Biso   1.000  H
  C111     1.0000 0.82612  0.80376  0.85926  Biso   1.000  C
  H114     1.0000 0.73893  0.82863  0.79267  Biso   1.000  H
  O35      1.0000 0.77296  0.51124  0.87593  Biso   1.000  O
  O36      1.0000 0.79029  0.06366  0.91693  Biso   1.000  O
  H115     1.0000 0.84822  0.81454  0.83565  Biso   1.000  H
  H116     1.0000 0.84824  0.81454  0.83569  Biso   1.000  H
  C112     1.0000 0.32613  0.30376  0.85927  Biso   1.000  C
  C113     1.0000 0.25199  0.31518  0.83005  Biso   1.000  C
  N75      1.0000 0.34086  0.40160  0.89565  Biso   1.000  N
  N76      1.0000 0.33452  0.18279  0.88009  Biso   1.000  N
  H117     1.0000 0.34818  0.31454  0.83566  Biso   1.000  H
  N77      1.0000 0.33456  0.18279  0.88009  Biso   1.000  N
  H118     1.0000 0.34820  0.31454  0.83570  Biso   1.000  H
  N78      1.0000 0.23722  0.41938  0.85469  Biso   1.000  N
  N79      1.0000 0.23031  0.19928  0.84104  Biso   1.000  N
  H119     1.0000 0.23889  0.32863  0.79267  Biso   1.000  H
  C114     1.0000 0.28969  0.47089  0.89165  Biso   1.000  C
  C115     1.0000 0.40612  0.43919  0.92739  Biso   1.000  C
  C116     1.0000 0.27820  0.11996  0.86644  Biso   1.000  C
  C117     1.0000 0.39590  0.12373  0.90305  Biso   1.000  C
  C118     1.0000 0.39592  0.12373  0.90309  Biso   1.000  C
  C119     1.0000 0.17678  0.48185  0.83528  Biso   1.000  C
  C120     1.0000 0.16460  0.15920  0.81453  Biso   1.000  C
  O37      1.0000 0.29025  0.56366  0.91693  Biso   1.000  O
  H120     1.0000 0.43239  0.42915  0.90736  Biso   1.000  H
  H121     1.0000 0.40611  0.52773  0.93578  Biso   1.000  H
  N80      1.0000 0.43459  0.37083  0.97392  Biso   1.000  N
  O38      1.0000 0.27290  0.01124  0.87590  Biso   1.000  O
  O39      1.0000 0.27292  0.01124  0.87593  Biso   1.000  O
  H122     1.0000 0.39010  0.03363  0.89786  Biso   1.000  H
  H123     1.0000 0.42249  0.15183  0.88516  Biso   1.000  H
  N81      1.0000 0.42933  0.14778  0.95694  Biso   1.000  N
  N82      1.0000 0.42935  0.14778  0.95698  Biso   1.000  N
  N83      1.0000 0.13022  0.42602  0.85061  Biso   1.000  N
  H124     1.0000 0.18331  0.56836  0.84718  Biso   1.000  H
  H125     1.0000 0.15993  0.48314  0.79759  Biso   1.000  H
  H126     1.0000 0.14801  0.18942  0.77887  Biso   1.000  H
  H127     1.0000 0.16321  0.06799  0.81357  Biso   1.000  H
  N84      1.0000 0.12453  0.20444  0.83917  Biso   1.000  N
  N85      1.0000 0.12459  0.20444  0.83920  Biso   1.000  N
  C121     1.0000 0.46860  0.25576  0.97891  Biso   1.000  C
  C122     1.0000 0.44358  0.42114  0.01991  Biso   1.000  C
  C123     1.0000 0.43142  0.06569  0.99386  Biso   1.000  C
  C124     1.0000 0.09248  0.32154  0.82517  Biso   1.000  C
  C125     1.0000 0.11078  0.47945  0.88509  Biso   1.000  C
  C126     1.0000 0.09253  0.32154  0.82517  Biso   1.000  C
  C127     1.0000 0.11082  0.47945  0.88509  Biso   1.000  C
  C128     1.0000 0.09478  0.12548  0.86033  Biso   1.000  C
  H128     1.0000 0.50338  0.26396  0.96656  Biso   1.000  H
  C129     1.0000 0.49567  0.23088  0.03757  Biso   1.000  C
  C130     1.0000 0.49571  0.23088  0.03757  Biso   1.000  C
  N86      1.0000 0.47684  0.33739  0.05744  Biso   1.000  N
  O40      1.0000 0.42721  0.52395  0.02724  Biso   1.000  O
  O41      1.0000 0.40866  0.96232  0.98563  Biso   1.000  O
  N87      1.0000 0.46439  0.11526  0.04070  Biso   1.000  N
  C131     1.0000 0.04151  0.31481  0.84904  Biso   1.000  C
  H129     1.0000 0.07239  0.33296  0.78737  Biso   1.000  H
  N88      1.0000 0.06060  0.41211  0.88616  Biso   1.000  N
  O42      1.0000 0.13258  0.57288  0.90961  Biso   1.000  O
  O43      1.0000 0.13262  0.57288  0.90961  Biso   1.000  O
  O44      1.0000 0.10700  0.01760  0.86987  Biso   1.000  O
  N89      1.0000 0.04968  0.19210  0.86960  Biso   1.000  N
  H130     1.0000 0.54291  0.22167  0.05222  Biso   1.000  H
  C132     1.0000 0.49289  0.36374  0.11092  Biso   1.000  C
  C133     1.0000 0.47690  0.04920  0.08662  Biso   1.000  C
  H131     1.0000 0.99762  0.32817  0.82277  Biso   1.000  H
  C134     1.0000 0.02299  0.45080  0.91339  Biso   1.000  C
  C135     1.0000 0.00699  0.13626  0.88905  Biso   1.000  C
  C136     1.0000 0.00701  0.13626  0.88909  Biso   1.000  C
  N90      1.0000 0.45020  0.30790  0.13037  Biso   1.000  N
  H132     1.0000 0.49248  0.45412  0.11561  Biso   1.000  H
  H133     1.0000 0.53637  0.33398  0.13121  Biso   1.000  H
  H134     1.0000 0.46917  0.96048  0.07842  Biso   1.000  H
  N91      1.0000 0.43928  0.08789  0.11382  Biso   1.000  N
  H135     1.0000 0.52227  0.05887  0.10932  Biso   1.000  H
  N92      1.0000 0.03549  0.38465  0.95927  Biso   1.000  N
  H136     1.0000 0.97760  0.44113  0.89066  Biso   1.000  H
  H137     1.0000 0.97767  0.44113  0.89069  Biso   1.000  H
  H138     1.0000 0.03066  0.53952  0.92155  Biso   1.000  H
  H139     1.0000 0.03068  0.53952  0.92159  Biso   1.000  H
  N93      1.0000 0.02304  0.16261  0.94253  Biso   1.000  N
  H140     1.0000 0.00740  0.04588  0.88436  Biso   1.000  H
  H141     1.0000 0.96355  0.16602  0.86876  Biso   1.000  H
  C137     1.0000 0.45837  0.18519  0.15093  Biso   1.000  C
  C138     1.0000 0.40505  0.37452  0.13964  Biso   1.000  C
  C139     1.0000 0.38907  0.02055  0.11492  Biso   1.000  C
  C140     1.0000 0.00417  0.26912  0.96240  Biso   1.000  C
  C141     1.0000 0.06848  0.43431  0.00615  Biso   1.000  C
  C142     1.0000 0.05626  0.07886  0.98006  Biso   1.000  C
  C143     1.0000 0.40735  0.17846  0.17480  Biso   1.000  C
  H142     1.0000 0.50226  0.17183  0.17721  Biso   1.000  H
  O45      1.0000 0.39288  0.48240  0.13010  Biso   1.000  O
  N94      1.0000 0.37530  0.29556  0.16081  Biso   1.000  N
  O46      1.0000 0.36726  0.92712  0.09036  Biso   1.000  O
  N95      1.0000 0.36966  0.07398  0.14936  Biso   1.000  N
  H143     1.0000 0.95701  0.27833  0.94775  Biso   1.000  H
  H144     1.0000 0.95699  0.27833  0.94779  Biso   1.000  H
  C144     1.0000 0.03127  0.24424  0.02106  Biso   1.000  C
  O47      1.0000 0.09121  0.53768  0.01435  Biso   1.000  O
  N96      1.0000 0.07055  0.35222  0.04303  Biso   1.000  N
  O48      1.0000 0.07266  0.97605  0.97273  Biso   1.000  O
  N97      1.0000 0.06529  0.12917  0.02605  Biso   1.000  N
  H145     1.0000 0.42748  0.16704  0.21260  Biso   1.000  H
  C145     1.0000 0.33528  0.34080  0.18544  Biso   1.000  C
  C146     1.0000 0.32305  0.01806  0.16470  Biso   1.000  C
  H146     1.0000 0.99654  0.23604  0.03342  Biso   1.000  H
  H147     1.0000 0.99649  0.23604  0.03342  Biso   1.000  H
  C147     1.0000 0.10398  0.37627  0.09692  Biso   1.000  C
  C148     1.0000 0.09376  0.06081  0.07259  Biso   1.000  C
  C149     1.0000 0.09378  0.06081  0.07262  Biso   1.000  C
  N98      1.0000 0.26957  0.30072  0.15894  Biso   1.000  N
  H148     1.0000 0.35187  0.31058  0.22111  Biso   1.000  H
  H149     1.0000 0.33666  0.43201  0.18640  Biso   1.000  H
  H150     1.0000 0.31657  0.93164  0.15280  Biso   1.000  H
  N99      1.0000 0.26261  0.08062  0.14528  Biso   1.000  N
  H151     1.0000 0.33997  0.01686  0.20242  Biso   1.000  H
  N100     1.0000 0.26267  0.08062  0.14532  Biso   1.000  N
  N101     1.0000 0.16532  0.31721  0.11988  Biso   1.000  N
  H152     1.0000 0.10978  0.46637  0.10211  Biso   1.000  H
  H153     1.0000 0.07739  0.34817  0.11481  Biso   1.000  H
  H154     1.0000 0.09376  0.97227  0.06420  Biso   1.000  H
  N102     1.0000 0.15902  0.09840  0.10432  Biso   1.000  N
  H155     1.0000 0.06748  0.07076  0.09261  Biso   1.000  H
  C150     1.0000 0.22168  0.37995  0.13353  Biso   1.000  C
  C151     1.0000 0.22170  0.37995  0.13357  Biso   1.000  C
  C152     1.0000 0.24789  0.18482  0.16992  Biso   1.000  C
  C153     1.0000 0.21015  0.02911  0.10832  Biso   1.000  C
  C154     1.0000 0.21019  0.02911  0.10832  Biso   1.000  C
  C155     1.0000 0.17377  0.19624  0.14074  Biso   1.000  C
  O49      1.0000 0.22698  0.48876  0.12408  Biso   1.000  O
  H156     1.0000 0.26094  0.17137  0.20730  Biso   1.000  H
  O50      1.0000 0.20963  0.93634  0.08304  Biso   1.000  O
  H157     1.0000 0.15169  0.18546  0.16431  Biso   1.000  H
