data_image0
_cell_length_a       22.995
_cell_length_b       10.854
_cell_length_c       28.601
_cell_angle_alpha    90
_cell_angle_beta     113.55
_cell_angle_gamma    90

_symmetry_space_group_name_H-M    "P 1"
_symmetry_int_tables_number       1

loop_
  _symmetry_equiv_pos_as_xyz
  'x, y, z'

loop_
  _atom_site_label
  _atom_site_occupancy
  _atom_site_fract_x
  _atom_site_fract_y
  _atom_site_fract_z
  _atom_site_thermal_displace_type
  _atom_site_B_iso_or_equiv
  _atom_site_type_symbol
  O1       1.0000 0.39284  0.51760  0.63008  Biso   1.000  O
  C1       1.0000 0.40501  0.62548  0.63962  Biso   1.000  C
  N1       1.0000 0.45015  0.69210  0.63035  Biso   1.000  N
  N2       1.0000 0.37526  0.70435  0.66078  Biso   1.000  N
  C2       1.0000 0.49285  0.63626  0.61090  Biso   1.000  C
  C3       1.0000 0.45833  0.81481  0.65091  Biso   1.000  C
  C4       1.0000 0.40731  0.82145  0.67478  Biso   1.000  C
  C5       1.0000 0.33523  0.65920  0.68542  Biso   1.000  C
  N3       1.0000 0.47680  0.66261  0.55742  Biso   1.000  N
  H1       1.0000 0.49244  0.54588  0.61559  Biso   1.000  H
  H2       1.0000 0.53633  0.66602  0.63119  Biso   1.000  H
  N4       1.0000 0.43923  0.91211  0.61379  Biso   1.000  N
  H3       1.0000 0.50222  0.82817  0.67718  Biso   1.000  H
  N5       1.0000 0.36962  0.92602  0.64934  Biso   1.000  N
  H4       1.0000 0.42744  0.83296  0.71258  Biso   1.000  H
  N6       1.0000 0.26953  0.69928  0.65891  Biso   1.000  N
  H5       1.0000 0.35182  0.68942  0.72108  Biso   1.000  H
  H6       1.0000 0.33662  0.56799  0.68638  Biso   1.000  H
  C6       1.0000 0.44353  0.57886  0.51989  Biso   1.000  C
  C7       1.0000 0.49562  0.76912  0.53755  Biso   1.000  C
  C8       1.0000 0.47686  0.95080  0.58660  Biso   1.000  C
  C9       1.0000 0.38903  0.97945  0.61490  Biso   1.000  C
  C10      1.0000 0.32301  0.98185  0.66467  Biso   1.000  C
  C11      1.0000 0.22165  0.61996  0.63355  Biso   1.000  C
  C12      1.0000 0.24785  0.81518  0.66990  Biso   1.000  C
  N7       1.0000 0.43465  0.62917  0.47393  Biso   1.000  N
  O2       1.0000 0.42713  0.47595  0.52722  Biso   1.000  O
  C13      1.0000 0.46867  0.74415  0.47893  Biso   1.000  C
  N8       1.0000 0.46435  0.88465  0.54068  Biso   1.000  N
  H7       1.0000 0.54287  0.77833  0.55220  Biso   1.000  H
  H8       1.0000 0.52223  0.94113  0.60929  Biso   1.000  H
  H9       1.0000 0.46913  0.03952  0.57840  Biso   1.000  H
  O3       1.0000 0.36721  0.07288  0.59034  Biso   1.000  O
  N9       1.0000 0.26263  0.91938  0.64530  Biso   1.000  N
  H10      1.0000 0.33993  0.98305  0.70239  Biso   1.000  H
  H11      1.0000 0.31653  0.06836  0.65277  Biso   1.000  H
  N10      1.0000 0.16527  0.68279  0.61986  Biso   1.000  N
  O4       1.0000 0.22694  0.51124  0.62405  Biso   1.000  O
  C14      1.0000 0.17371  0.80376  0.64068  Biso   1.000  C
  H12      1.0000 0.26090  0.82863  0.70728  Biso   1.000  H
  C15      1.0000 0.40618  0.56081  0.42740  Biso   1.000  C
  N11      1.0000 0.42939  0.85222  0.45696  Biso   1.000  N
  H13      1.0000 0.50345  0.73595  0.46657  Biso   1.000  H
  C16      1.0000 0.43148  0.93431  0.49388  Biso   1.000  C
  C17      1.0000 0.21011  0.97089  0.60830  Biso   1.000  C
  C18      1.0000 0.10394  0.62373  0.59690  Biso   1.000  C
  N12      1.0000 0.15897  0.90160  0.60430  Biso   1.000  N
  H14      1.0000 0.15165  0.81454  0.66429  Biso   1.000  H
  N13      1.0000 0.34092  0.59840  0.39567  Biso   1.000  N
  H15      1.0000 0.43246  0.57076  0.40738  Biso   1.000  H
  H16      1.0000 0.40618  0.47227  0.43579  Biso   1.000  H
  C19      1.0000 0.39598  0.87627  0.40311  Biso   1.000  C
  O5       1.0000 0.40873  0.03768  0.48564  Biso   1.000  O
  O6       1.0000 0.20959  0.06366  0.58302  Biso   1.000  O
  N14      1.0000 0.07050  0.64778  0.54301  Biso   1.000  N
  H17      1.0000 0.10973  0.53363  0.60209  Biso   1.000  H
  H18      1.0000 0.07734  0.65183  0.61479  Biso   1.000  H
  C20      1.0000 0.09373  0.93919  0.57260  Biso   1.000  C
  C21      1.0000 0.28975  0.52911  0.39166  Biso   1.000  C
  C22      1.0000 0.32619  0.69615  0.35928  Biso   1.000  C
  N15      1.0000 0.33458  0.81721  0.38011  Biso   1.000  N
  H19      1.0000 0.39016  0.96637  0.39788  Biso   1.000  H
  H20      1.0000 0.42256  0.84817  0.38518  Biso   1.000  H
  C23      1.0000 0.06844  0.56569  0.50612  Biso   1.000  C
  C24      1.0000 0.03123  0.75576  0.52104  Biso   1.000  C
  N16      1.0000 0.06524  0.87083  0.52603  Biso   1.000  N
  H21      1.0000 0.06744  0.92915  0.59259  Biso   1.000  H
  H22      1.0000 0.09372  0.02773  0.56417  Biso   1.000  H
  N17      1.0000 0.23729  0.58062  0.35471  Biso   1.000  N
  O7       1.0000 0.29031  0.43634  0.41695  Biso   1.000  O
  C25      1.0000 0.25205  0.68482  0.33007  Biso   1.000  C
  H23      1.0000 0.34825  0.68546  0.33567  Biso   1.000  H
  C26      1.0000 0.27826  0.87995  0.36645  Biso   1.000  C
  N18      1.0000 0.03555  0.61526  0.45929  Biso   1.000  N
  O8       1.0000 0.09117  0.46232  0.51432  Biso   1.000  O
  C27      1.0000 0.00423  0.73088  0.46241  Biso   1.000  C
  H24      1.0000 0.99645  0.76396  0.53339  Biso   1.000  H
  C28      1.0000 0.05632  0.92114  0.48007  Biso   1.000  C
  C29      1.0000 0.17685  0.51806  0.33529  Biso   1.000  C
  N19      1.0000 0.23037  0.80072  0.34105  Biso   1.000  N
  H25      1.0000 0.23895  0.67137  0.29269  Biso   1.000  H
  O9       1.0000 0.27296  0.98876  0.37591  Biso   1.000  O
  C30      1.0000 0.02306  0.54920  0.41340  Biso   1.000  C
  N20      1.0000 0.02310  0.83739  0.44254  Biso   1.000  N
  H26      1.0000 0.95707  0.72167  0.44777  Biso   1.000  H
  O10      1.0000 0.07273  0.02395  0.47275  Biso   1.000  O
  N21      1.0000 0.13028  0.57398  0.35063  Biso   1.000  N
  H27      1.0000 0.18337  0.43164  0.34719  Biso   1.000  H
  H28      1.0000 0.15999  0.51686  0.29761  Biso   1.000  H
  C31      1.0000 0.16466  0.84080  0.31454  Biso   1.000  C
  N22      1.0000 0.06066  0.58789  0.38617  Biso   1.000  N
  H29      1.0000 0.03074  0.46048  0.42160  Biso   1.000  H
  H30      1.0000 0.97767  0.55887  0.39067  Biso   1.000  H
  C32      1.0000 0.00705  0.86374  0.38907  Biso   1.000  C
  C33      1.0000 0.09254  0.67846  0.32519  Biso   1.000  C
  C34      1.0000 0.11088  0.52045  0.38510  Biso   1.000  C
  N23      1.0000 0.12459  0.79556  0.33918  Biso   1.000  N
  H31      1.0000 0.14807  0.81058  0.27888  Biso   1.000  H
  H32      1.0000 0.16328  0.93201  0.31359  Biso   1.000  H
  C35      1.0000 0.04157  0.68519  0.34906  Biso   1.000  C
  N24      1.0000 0.04974  0.80790  0.36962  Biso   1.000  N
  H33      1.0000 0.00746  0.95412  0.38438  Biso   1.000  H
  H34      1.0000 0.96357  0.83398  0.36878  Biso   1.000  H
  H35      1.0000 0.07246  0.66704  0.28739  Biso   1.000  H
  O11      1.0000 0.13264  0.42712  0.40963  Biso   1.000  O
  C36      1.0000 0.09484  0.87452  0.36035  Biso   1.000  C
  H36      1.0000 0.99768  0.67183  0.32278  Biso   1.000  H
  O12      1.0000 0.10706  0.98240  0.36989  Biso   1.000  O
  C37      1.0000 0.66462  0.65920  0.81453  Biso   1.000  C
  N25      1.0000 0.62457  0.70435  0.83920  Biso   1.000  N
  N26      1.0000 0.73033  0.69928  0.84104  Biso   1.000  N
  H37      1.0000 0.64803  0.68942  0.77887  Biso   1.000  H
  H38      1.0000 0.66324  0.56799  0.81357  Biso   1.000  H
  C38      1.0000 0.59250  0.82145  0.82517  Biso   1.000  C
  C39      1.0000 0.59480  0.62548  0.86033  Biso   1.000  C
  C40      1.0000 0.75201  0.81518  0.83005  Biso   1.000  C
  C41      1.0000 0.77822  0.61996  0.86644  Biso   1.000  C
  N27      1.0000 0.63024  0.92602  0.85061  Biso   1.000  N
  C42      1.0000 0.54149  0.81481  0.84904  Biso   1.000  C
  H39      1.0000 0.57242  0.83296  0.78737  Biso   1.000  H
  O13      1.0000 0.60702  0.51760  0.86987  Biso   1.000  O
  N28      1.0000 0.54966  0.69210  0.86960  Biso   1.000  N
  N29      1.0000 0.73725  0.91938  0.85469  Biso   1.000  N
  C43      1.0000 0.82610  0.80376  0.85927  Biso   1.000  C
  H40      1.0000 0.73891  0.82863  0.79267  Biso   1.000  H
  O14      1.0000 0.77294  0.51124  0.87593  Biso   1.000  O
  N30      1.0000 0.83454  0.68279  0.88009  Biso   1.000  N
  C44      1.0000 0.61080  0.97945  0.88509  Biso   1.000  C
  C45      1.0000 0.67680  0.98185  0.83528  Biso   1.000  C
  N31      1.0000 0.56062  0.91211  0.88616  Biso   1.000  N
  H41      1.0000 0.49759  0.82817  0.82277  Biso   1.000  H
  C46      1.0000 0.50703  0.63626  0.88909  Biso   1.000  C
  C47      1.0000 0.78971  0.97089  0.89165  Biso   1.000  C
  N32      1.0000 0.84088  0.90160  0.89565  Biso   1.000  N
  H42      1.0000 0.84822  0.81454  0.83570  Biso   1.000  H
  C48      1.0000 0.89594  0.62373  0.90309  Biso   1.000  C
  O15      1.0000 0.63260  0.07288  0.90961  Biso   1.000  O
  H43      1.0000 0.65995  0.98305  0.79759  Biso   1.000  H
  H44      1.0000 0.68333  0.06836  0.84718  Biso   1.000  H
  C49      1.0000 0.52302  0.95080  0.91339  Biso   1.000  C
  N33      1.0000 0.52306  0.66261  0.94253  Biso   1.000  N
  H45      1.0000 0.50742  0.54588  0.88436  Biso   1.000  H
  H46      1.0000 0.46348  0.66602  0.86876  Biso   1.000  H
  O16      1.0000 0.79027  0.06366  0.91693  Biso   1.000  O
  C50      1.0000 0.90610  0.93919  0.92739  Biso   1.000  C
  N34      1.0000 0.92937  0.64778  0.95698  Biso   1.000  N
  H47      1.0000 0.89012  0.53363  0.89786  Biso   1.000  H
  H48      1.0000 0.92251  0.65183  0.88516  Biso   1.000  H
  N35      1.0000 0.53551  0.88465  0.95927  Biso   1.000  N
  H49      1.0000 0.47760  0.94113  0.89069  Biso   1.000  H
  H50      1.0000 0.53070  0.03952  0.92159  Biso   1.000  H
  C51      1.0000 0.50419  0.76912  0.96240  Biso   1.000  C
  C52      1.0000 0.55628  0.57886  0.98006  Biso   1.000  C
  N36      1.0000 0.93461  0.87083  0.97392  Biso   1.000  N
  H51      1.0000 0.93241  0.92915  0.90736  Biso   1.000  H
  H52      1.0000 0.90609  0.02773  0.93578  Biso   1.000  H
  C53      1.0000 0.96863  0.75576  0.97891  Biso   1.000  C
  C54      1.0000 0.93139  0.56569  0.99386  Biso   1.000  C
  C55      1.0000 0.56848  0.93431  0.00611  Biso   1.000  C
  H53      1.0000 0.45701  0.77833  0.94779  Biso   1.000  H
  C56      1.0000 0.53130  0.74415  0.02106  Biso   1.000  C
  O17      1.0000 0.57269  0.47595  0.97273  Biso   1.000  O
  N37      1.0000 0.56531  0.62917  0.02605  Biso   1.000  N
  C57      1.0000 0.94360  0.92114  0.01991  Biso   1.000  C
  C58      1.0000 0.99569  0.73088  0.03757  Biso   1.000  C
  H54      1.0000 0.00336  0.76396  0.96656  Biso   1.000  H
  O18      1.0000 0.90869  0.46232  0.98563  Biso   1.000  O
  N38      1.0000 0.96441  0.61526  0.04070  Biso   1.000  N
  N39      1.0000 0.57052  0.85222  0.04303  Biso   1.000  N
  O19      1.0000 0.59119  0.03768  0.01435  Biso   1.000  O
  H55      1.0000 0.49652  0.73595  0.03342  Biso   1.000  H
  C59      1.0000 0.59378  0.56081  0.07259  Biso   1.000  C
  N40      1.0000 0.97686  0.83739  0.05744  Biso   1.000  N
  O20      1.0000 0.92719  0.02395  0.02724  Biso   1.000  O
  H56      1.0000 0.04289  0.72167  0.05222  Biso   1.000  H
  C60      1.0000 0.97686  0.54920  0.08658  Biso   1.000  C
  C61      1.0000 0.60400  0.87627  0.09692  Biso   1.000  C
  N41      1.0000 0.65900  0.59840  0.10432  Biso   1.000  N
  H57      1.0000 0.56751  0.57076  0.09261  Biso   1.000  H
  H58      1.0000 0.59379  0.47227  0.06420  Biso   1.000  H
  C62      1.0000 0.99291  0.86374  0.11092  Biso   1.000  C
  N42      1.0000 0.93930  0.58789  0.11382  Biso   1.000  N
  H59      1.0000 0.96920  0.46048  0.07842  Biso   1.000  H
  H60      1.0000 0.02230  0.55887  0.10932  Biso   1.000  H
  N43      1.0000 0.66534  0.81721  0.11988  Biso   1.000  N
  H61      1.0000 0.60980  0.96637  0.10211  Biso   1.000  H
  H62      1.0000 0.57736  0.84817  0.11481  Biso   1.000  H
  C63      1.0000 0.67377  0.69615  0.14071  Biso   1.000  C
  C64      1.0000 0.71017  0.52911  0.10832  Biso   1.000  C
  N44      1.0000 0.95022  0.80790  0.13037  Biso   1.000  N
  H63      1.0000 0.99250  0.95412  0.11561  Biso   1.000  H
  H64      1.0000 0.03635  0.83398  0.13121  Biso   1.000  H
  C65      1.0000 0.95839  0.68519  0.15093  Biso   1.000  C
  C66      1.0000 0.88908  0.52045  0.11488  Biso   1.000  C
  C67      1.0000 0.72166  0.87995  0.13353  Biso   1.000  C
  C68      1.0000 0.74787  0.68482  0.16992  Biso   1.000  C
  H65      1.0000 0.65167  0.68546  0.16431  Biso   1.000  H
  O21      1.0000 0.70961  0.43634  0.08304  Biso   1.000  O
  N45      1.0000 0.76263  0.58062  0.14528  Biso   1.000  N
  C69      1.0000 0.90508  0.87452  0.13964  Biso   1.000  C
  C70      1.0000 0.90737  0.67846  0.17480  Biso   1.000  C
  H66      1.0000 0.00228  0.67183  0.17721  Biso   1.000  H
  O22      1.0000 0.86728  0.42712  0.09036  Biso   1.000  O
  N46      1.0000 0.86968  0.57398  0.14936  Biso   1.000  N
  O23      1.0000 0.72696  0.98876  0.12408  Biso   1.000  O
  N47      1.0000 0.76959  0.80072  0.15894  Biso   1.000  N
  H67      1.0000 0.76097  0.67137  0.20730  Biso   1.000  H
  C71      1.0000 0.82307  0.51806  0.16470  Biso   1.000  C
  O24      1.0000 0.89286  0.98240  0.13010  Biso   1.000  O
  N48      1.0000 0.87533  0.79556  0.16081  Biso   1.000  N
  H68      1.0000 0.92746  0.66704  0.21260  Biso   1.000  H
  C72      1.0000 0.83525  0.84080  0.18544  Biso   1.000  C
  H69      1.0000 0.81659  0.43164  0.15280  Biso   1.000  H
  H70      1.0000 0.83999  0.51686  0.20242  Biso   1.000  H
  H71      1.0000 0.85189  0.81058  0.22111  Biso   1.000  H
  H72      1.0000 0.83668  0.93201  0.18640  Biso   1.000  H
  C73      1.0000 0.59376  0.43919  0.57260  Biso   1.000  C
  N49      1.0000 0.56526  0.37083  0.52603  Biso   1.000  N
  N50      1.0000 0.65900  0.40160  0.60430  Biso   1.000  N
  H73      1.0000 0.56746  0.42915  0.59259  Biso   1.000  H
  H74      1.0000 0.59374  0.52773  0.56417  Biso   1.000  H
  C74      1.0000 0.55634  0.42114  0.48007  Biso   1.000  C
  C75      1.0000 0.53125  0.25576  0.52104  Biso   1.000  C
  C76      1.0000 0.67373  0.30376  0.64068  Biso   1.000  C
  C77      1.0000 0.71013  0.47089  0.60830  Biso   1.000  C
  N51      1.0000 0.52312  0.33739  0.44254  Biso   1.000  N
  O25      1.0000 0.57275  0.52395  0.47275  Biso   1.000  O
  C78      1.0000 0.50425  0.23088  0.46241  Biso   1.000  C
  N52      1.0000 0.57052  0.14778  0.54301  Biso   1.000  N
  H75      1.0000 0.49647  0.26396  0.53339  Biso   1.000  H
  N53      1.0000 0.66529  0.18279  0.61986  Biso   1.000  N
  C79      1.0000 0.74783  0.31518  0.66990  Biso   1.000  C
  H76      1.0000 0.65163  0.31454  0.66429  Biso   1.000  H
  O26      1.0000 0.70956  0.56366  0.58302  Biso   1.000  O
  N54      1.0000 0.76261  0.41938  0.64530  Biso   1.000  N
  C80      1.0000 0.50707  0.36374  0.38907  Biso   1.000  C
  N55      1.0000 0.53557  0.11526  0.45929  Biso   1.000  N
  H77      1.0000 0.45705  0.22167  0.44777  Biso   1.000  H
  C81      1.0000 0.56846  0.06569  0.50612  Biso   1.000  C
  C82      1.0000 0.60396  0.12373  0.59690  Biso   1.000  C
  C83      1.0000 0.72163  0.11996  0.63355  Biso   1.000  C
  N56      1.0000 0.76955  0.19928  0.65891  Biso   1.000  N
  H78      1.0000 0.76092  0.32863  0.70728  Biso   1.000  H
  C84      1.0000 0.82303  0.48185  0.66467  Biso   1.000  C
  N57      1.0000 0.54972  0.30790  0.36962  Biso   1.000  N
  H79      1.0000 0.50748  0.45412  0.38438  Biso   1.000  H
  H80      1.0000 0.46355  0.33398  0.36878  Biso   1.000  H
  C85      1.0000 0.52308  0.04920  0.41340  Biso   1.000  C
  O27      1.0000 0.59115  0.96232  0.51432  Biso   1.000  O
  H81      1.0000 0.60976  0.03363  0.60209  Biso   1.000  H
  H82      1.0000 0.57732  0.15183  0.61479  Biso   1.000  H
  O28      1.0000 0.72691  0.01124  0.62405  Biso   1.000  O
  C86      1.0000 0.83525  0.15920  0.68542  Biso   1.000  C
  N58      1.0000 0.86964  0.42602  0.64934  Biso   1.000  N
  H83      1.0000 0.81655  0.56836  0.65277  Biso   1.000  H
  H84      1.0000 0.83995  0.48314  0.70239  Biso   1.000  H
  C87      1.0000 0.54155  0.18519  0.34906  Biso   1.000  C
  C88      1.0000 0.59486  0.37452  0.36035  Biso   1.000  C
  N59      1.0000 0.56064  0.08789  0.38617  Biso   1.000  N
  H85      1.0000 0.47764  0.05887  0.39067  Biso   1.000  H
  H86      1.0000 0.53076  0.96048  0.42160  Biso   1.000  H
  N60      1.0000 0.87528  0.20444  0.66078  Biso   1.000  N
  H87      1.0000 0.85185  0.18942  0.72108  Biso   1.000  H
  H88      1.0000 0.83664  0.06799  0.68638  Biso   1.000  H
  C89      1.0000 0.90733  0.32154  0.67478  Biso   1.000  C
  C90      1.0000 0.88905  0.47945  0.61490  Biso   1.000  C
  C91      1.0000 0.59257  0.17846  0.32519  Biso   1.000  C
  H89      1.0000 0.49766  0.17183  0.32278  Biso   1.000  H
  O29      1.0000 0.60708  0.48240  0.36989  Biso   1.000  O
  N61      1.0000 0.62461  0.29556  0.33918  Biso   1.000  N
  C92      1.0000 0.61086  0.02055  0.38510  Biso   1.000  C
  C93      1.0000 0.90503  0.12548  0.63962  Biso   1.000  C
  C94      1.0000 0.95835  0.31481  0.65091  Biso   1.000  C
  H90      1.0000 0.92742  0.33296  0.71258  Biso   1.000  H
  O30      1.0000 0.86724  0.57288  0.59034  Biso   1.000  O
  N62      1.0000 0.93925  0.41211  0.61379  Biso   1.000  N
  N63      1.0000 0.63030  0.07398  0.35063  Biso   1.000  N
  H91      1.0000 0.57248  0.16704  0.28739  Biso   1.000  H
  C95      1.0000 0.66469  0.34080  0.31454  Biso   1.000  C
  O31      1.0000 0.63266  0.92712  0.40963  Biso   1.000  O
  O32      1.0000 0.89281  0.01760  0.63008  Biso   1.000  O
  N64      1.0000 0.95018  0.19210  0.63035  Biso   1.000  N
  H92      1.0000 0.00224  0.32817  0.67718  Biso   1.000  H
  C96      1.0000 0.97688  0.45080  0.58660  Biso   1.000  C
  C97      1.0000 0.67687  0.01806  0.33529  Biso   1.000  C
  N65      1.0000 0.73039  0.30072  0.34105  Biso   1.000  N
  H93      1.0000 0.64809  0.31058  0.27888  Biso   1.000  H
  H94      1.0000 0.66326  0.43201  0.31359  Biso   1.000  H
  C98      1.0000 0.99287  0.13626  0.61090  Biso   1.000  C
  N66      1.0000 0.96437  0.38465  0.54068  Biso   1.000  N
  H95      1.0000 0.96915  0.53952  0.57840  Biso   1.000  H
  H96      1.0000 0.02225  0.44113  0.60929  Biso   1.000  H
  N67      1.0000 0.73731  0.08062  0.35471  Biso   1.000  N
  H97      1.0000 0.65997  0.01686  0.29761  Biso   1.000  H
  H98      1.0000 0.68339  0.93155  0.34719  Biso   1.000  H
  C99      1.0000 0.75207  0.18482  0.33007  Biso   1.000  C
  C100     1.0000 0.77828  0.37995  0.36645  Biso   1.000  C
  N68      1.0000 0.97682  0.16261  0.55742  Biso   1.000  N
  H99      1.0000 0.99246  0.04588  0.61559  Biso   1.000  H
  H100     1.0000 0.03631  0.16602  0.63119  Biso   1.000  H
  C101     1.0000 0.93146  0.43431  0.49388  Biso   1.000  C
  C102     1.0000 0.99565  0.26912  0.53755  Biso   1.000  C
  C103     1.0000 0.78977  0.02911  0.39166  Biso   1.000  C
  C104     1.0000 0.82617  0.19624  0.35928  Biso   1.000  C
  H101     1.0000 0.73897  0.17137  0.29269  Biso   1.000  H
  O33      1.0000 0.77298  0.48876  0.37591  Biso   1.000  O
  N69      1.0000 0.83460  0.31721  0.38011  Biso   1.000  N
  C105     1.0000 0.94356  0.07886  0.51989  Biso   1.000  C
  N70      1.0000 0.92942  0.35222  0.45696  Biso   1.000  N
  O34      1.0000 0.90875  0.53768  0.48564  Biso   1.000  O
  C106     1.0000 0.96864  0.24424  0.47893  Biso   1.000  C
  H102     1.0000 0.04285  0.27833  0.55220  Biso   1.000  H
  N71      1.0000 0.84094  0.09840  0.39567  Biso   1.000  N
  O35      1.0000 0.79033  0.93634  0.41695  Biso   1.000  O
  H103     1.0000 0.84827  0.18546  0.33567  Biso   1.000  H
  C107     1.0000 0.89600  0.37627  0.40311  Biso   1.000  C
  N72      1.0000 0.93468  0.12917  0.47393  Biso   1.000  N
  O36      1.0000 0.92715  0.97595  0.52722  Biso   1.000  O
  H104     1.0000 0.00343  0.23604  0.46657  Biso   1.000  H
  C108     1.0000 0.90616  0.06081  0.42740  Biso   1.000  C
  H105     1.0000 0.89018  0.46637  0.39788  Biso   1.000  H
  H106     1.0000 0.92258  0.34817  0.38518  Biso   1.000  H
  H107     1.0000 0.93248  0.07076  0.40738  Biso   1.000  H
  H108     1.0000 0.90615  0.97227  0.43579  Biso   1.000  H
  C109     1.0000 0.32613  0.30376  0.85927  Biso   1.000  C
  C110     1.0000 0.25199  0.31518  0.83005  Biso   1.000  C
  N73      1.0000 0.34086  0.40160  0.89565  Biso   1.000  N
  N74      1.0000 0.33456  0.18279  0.88009  Biso   1.000  N
  H109     1.0000 0.34820  0.31454  0.83570  Biso   1.000  H
  N75      1.0000 0.23722  0.41938  0.85469  Biso   1.000  N
  N76      1.0000 0.23031  0.19928  0.84104  Biso   1.000  N
  H110     1.0000 0.23889  0.32863  0.79267  Biso   1.000  H
  C111     1.0000 0.28969  0.47089  0.89165  Biso   1.000  C
  C112     1.0000 0.40612  0.43919  0.92739  Biso   1.000  C
  C113     1.0000 0.27820  0.11996  0.86644  Biso   1.000  C
  C114     1.0000 0.39592  0.12373  0.90309  Biso   1.000  C
  C115     1.0000 0.17678  0.48185  0.83528  Biso   1.000  C
  C116     1.0000 0.16460  0.15920  0.81453  Biso   1.000  C
  O37      1.0000 0.29025  0.56366  0.91693  Biso   1.000  O
  N77      1.0000 0.43459  0.37083  0.97392  Biso   1.000  N
  H111     1.0000 0.43239  0.42915  0.90736  Biso   1.000  H
  H112     1.0000 0.40611  0.52773  0.93578  Biso   1.000  H
  O38      1.0000 0.27292  0.01124  0.87593  Biso   1.000  O
  N78      1.0000 0.42935  0.14778  0.95698  Biso   1.000  N
  H113     1.0000 0.39010  0.03363  0.89786  Biso   1.000  H
  H114     1.0000 0.42249  0.15183  0.88516  Biso   1.000  H
  N79      1.0000 0.13022  0.42602  0.85061  Biso   1.000  N
  H115     1.0000 0.18331  0.56836  0.84718  Biso   1.000  H
  H116     1.0000 0.15993  0.48314  0.79759  Biso   1.000  H
  N80      1.0000 0.12459  0.20444  0.83920  Biso   1.000  N
  H117     1.0000 0.14801  0.18942  0.77887  Biso   1.000  H
  H118     1.0000 0.16321  0.06799  0.81357  Biso   1.000  H
  C117     1.0000 0.46860  0.25576  0.97891  Biso   1.000  C
  C118     1.0000 0.44358  0.42114  0.01991  Biso   1.000  C
  C119     1.0000 0.43142  0.06569  0.99386  Biso   1.000  C
  C120     1.0000 0.09253  0.32154  0.82517  Biso   1.000  C
  C121     1.0000 0.11082  0.47945  0.88509  Biso   1.000  C
  C122     1.0000 0.09478  0.12548  0.86033  Biso   1.000  C
  H119     1.0000 0.50338  0.26396  0.96656  Biso   1.000  H
  C123     1.0000 0.49567  0.23088  0.03757  Biso   1.000  C
  O39      1.0000 0.42717  0.52395  0.02724  Biso   1.000  O
  N81      1.0000 0.47684  0.33739  0.05744  Biso   1.000  N
  O40      1.0000 0.40866  0.96232  0.98563  Biso   1.000  O
  N82      1.0000 0.46439  0.11526  0.04070  Biso   1.000  N
  C124     1.0000 0.04151  0.31481  0.84904  Biso   1.000  C
  H120     1.0000 0.07239  0.33296  0.78737  Biso   1.000  H
  O41      1.0000 0.13262  0.57288  0.90961  Biso   1.000  O
  N83      1.0000 0.06060  0.41211  0.88616  Biso   1.000  N
  O42      1.0000 0.10700  0.01760  0.86987  Biso   1.000  O
  N84      1.0000 0.04968  0.19210  0.86960  Biso   1.000  N
  H121     1.0000 0.54291  0.22167  0.05222  Biso   1.000  H
  C125     1.0000 0.49289  0.36374  0.11092  Biso   1.000  C
  C126     1.0000 0.47688  0.04920  0.08658  Biso   1.000  C
  H122     1.0000 0.99762  0.32817  0.82277  Biso   1.000  H
  C127     1.0000 0.02299  0.45080  0.91339  Biso   1.000  C
  C128     1.0000 0.00701  0.13626  0.88909  Biso   1.000  C
  N85      1.0000 0.45020  0.30790  0.13037  Biso   1.000  N
  H123     1.0000 0.49248  0.45412  0.11561  Biso   1.000  H
  H124     1.0000 0.53637  0.33398  0.13121  Biso   1.000  H
  H125     1.0000 0.46917  0.96048  0.07842  Biso   1.000  H
  N86      1.0000 0.43928  0.08789  0.11382  Biso   1.000  N
  H126     1.0000 0.52227  0.05887  0.10932  Biso   1.000  H
  N87      1.0000 0.03549  0.38465  0.95927  Biso   1.000  N
  H127     1.0000 0.03068  0.53952  0.92159  Biso   1.000  H
  H128     1.0000 0.97762  0.44113  0.89069  Biso   1.000  H
  N88      1.0000 0.02304  0.16261  0.94253  Biso   1.000  N
  H129     1.0000 0.00740  0.04588  0.88436  Biso   1.000  H
  H130     1.0000 0.96351  0.16602  0.86876  Biso   1.000  H
  C129     1.0000 0.45837  0.18519  0.15093  Biso   1.000  C
  C130     1.0000 0.40505  0.37452  0.13964  Biso   1.000  C
  C131     1.0000 0.38906  0.02055  0.11488  Biso   1.000  C
  C132     1.0000 0.00417  0.26912  0.96240  Biso   1.000  C
  C133     1.0000 0.06846  0.43431  0.00611  Biso   1.000  C
  C134     1.0000 0.05626  0.07886  0.98006  Biso   1.000  C
  C135     1.0000 0.40735  0.17846  0.17480  Biso   1.000  C
  H131     1.0000 0.50226  0.17183  0.17721  Biso   1.000  H
  O43      1.0000 0.39288  0.48240  0.13010  Biso   1.000  O
  N89      1.0000 0.37530  0.29556  0.16081  Biso   1.000  N
  O44      1.0000 0.36726  0.92712  0.09036  Biso   1.000  O
  N90      1.0000 0.36966  0.07398  0.14936  Biso   1.000  N
  H132     1.0000 0.95703  0.27833  0.94779  Biso   1.000  H
  C136     1.0000 0.03127  0.24424  0.02106  Biso   1.000  C
  O45      1.0000 0.09121  0.53768  0.01435  Biso   1.000  O
  N91      1.0000 0.07055  0.35222  0.04303  Biso   1.000  N
  O46      1.0000 0.07266  0.97595  0.97273  Biso   1.000  O
  N92      1.0000 0.06529  0.12917  0.02605  Biso   1.000  N
  H133     1.0000 0.42748  0.16704  0.21260  Biso   1.000  H
  C137     1.0000 0.33528  0.34080  0.18544  Biso   1.000  C
  C138     1.0000 0.32305  0.01806  0.16470  Biso   1.000  C
  H134     1.0000 0.99649  0.23604  0.03342  Biso   1.000  H
  C139     1.0000 0.10398  0.37627  0.09692  Biso   1.000  C
  C140     1.0000 0.09376  0.06081  0.07259  Biso   1.000  C
  N93      1.0000 0.26957  0.30072  0.15894  Biso   1.000  N
  H135     1.0000 0.35187  0.31058  0.22111  Biso   1.000  H
  H136     1.0000 0.33666  0.43201  0.18640  Biso   1.000  H
  H137     1.0000 0.31657  0.93155  0.15280  Biso   1.000  H
  N94      1.0000 0.26261  0.08062  0.14528  Biso   1.000  N
  H138     1.0000 0.33997  0.01686  0.20242  Biso   1.000  H
  N95      1.0000 0.16532  0.31721  0.11988  Biso   1.000  N
  H139     1.0000 0.10978  0.46637  0.10211  Biso   1.000  H
  H140     1.0000 0.07739  0.34817  0.11481  Biso   1.000  H
  H141     1.0000 0.09376  0.97227  0.06420  Biso   1.000  H
  N96      1.0000 0.15902  0.09840  0.10432  Biso   1.000  N
  H142     1.0000 0.06748  0.07076  0.09261  Biso   1.000  H
  C141     1.0000 0.22168  0.37995  0.13353  Biso   1.000  C
  C142     1.0000 0.24789  0.18482  0.16992  Biso   1.000  C
  C143     1.0000 0.21015  0.02911  0.10832  Biso   1.000  C
  C144     1.0000 0.17375  0.19624  0.14071  Biso   1.000  C
  O47      1.0000 0.22698  0.48876  0.12408  Biso   1.000  O
  H143     1.0000 0.26094  0.17137  0.20730  Biso   1.000  H
  O48      1.0000 0.20963  0.93634  0.08304  Biso   1.000  O
  H144     1.0000 0.15165  0.18546  0.16431  Biso   1.000  H
  Ne1      1.0000 0.24994  0.74999  0.49999  Biso   1.000  Ne
  He1      1.0000 0.25836  0.44884  0.52156  Biso   1.000  He
  He2      1.0000 0.23567  0.04710  0.47583  Biso   1.000  He
  Ar1      1.0000 0.24994  0.75000  0.49999  Biso   1.000  Ar
  Ne2      1.0000 0.74996  0.24999  0.49999  Biso   1.000  Ne
  He3      1.0000 0.75839  0.94885  0.52158  Biso   1.000  He
  He4      1.0000 0.73571  0.54711  0.47584  Biso   1.000  He
  Ar2      1.0000 0.74996  0.25000  0.49999  Biso   1.000  Ar
  Ne3      1.0000 0.74995  0.74999  0.99999  Biso   1.000  Ne
  He5      1.0000 0.75715  0.02375  0.01970  Biso   1.000  He
  He6      1.0000 0.73673  0.48136  0.97770  Biso   1.000  He
  Ar3      1.0000 0.74995  0.74999  0.99999  Biso   1.000  Ar
  Ne4      1.0000 0.24994  0.24999  0.99999  Biso   1.000  Ne
  He7      1.0000 0.25715  0.52375  0.01970  Biso   1.000  He
  He8      1.0000 0.23667  0.98137  0.97767  Biso   1.000  He
  Ar4      1.0000 0.24994  0.24999  0.99999  Biso   1.000  Ar
