data_image0
_cell_length_a       15.216
_cell_length_b       15.514
_cell_length_c       17.791
_cell_angle_alpha    99.25
_cell_angle_beta     112.62
_cell_angle_gamma    103.04

_symmetry_space_group_name_H-M    "P 1"
_symmetry_int_tables_number       1

loop_
  _symmetry_equiv_pos_as_xyz
  'x, y, z'

loop_
  _atom_site_label
  _atom_site_occupancy
  _atom_site_fract_x
  _atom_site_fract_y
  _atom_site_fract_z
  _atom_site_thermal_displace_type
  _atom_site_B_iso_or_equiv
  _atom_site_type_symbol
  C1       1.0000 0.12183  0.56283  0.33329  Biso   1.000  C
  C2       1.0000 0.05182  0.49769  0.24512  Biso   1.000  C
  C3       1.0000 0.11062  0.65732  0.33310  Biso   1.000  C
  H1       1.0000 0.19282  0.56579  0.34672  Biso   1.000  H
  O1       1.0000 0.09389  0.52679  0.39175  Biso   1.000  O
  O2       1.0000 0.06722  0.40956  0.24290  Biso   1.000  O
  C4       1.0000 0.07537  0.53560  0.17830  Biso   1.000  C
  H2       1.0000 0.98052  0.49121  0.23340  Biso   1.000  H
  C5       1.0000 0.13425  0.69032  0.26514  Biso   1.000  C
  H3       1.0000 0.03983  0.65362  0.32094  Biso   1.000  H
  O3       1.0000 0.17600  0.72051  0.41430  Biso   1.000  O
  H4       1.0000 0.12909  0.56290  0.44059  Biso   1.000  H
  C6       1.0000 0.98164  0.33171  0.21402  Biso   1.000  C
  H5       1.0000 0.14434  0.53572  0.18691  Biso   1.000  H
  O4       1.0000 0.07053  0.62768  0.18444  Biso   1.000  O
  C7       1.0000 0.00093  0.48053  0.08842  Biso   1.000  C
  O5       1.0000 0.23561  0.69913  0.28553  Biso   1.000  O
  H6       1.0000 0.12433  0.75183  0.26482  Biso   1.000  H
  H7       1.0000 0.19763  0.77261  0.40841  Biso   1.000  H
  C8       1.0000 0.99584  0.28170  0.28243  Biso   1.000  C
  O6       1.0000 0.96719  0.27269  0.13814  Biso   1.000  O
  H8       1.0000 0.92132  0.35239  0.20332  Biso   1.000  H
  H9       1.0000 0.01819  0.50913  0.04801  Biso   1.000  H
  H10      1.0000 0.00487  0.41722  0.07829  Biso   1.000  H
  O7       1.0000 0.90030  0.47697  0.07430  Biso   1.000  O
  C9       1.0000 0.30033  0.78651  0.29472  Biso   1.000  C
  C10      1.0000 0.08585  0.24761  0.29763  Biso   1.000  C
  O8       1.0000 0.00591  0.33932  0.35850  Biso   1.000  O
  H11      1.0000 0.93482  0.22691  0.26159  Biso   1.000  H
  C11      1.0000 0.04859  0.23712  0.14619  Biso   1.000  C
  H12      1.0000 0.87517  0.49846  0.03357  Biso   1.000  H
  C12      1.0000 0.39189  0.81389  0.38098  Biso   1.000  C
  H13      1.0000 0.26432  0.83330  0.29301  Biso   1.000  H
  C13      1.0000 0.33092  0.77829  0.22213  Biso   1.000  C
  C14      1.0000 0.06751  0.18510  0.21428  Biso   1.000  C
  H14      1.0000 0.14860  0.30072  0.31923  Biso   1.000  H
  O9       1.0000 0.09301  0.19523  0.35831  Biso   1.000  O
  H15      1.0000 0.06429  0.35161  0.39669  Biso   1.000  H
  H16      1.0000 0.11060  0.28931  0.16253  Biso   1.000  H
  C15      1.0000 0.01981  0.17552  0.05948  Biso   1.000  C
  C16      1.0000 0.46933  0.89950  0.38694  Biso   1.000  C
  H17      1.0000 0.42172  0.76251  0.38548  Biso   1.000  H
  O10      1.0000 0.36395  0.83172  0.44857  Biso   1.000  O
  H18      1.0000 0.35736  0.72511  0.21928  Biso   1.000  H
  O11      1.0000 0.40831  0.86123  0.23575  Biso   1.000  O
  C17      1.0000 0.24411  0.76388  0.13700  Biso   1.000  C
  O12      1.0000 0.15500  0.15864  0.22580  Biso   1.000  O
  H19      1.0000 0.00843  0.12909  0.19603  Biso   1.000  H
  H20      1.0000 0.15111  0.19081  0.37959  Biso   1.000  H
  H21      1.0000 0.00261  0.20982  0.01640  Biso   1.000  H
  H22      1.0000 0.07682  0.15462  0.05973  Biso   1.000  H
  O13      1.0000 0.93500  0.09772  0.04003  Biso   1.000  O
  C18      1.0000 0.49531  0.88127  0.31270  Biso   1.000  C
  H23      1.0000 0.44043  0.95131  0.38472  Biso   1.000  H
  O14      1.0000 0.55768  0.92420  0.46510  Biso   1.000  O
  H24      1.0000 0.32081  0.78443  0.44464  Biso   1.000  H
  H25      1.0000 0.26921  0.76440  0.09317  Biso   1.000  H
  H26      1.0000 0.19401  0.70293  0.12123  Biso   1.000  H
  O15      1.0000 0.19645  0.83439  0.13890  Biso   1.000  O
  C19      1.0000 0.14448  0.06369  0.20699  Biso   1.000  C
  H27      1.0000 0.91473  0.06527  0.99037  Biso   1.000  H
  H28      1.0000 0.54673  0.93788  0.31771  Biso   1.000  H
  O16      1.0000 0.53680  0.80869  0.31714  Biso   1.000  O
  H29      1.0000 0.56755  0.97724  0.49354  Biso   1.000  H
  H30      1.0000 0.21288  0.87107  0.11312  Biso   1.000  H
  H31      1.0000 0.07429  0.02728  0.19318  Biso   1.000  H
  C20      1.0000 0.21683  0.04624  0.28490  Biso   1.000  C
  O17      1.0000 0.16549  0.03674  0.13745  Biso   1.000  O
  C21      1.0000 0.62811  0.82159  0.30871  Biso   1.000  C
  O18      1.0000 0.19394  0.06730  0.35400  Biso   1.000  O
  C22      1.0000 0.32305  0.10362  0.30643  Biso   1.000  C
  H32      1.0000 0.21184  0.97963  0.27191  Biso   1.000  H
  C23      1.0000 0.26434  0.08561  0.14973  Biso   1.000  C
  C24      1.0000 0.70550  0.81558  0.39238  Biso   1.000  C
  H33      1.0000 0.64998  0.88308  0.29928  Biso   1.000  H
  C25      1.0000 0.61260  0.74512  0.23530  Biso   1.000  C
  H34      1.0000 0.24391  0.10720  0.39473  Biso   1.000  H
  H35      1.0000 0.32900  0.17040  0.31910  Biso   1.000  H
  O19      1.0000 0.39360  0.08639  0.37756  Biso   1.000  O
  C26      1.0000 0.34519  0.07721  0.23093  Biso   1.000  C
  H36      1.0000 0.27037  0.15208  0.15499  Biso   1.000  H
  C27      1.0000 0.27474  0.04574  0.07151  Biso   1.000  C
  C28      1.0000 0.80190  0.81653  0.38339  Biso   1.000  C
  H37      1.0000 0.67840  0.75554  0.40201  Biso   1.000  H
  O20      1.0000 0.72417  0.88849  0.46339  Biso   1.000  O
  O21      1.0000 0.70884  0.75071  0.23321  Biso   1.000  O
  H38      1.0000 0.58408  0.68408  0.24271  Biso   1.000  H
  C29      1.0000 0.54512  0.75209  0.14891  Biso   1.000  C
  H39      1.0000 0.38223  0.10091  0.41968  Biso   1.000  H
  H40      1.0000 0.34823  0.01281  0.22270  Biso   1.000  H
  O22      1.0000 0.44052  0.14011  0.24880  Biso   1.000  O
  H41      1.0000 0.21962  0.04921  0.02052  Biso   1.000  H
  H42      1.0000 0.33909  0.08181  0.07442  Biso   1.000  H
  O23      1.0000 0.27146  0.95273  0.06562  Biso   1.000  O
  C30      1.0000 0.78078  0.74219  0.30783  Biso   1.000  C
  H43      1.0000 0.83001  0.87720  0.37541  Biso   1.000  H
  O24      1.0000 0.87481  0.80718  0.46028  Biso   1.000  O
  H44      1.0000 0.75740  0.93852  0.46142  Biso   1.000  H
  H45      1.0000 0.47548  0.74353  0.14150  Biso   1.000  H
  H46      1.0000 0.54466  0.70759  0.10210  Biso   1.000  H
  O25      1.0000 0.60582  0.86468  0.15702  Biso   1.000  O
  H47      1.0000 0.48389  0.76372  0.14929  Biso   1.000  H
  H48      1.0000 0.58221  0.80513  0.13732  Biso   1.000  H
  O26      1.0000 0.52207  0.66456  0.09228  Biso   1.000  O
  C31      1.0000 0.51390  0.10309  0.24050  Biso   1.000  C
  H49      1.0000 0.27122  0.93978  0.10970  Biso   1.000  H
  O27      1.0000 0.74872  0.65671  0.32265  Biso   1.000  O
  H50      1.0000 0.84440  0.74744  0.30194  Biso   1.000  H
  H51      1.0000 0.86100  0.75169  0.46060  Biso   1.000  H
  H52      1.0000 0.56347  0.88821  0.12972  Biso   1.000  H
  H53      1.0000 0.57070  0.66377  0.08101  Biso   1.000  H
  H54      1.0000 0.48759  0.03447  0.22498  Biso   1.000  H
  C32      1.0000 0.60665  0.13780  0.32493  Biso   1.000  C
  O28      1.0000 0.53920  0.13041  0.17697  Biso   1.000  O
  C33      1.0000 0.80350  0.59322  0.31720  Biso   1.000  C
  H55      1.0000 0.65803  0.11089  0.31878  Biso   1.000  H
  O29      1.0000 0.58396  0.10826  0.38941  Biso   1.000  O
  C34      1.0000 0.65001  0.24251  0.34849  Biso   1.000  C
  C35      1.0000 0.57923  0.22901  0.19363  Biso   1.000  C
  C36      1.0000 0.81860  0.55342  0.39232  Biso   1.000  C
  C37      1.0000 0.74560  0.51828  0.23321  Biso   1.000  C
  H56      1.0000 0.87028  0.62731  0.32170  Biso   1.000  H
  H57      1.0000 0.63761  0.11484  0.43153  Biso   1.000  H
  H58      1.0000 0.59972  0.27120  0.35482  Biso   1.000  H
  O30      1.0000 0.73926  0.27264  0.42735  Biso   1.000  O
  C38      1.0000 0.67339  0.26764  0.27831  Biso   1.000  C
  H59      1.0000 0.52772  0.25790  0.19641  Biso   1.000  H
  C39      1.0000 0.59977  0.24459  0.11939  Biso   1.000  C
  C40      1.0000 0.86773  0.47892  0.38478  Biso   1.000  C
  H60      1.0000 0.75219  0.52601  0.39181  Biso   1.000  H
  O31      1.0000 0.88113  0.62600  0.46839  Biso   1.000  O
  O32      1.0000 0.79207  0.44725  0.23245  Biso   1.000  O
  H61      1.0000 0.67509  0.49093  0.22428  Biso   1.000  H
  C41      1.0000 0.74482  0.55463  0.15809  Biso   1.000  C
  H62      1.0000 0.78083  0.31842  0.42709  Biso   1.000  H
  H63      1.0000 0.72700  0.24242  0.27451  Biso   1.000  H
  O33      1.0000 0.70775  0.36603  0.29738  Biso   1.000  O
  H64      1.0000 0.53858  0.21178  0.06587  Biso   1.000  H
  H65      1.0000 0.61731  0.31110  0.12319  Biso   1.000  H
  O34      1.0000 0.67960  0.21227  0.11908  Biso   1.000  O
  C42      1.0000 0.80241  0.40629  0.29991  Biso   1.000  C
  H66      1.0000 0.93525  0.50743  0.38763  Biso   1.000  H
  O35      1.0000 0.87954  0.43708  0.45218  Biso   1.000  O
  H67      1.0000 0.87837  0.60845  0.50994  Biso   1.000  H
  H68      1.0000 0.71279  0.50260  0.10603  Biso   1.000  H
  H69      1.0000 0.70493  0.59752  0.14973  Biso   1.000  H
  O36      1.0000 0.84551  0.60148  0.17228  Biso   1.000  O
  H70      1.0000 0.66093  0.17518  0.07183  Biso   1.000  H
  H71      1.0000 0.83493  0.35768  0.29510  Biso   1.000  H
  H72      1.0000 0.93993  0.44020  0.47789  Biso   1.000  H
  H73      1.0000 0.85551  0.57877  0.13130  Biso   1.000  H
  C43      1.0000 0.22450  0.58829  0.62572  Biso   1.000  C
  C44      1.0000 0.13222  0.51613  0.61673  Biso   1.000  C
  H74      1.0000 0.27451  0.55820  0.62110  Biso   1.000  H
  O37      1.0000 0.19402  0.63134  0.55903  Biso   1.000  O
  C45      1.0000 0.26981  0.65732  0.71294  Biso   1.000  C
  C46      1.0000 0.16190  0.47101  0.68799  Biso   1.000  C
  H75      1.0000 0.08506  0.54884  0.62344  Biso   1.000  H
  O38      1.0000 0.08112  0.45091  0.53604  Biso   1.000  O
  H76      1.0000 0.23845  0.68163  0.57144  Biso   1.000  H
  C47      1.0000 0.29164  0.60919  0.78319  Biso   1.000  C
  H77      1.0000 0.22212  0.69155  0.71522  Biso   1.000  H
  O39      1.0000 0.36112  0.72087  0.72346  Biso   1.000  O
  O40      1.0000 0.23152  0.42526  0.68235  Biso   1.000  O
  H78      1.0000 0.10055  0.42432  0.68184  Biso   1.000  H
  O41      1.0000 0.20415  0.53644  0.76805  Biso   1.000  O
  H79      1.0000 0.09578  0.40121  0.53268  Biso   1.000  H
  H80      1.0000 0.34619  0.58251  0.78559  Biso   1.000  H
  C48      1.0000 0.32415  0.67450  0.86971  Biso   1.000  C
  C49      1.0000 0.37179  0.81652  0.74239  Biso   1.000  C
  C50      1.0000 0.20696  0.32960  0.67684  Biso   1.000  C
  H81      1.0000 0.33371  0.63953  0.91252  Biso   1.000  H
  H82      1.0000 0.38921  0.72155  0.88611  Biso   1.000  H
  O42      1.0000 0.25171  0.71906  0.86895  Biso   1.000  O
  H83      1.0000 0.30790  0.82419  0.74151  Biso   1.000  H
  C51      1.0000 0.39073  0.85432  0.67500  Biso   1.000  C
  O43      1.0000 0.45081  0.86412  0.82303  Biso   1.000  O
  C52      1.0000 0.20883  0.27935  0.59621  Biso   1.000  C
  C53      1.0000 0.28504  0.31378  0.75449  Biso   1.000  C
  H84      1.0000 0.13863  0.30642  0.67412  Biso   1.000  H
  H85      1.0000 0.27704  0.77599  0.87832  Biso   1.000  H
  H86      1.0000 0.39505  0.92071  0.68704  Biso   1.000  H
  O44      1.0000 0.31064  0.80696  0.59361  Biso   1.000  O
  C54      1.0000 0.48919  0.84722  0.67690  Biso   1.000  C
  C55      1.0000 0.54868  0.86400  0.83189  Biso   1.000  C
  C56      1.0000 0.19336  0.17912  0.59292  Biso   1.000  C
  H87      1.0000 0.27459  0.30731  0.59589  Biso   1.000  H
  O45      1.0000 0.12902  0.28854  0.52495  Biso   1.000  O
  O46      1.0000 0.27048  0.21706  0.74499  Biso   1.000  O
  H88      1.0000 0.35416  0.34570  0.76254  Biso   1.000  H
  C57      1.0000 0.27343  0.34814  0.83531  Biso   1.000  C
  H89      1.0000 0.28010  0.84313  0.57429  Biso   1.000  H
  H90      1.0000 0.48600  0.78112  0.66518  Biso   1.000  H
  O47      1.0000 0.51002  0.88554  0.61565  Biso   1.000  O
  C58      1.0000 0.57305  0.89980  0.76444  Biso   1.000  C
  H91      1.0000 0.55205  0.79984  0.82689  Biso   1.000  H
  C59      1.0000 0.61885  0.92284  0.92114  Biso   1.000  C
  C60      1.0000 0.27437  0.17032  0.67234  Biso   1.000  C
  H92      1.0000 0.12635  0.15193  0.59140  Biso   1.000  H
  O48      1.0000 0.19514  0.13092  0.51894  Biso   1.000  O
  H93      1.0000 0.14646  0.34110  0.51843  Biso   1.000  H
  H94      1.0000 0.28014  0.41440  0.84469  Biso   1.000  H
  H95      1.0000 0.20540  0.31475  0.82740  Biso   1.000  H
  O49      1.0000 0.34546  0.33516  0.90714  Biso   1.000  O
  H96      1.0000 0.45722  0.86979  0.57030  Biso   1.000  H
  H97      1.0000 0.58066  0.96703  0.77444  Biso   1.000  H
  O50      1.0000 0.66319  0.88538  0.76824  Biso   1.000  O
  H98      1.0000 0.60400  0.89279  0.96180  Biso   1.000  H
  H99      1.0000 0.68896  0.92824  0.93165  Biso   1.000  H
  O51      1.0000 0.60872  0.01250  0.93444  Biso   1.000  O
  O52      1.0000 0.36994  0.20889  0.67323  Biso   1.000  O
  H100     1.0000 0.26322  0.10381  0.67032  Biso   1.000  H
  H101     1.0000 0.18711  0.07540  0.51824  Biso   1.000  H
  H102     1.0000 0.40282  0.35721  0.91031  Biso   1.000  H
  C61      1.0000 0.74891  0.96422  0.79402  Biso   1.000  C
  H103     1.0000 0.58259  0.01871  0.96801  Biso   1.000  H
  C62      1.0000 0.43194  0.15134  0.67659  Biso   1.000  C
  C63      1.0000 0.78164  0.96195  0.72314  Biso   1.000  C
  O53      1.0000 0.82811  0.96231  0.86793  Biso   1.000  O
  H104     1.0000 0.73110  0.02158  0.80529  Biso   1.000  H
  C64      1.0000 0.45861  0.15109  0.60229  Biso   1.000  C
  H105     1.0000 0.39422  0.08723  0.67152  Biso   1.000  H
  C65      1.0000 0.52632  0.18984  0.76241  Biso   1.000  C
  C66      1.0000 0.80723  0.87331  0.70553  Biso   1.000  C
  O54      1.0000 0.70702  0.97072  0.64960  Biso   1.000  O
  H106     1.0000 0.84380  0.01523  0.74290  Biso   1.000  H
  C67      1.0000 0.86224  0.88340  0.85983  Biso   1.000  C
  O55      1.0000 0.37032  0.10481  0.52521  Biso   1.000  O
  C68      1.0000 0.53532  0.10209  0.61103  Biso   1.000  C
  H107     1.0000 0.48693  0.21593  0.60229  Biso   1.000  H
  O56      1.0000 0.60092  0.14690  0.76349  Biso   1.000  O
  H108     1.0000 0.55524  0.25760  0.77261  Biso   1.000  H
  C69      1.0000 0.50225  0.17275  0.83512  Biso   1.000  C
  C70      1.0000 0.89101  0.87222  0.78661  Biso   1.000  C
  H109     1.0000 0.74684  0.81922  0.68881  Biso   1.000  H
  O57      1.0000 0.83881  0.86711  0.64010  Biso   1.000  O
  H110     1.0000 0.65032  0.94934  0.64802  Biso   1.000  H
  H111     1.0000 0.80666  0.82712  0.84861  Biso   1.000  H
  C71      1.0000 0.94849  0.89701  0.94470  Biso   1.000  C
  H112     1.0000 0.31610  0.11292  0.52312  Biso   1.000  H
  C72      1.0000 0.62815  0.14990  0.69609  Biso   1.000  C
  H113     1.0000 0.50554  0.03793  0.61154  Biso   1.000  H
  O58      1.0000 0.56266  0.09650  0.54256  Biso   1.000  O
  H114     1.0000 0.56456  0.19722  0.88883  Biso   1.000  H
  H115     1.0000 0.45516  0.20572  0.83981  Biso   1.000  H
  O59      1.0000 0.45792  0.07571  0.82214  Biso   1.000  O
  O60      1.0000 0.90633  0.78443  0.77159  Biso   1.000  O
  H116     1.0000 0.95397  0.92252  0.80105  Biso   1.000  H
  H117     1.0000 0.88894  0.91304  0.65340  Biso   1.000  H
  H118     1.0000 0.96822  0.84031  0.94451  Biso   1.000  H
  O61      1.0000 0.92587  0.91561  0.00734  Biso   1.000  O
  H119     1.0000 0.00692  0.94792  0.95300  Biso   1.000  H
  O62      1.0000 0.66845  0.24155  0.69616  Biso   1.000  O
  H120     1.0000 0.67913  0.11745  0.70154  Biso   1.000  H
  H121     1.0000 0.60621  0.14589  0.55130  Biso   1.000  H
  H122     1.0000 0.50324  0.05313  0.84532  Biso   1.000  H
  C73      1.0000 0.00540  0.78234  0.78939  Biso   1.000  C
  H123     1.0000 0.97490  0.92104  0.05295  Biso   1.000  H
  C74      1.0000 0.77314  0.27373  0.71681  Biso   1.000  C
  C75      1.0000 0.99979  0.72460  0.70870  Biso   1.000  C
  O63      1.0000 0.04159  0.74346  0.85716  Biso   1.000  O
  H124     1.0000 0.05094  0.84619  0.80421  Biso   1.000  H
  C76      1.0000 0.78544  0.30789  0.64542  Biso   1.000  C
  H125     1.0000 0.80132  0.22161  0.72371  Biso   1.000  H
  C77      1.0000 0.82748  0.35040  0.80105  Biso   1.000  C
  C78      1.0000 0.93161  0.62662  0.68729  Biso   1.000  C
  O64      1.0000 0.96883  0.76544  0.64175  Biso   1.000  O
  H126     1.0000 0.06870  0.72182  0.72042  Biso   1.000  H
  C79      1.0000 0.98263  0.65089  0.84342  Biso   1.000  C
  C80      1.0000 0.89703  0.35053  0.67139  Biso   1.000  C
  H127     1.0000 0.75104  0.35542  0.63421  Biso   1.000  H
  O65      1.0000 0.74043  0.23198  0.57233  Biso   1.000  O
  H128     1.0000 0.79451  0.39964  0.79579  Biso   1.000  H
  O66      1.0000 0.93066  0.38968  0.81910  Biso   1.000  O
  C81      1.0000 0.82441  0.31511  0.87439  Biso   1.000  C
  C82      1.0000 0.97243  0.58839  0.76209  Biso   1.000  C
  H129     1.0000 0.86231  0.62780  0.67640  Biso   1.000  H
  O67      1.0000 0.92863  0.57186  0.61369  Biso   1.000  O
  H130     1.0000 0.98181  0.74168  0.60299  Biso   1.000  H
  H131     1.0000 0.91455  0.64989  0.83810  Biso   1.000  H
  C83      1.0000 0.03746  0.62265  0.92133  Biso   1.000  C
  C84      1.0000 0.94592  0.42644  0.75532  Biso   1.000  C
  H132     1.0000 0.92973  0.30145  0.67963  Biso   1.000  H
  O68      1.0000 0.91310  0.38714  0.60862  Biso   1.000  O
  H133     1.0000 0.74686  0.24953  0.53192  Biso   1.000  H
  H134     1.0000 0.86522  0.36465  0.92810  Biso   1.000  H
  H135     1.0000 0.75457  0.29483  0.86743  Biso   1.000  H
  O69      1.0000 0.86402  0.23865  0.87693  Biso   1.000  O
  O70      1.0000 0.90405  0.49876  0.74315  Biso   1.000  O
  H136     1.0000 0.03958  0.58300  0.77039  Biso   1.000  H
  H137     1.0000 0.90809  0.51590  0.61109  Biso   1.000  H
  H138     1.0000 0.99754  0.56095  0.91791  Biso   1.000  H
  H139     1.0000 0.04594  0.66672  0.97244  Biso   1.000  H
  O71      1.0000 0.13295  0.62084  0.92766  Biso   1.000  O
  H140     1.0000 0.01959  0.45079  0.77280  Biso   1.000  H
  H141     1.0000 0.92071  0.34722  0.57581  Biso   1.000  H
  H142     1.0000 0.83564  0.20122  0.89625  Biso   1.000  H
  H143     1.0000 0.15253  0.58529  0.95680  Biso   1.000  H
