data_image0
_cell_length_a       15.224
_cell_length_b       15.486
_cell_length_c       18.032
_cell_angle_alpha    99.62
_cell_angle_beta     113.28
_cell_angle_gamma    102.88

_symmetry_space_group_name_H-M    "P 1"
_symmetry_int_tables_number       1

loop_
  _symmetry_equiv_pos_as_xyz
  'x, y, z'

loop_
  _atom_site_label
  _atom_site_occupancy
  _atom_site_fract_x
  _atom_site_fract_y
  _atom_site_fract_z
  _atom_site_thermal_displace_type
  _atom_site_B_iso_or_equiv
  _atom_site_type_symbol
  C1       1.0000 0.78779  0.30897  0.64572  Biso   1.000  C
  C2       1.0000 0.77479  0.27453  0.71670  Biso   1.000  C
  C3       1.0000 0.89939  0.35105  0.67374  Biso   1.000  C
  H1       1.0000 0.75278  0.35603  0.63331  Biso   1.000  H
  O1       1.0000 0.74432  0.23056  0.57272  Biso   1.000  O
  O2       1.0000 0.66926  0.24062  0.69321  Biso   1.000  O
  H2       1.0000 0.80523  0.22393  0.72583  Biso   1.000  H
  C4       1.0000 0.82652  0.35417  0.79663  Biso   1.000  C
  C5       1.0000 0.94866  0.42749  0.75613  Biso   1.000  C
  H3       1.0000 0.93176  0.30173  0.68231  Biso   1.000  H
  O3       1.0000 0.91629  0.38753  0.61120  Biso   1.000  O
  H4       1.0000 0.75424  0.24694  0.53379  Biso   1.000  H
  C6       1.0000 0.62950  0.14743  0.69283  Biso   1.000  C
  H5       1.0000 0.79245  0.40248  0.78844  Biso   1.000  H
  O4       1.0000 0.93072  0.39396  0.81880  Biso   1.000  O
  C7       1.0000 0.82395  0.32237  0.87095  Biso   1.000  C
  O5       1.0000 0.90819  0.50198  0.74290  Biso   1.000  O
  H6       1.0000 0.02303  0.45055  0.77502  Biso   1.000  H
  H7       1.0000 0.90523  0.43854  0.61353  Biso   1.000  H
  C8       1.0000 0.53678  0.09907  0.60912  Biso   1.000  C
  H8       1.0000 0.68107  0.11566  0.69799  Biso   1.000  H
  O6       1.0000 0.60439  0.14445  0.75934  Biso   1.000  O
  H9       1.0000 0.86543  0.37418  0.92310  Biso   1.000  H
  H10      1.0000 0.75370  0.30428  0.86352  Biso   1.000  H
  O7       1.0000 0.86128  0.24586  0.87901  Biso   1.000  O
  C9       1.0000 0.97904  0.59105  0.76230  Biso   1.000  C
  C10      1.0000 0.45959  0.14874  0.60062  Biso   1.000  C
  H11      1.0000 0.50717  0.03416  0.60830  Biso   1.000  H
  O8       1.0000 0.56324  0.09622  0.54072  Biso   1.000  O
  C11      1.0000 0.53029  0.18867  0.75965  Biso   1.000  C
  H12      1.0000 0.82110  0.20424  0.88531  Biso   1.000  H
  C12      1.0000 0.93514  0.62824  0.68741  Biso   1.000  C
  C13      1.0000 0.99142  0.65474  0.84292  Biso   1.000  C
  H13      1.0000 0.04562  0.58456  0.76973  Biso   1.000  H
  O9       1.0000 0.36917  0.10108  0.52384  Biso   1.000  O
  H14      1.0000 0.48777  0.21326  0.59980  Biso   1.000  H
  C14      1.0000 0.43615  0.15173  0.67481  Biso   1.000  C
  H15      1.0000 0.61845  0.13753  0.55672  Biso   1.000  H
  H16      1.0000 0.56032  0.25667  0.77080  Biso   1.000  H
  C15      1.0000 0.50794  0.17176  0.83165  Biso   1.000  C
  H17      1.0000 0.86624  0.63007  0.67740  Biso   1.000  H
  O10      1.0000 0.93005  0.57177  0.61422  Biso   1.000  O
  C16      1.0000 0.00414  0.72484  0.70845  Biso   1.000  C
  H18      1.0000 0.92330  0.65224  0.83851  Biso   1.000  H
  O11      1.0000 0.04707  0.74807  0.85583  Biso   1.000  O
  C17      1.0000 0.04956  0.62716  0.92014  Biso   1.000  C
  H19      1.0000 0.32859  0.13134  0.51723  Biso   1.000  H
  H20      1.0000 0.39693  0.08818  0.66965  Biso   1.000  H
  O12      1.0000 0.37541  0.21118  0.67173  Biso   1.000  O
  H21      1.0000 0.57140  0.19534  0.88480  Biso   1.000  H
  H22      1.0000 0.46220  0.20596  0.83763  Biso   1.000  H
  O13      1.0000 0.46167  0.07508  0.81754  Biso   1.000  O
  H23      1.0000 0.87389  0.56195  0.57309  Biso   1.000  H
  O14      1.0000 0.97333  0.76664  0.64175  Biso   1.000  O
  C18      1.0000 0.01207  0.78556  0.78844  Biso   1.000  C
  H24      1.0000 0.07281  0.72104  0.72004  Biso   1.000  H
  H25      1.0000 0.05837  0.67095  0.97122  Biso   1.000  H
  H26      1.0000 0.01092  0.56465  0.91642  Biso   1.000  H
  O15      1.0000 0.14465  0.62748  0.92625  Biso   1.000  O
  C19      1.0000 0.28340  0.17764  0.67652  Biso   1.000  C
  H27      1.0000 0.50377  0.05425  0.84922  Biso   1.000  H
  H28      1.0000 0.94584  0.77711  0.59451  Biso   1.000  H
  O16      1.0000 0.91271  0.78993  0.77024  Biso   1.000  O
  H29      1.0000 0.05906  0.84904  0.80292  Biso   1.000  H
  H30      1.0000 0.15336  0.57706  0.93280  Biso   1.000  H
  H31      1.0000 0.27210  0.11193  0.67803  Biso   1.000  H
  C20      1.0000 0.19898  0.18227  0.59791  Biso   1.000  C
  O17      1.0000 0.28767  0.23133  0.74970  Biso   1.000  O
  C21      1.0000 0.89752  0.87836  0.78252  Biso   1.000  C
  H32      1.0000 0.13334  0.15572  0.59879  Biso   1.000  H
  O18      1.0000 0.19615  0.13051  0.52390  Biso   1.000  O
  C22      1.0000 0.21181  0.28285  0.59653  Biso   1.000  C
  C23      1.0000 0.30257  0.32782  0.75430  Biso   1.000  C
  C24      1.0000 0.81551  0.87896  0.70202  Biso   1.000  C
  H33      1.0000 0.96126  0.92817  0.79732  Biso   1.000  H
  C25      1.0000 0.86766  0.89274  0.85432  Biso   1.000  C
  H34      1.0000 0.22349  0.08977  0.53512  Biso   1.000  H
  H35      1.0000 0.27588  0.30987  0.59331  Biso   1.000  H
  O19      1.0000 0.12855  0.28895  0.52642  Biso   1.000  O
  C26      1.0000 0.21647  0.33653  0.67771  Biso   1.000  C
  H36      1.0000 0.36870  0.35645  0.75499  Biso   1.000  H
  C27      1.0000 0.30359  0.37207  0.83524  Biso   1.000  C
  C28      1.0000 0.78592  0.96614  0.71475  Biso   1.000  C
  H37      1.0000 0.75513  0.82375  0.68370  Biso   1.000  H
  O20      1.0000 0.84899  0.87414  0.63809  Biso   1.000  O
  H38      1.0000 0.81153  0.83698  0.84380  Biso   1.000  H
  O21      1.0000 0.83513  0.97225  0.86011  Biso   1.000  O
  C29      1.0000 0.95558  0.90840  0.93872  Biso   1.000  C
  H39      1.0000 0.07488  0.26724  0.52964  Biso   1.000  H
  H40      1.0000 0.15071  0.31328  0.67941  Biso   1.000  H
  O22      1.0000 0.23730  0.43233  0.67903  Biso   1.000  O
  O23      1.0000 0.20587  0.35644  0.83120  Biso   1.000  O
  O24      1.0000 0.39051  0.36554  0.90691  Biso   1.000  O
  C30      1.0000 0.75394  0.97067  0.78623  Biso   1.000  C
  O25      1.0000 0.70950  0.96962  0.64074  Biso   1.000  O
  H41      1.0000 0.84667  0.02084  0.73314  Biso   1.000  H
  H42      1.0000 0.79892  0.85287  0.59042  Biso   1.000  H
  H43      1.0000 0.98488  0.85744  0.93633  Biso   1.000  H
  O26      1.0000 0.92152  0.91164  0.00246  Biso   1.000  O
  H44      1.0000 0.00870  0.96707  0.95264  Biso   1.000  H
  C31      1.0000 0.16690  0.47725  0.68691  Biso   1.000  C
  H45      1.0000 0.17287  0.29994  0.80941  Biso   1.000  H
  H46      1.0000 0.40371  0.40557  0.95081  Biso   1.000  H
  O27      1.0000 0.66950  0.89147  0.76110  Biso   1.000  O
  H47      1.0000 0.73479  0.02775  0.79612  Biso   1.000  H
  H48      1.0000 0.66466  0.95562  0.59004  Biso   1.000  H
  H49      1.0000 0.91180  0.96252  0.01373  Biso   1.000  H
  H50      1.0000 0.10691  0.42975  0.68225  Biso   1.000  H
  C32      1.0000 0.13319  0.51914  0.61454  Biso   1.000  C
  O28      1.0000 0.21034  0.54447  0.76482  Biso   1.000  O
  C33      1.0000 0.57740  0.90492  0.75751  Biso   1.000  C
  H51      1.0000 0.08547  0.55137  0.62103  Biso   1.000  H
  O29      1.0000 0.08128  0.45263  0.53530  Biso   1.000  O
  C34      1.0000 0.22380  0.59176  0.62222  Biso   1.000  C
  C35      1.0000 0.29813  0.61839  0.77962  Biso   1.000  C
  C36      1.0000 0.49232  0.84873  0.67104  Biso   1.000  C
  C37      1.0000 0.55715  0.86908  0.82591  Biso   1.000  C
  H52      1.0000 0.58337  0.97196  0.76683  Biso   1.000  H
  H53      1.0000 0.10019  0.40581  0.53833  Biso   1.000  H
  H54      1.0000 0.27370  0.56154  0.61731  Biso   1.000  H
  O30      1.0000 0.19266  0.63444  0.55622  Biso   1.000  O
  C38      1.0000 0.27252  0.66302  0.70820  Biso   1.000  C
  H55      1.0000 0.35338  0.59214  0.78252  Biso   1.000  H
  C39      1.0000 0.33044  0.68456  0.86415  Biso   1.000  C
  C40      1.0000 0.39452  0.85803  0.66921  Biso   1.000  C
  H56      1.0000 0.48899  0.78238  0.66071  Biso   1.000  H
  O31      1.0000 0.51293  0.88535  0.61019  Biso   1.000  O
  O32      1.0000 0.45906  0.86899  0.81735  Biso   1.000  O
  H57      1.0000 0.56051  0.80464  0.82025  Biso   1.000  H
  C41      1.0000 0.62927  0.92838  0.91365  Biso   1.000  C
  H58      1.0000 0.15256  0.66174  0.56132  Biso   1.000  H
  H59      1.0000 0.22608  0.69877  0.71109  Biso   1.000  H
  O33      1.0000 0.36471  0.72455  0.71790  Biso   1.000  O
  H60      1.0000 0.34324  0.65065  0.90735  Biso   1.000  H
  H61      1.0000 0.39445  0.73296  0.87951  Biso   1.000  H
  O34      1.0000 0.25710  0.72708  0.86452  Biso   1.000  O
  C42      1.0000 0.37816  0.82065  0.73755  Biso   1.000  C
  H62      1.0000 0.39869  0.92464  0.68011  Biso   1.000  H
  O35      1.0000 0.31320  0.80724  0.58941  Biso   1.000  O
  H63      1.0000 0.52443  0.89533  0.56944  Biso   1.000  H
  H64      1.0000 0.61778  0.89840  0.95484  Biso   1.000  H
  H65      1.0000 0.69946  0.93604  0.92291  Biso   1.000  H
  O36      1.0000 0.61421  0.01755  0.92556  Biso   1.000  O
  H66      1.0000 0.28033  0.78405  0.87196  Biso   1.000  H
  H67      1.0000 0.31511  0.82966  0.73755  Biso   1.000  H
  H68      1.0000 0.27253  0.78254  0.53751  Biso   1.000  H
  H69      1.0000 0.64319  0.04581  0.97714  Biso   1.000  H
  C43      1.0000 0.64785  0.24022  0.35089  Biso   1.000  C
  C44      1.0000 0.60166  0.13661  0.32500  Biso   1.000  C
  H70      1.0000 0.59986  0.26986  0.36071  Biso   1.000  H
  O37      1.0000 0.73958  0.26912  0.42634  Biso   1.000  O
  C45      1.0000 0.66683  0.26799  0.28060  Biso   1.000  C
  C46      1.0000 0.50566  0.10314  0.24192  Biso   1.000  C
  H71      1.0000 0.65135  0.10851  0.31650  Biso   1.000  H
  O38      1.0000 0.58055  0.10502  0.38710  Biso   1.000  O
  H72      1.0000 0.78035  0.31503  0.42552  Biso   1.000  H
  C47      1.0000 0.56843  0.23119  0.19809  Biso   1.000  C
  H73      1.0000 0.71784  0.24133  0.27310  Biso   1.000  H
  O39      1.0000 0.70481  0.36580  0.30214  Biso   1.000  O
  O40      1.0000 0.43412  0.13954  0.25389  Biso   1.000  O
  H74      1.0000 0.47893  0.03414  0.22441  Biso   1.000  H
  O41      1.0000 0.52749  0.13317  0.17888  Biso   1.000  O
  H75      1.0000 0.63135  0.09496  0.42080  Biso   1.000  H
  H76      1.0000 0.51864  0.26053  0.20464  Biso   1.000  H
  C48      1.0000 0.58325  0.24930  0.12402  Biso   1.000  C
  C49      1.0000 0.79966  0.40401  0.30440  Biso   1.000  C
  C50      1.0000 0.33815  0.07453  0.23430  Biso   1.000  C
  H77      1.0000 0.51930  0.21842  0.07168  Biso   1.000  H
  H78      1.0000 0.60193  0.31653  0.13038  Biso   1.000  H
  O42      1.0000 0.66146  0.21523  0.11759  Biso   1.000  O
  H79      1.0000 0.83088  0.35421  0.29981  Biso   1.000  H
  C51      1.0000 0.86716  0.47742  0.38792  Biso   1.000  C
  O43      1.0000 0.78909  0.44304  0.23751  Biso   1.000  O
  C52      1.0000 0.31622  0.09653  0.30869  Biso   1.000  C
  C53      1.0000 0.25663  0.08399  0.15463  Biso   1.000  C
  H80      1.0000 0.34163  0.01020  0.22391  Biso   1.000  H
  H81      1.0000 0.66627  0.17251  0.14071  Biso   1.000  H
  H82      1.0000 0.93479  0.50457  0.39044  Biso   1.000  H
  O44      1.0000 0.87929  0.43602  0.45550  Biso   1.000  O
  C54      1.0000 0.82042  0.55373  0.39661  Biso   1.000  C
  C55      1.0000 0.74390  0.51554  0.23720  Biso   1.000  C
  C56      1.0000 0.21221  0.03921  0.28658  Biso   1.000  C
  H83      1.0000 0.32152  0.16330  0.32330  Biso   1.000  H
  O45      1.0000 0.39022  0.07930  0.37942  Biso   1.000  O
  O46      1.0000 0.15792  0.03423  0.14102  Biso   1.000  O
  H84      1.0000 0.26271  0.15083  0.16162  Biso   1.000  H
  C57      1.0000 0.26582  0.04613  0.07571  Biso   1.000  C
  H85      1.0000 0.93527  0.42664  0.47339  Biso   1.000  H
  H86      1.0000 0.75439  0.52753  0.39693  Biso   1.000  H
  O47      1.0000 0.88480  0.62592  0.47112  Biso   1.000  O
  C58      1.0000 0.80318  0.59222  0.32122  Biso   1.000  C
  H87      1.0000 0.67286  0.48902  0.22781  Biso   1.000  H
  C59      1.0000 0.74330  0.55140  0.16313  Biso   1.000  C
  C60      1.0000 0.13882  0.05869  0.21100  Biso   1.000  C
  O48      1.0000 0.18811  0.05953  0.35561  Biso   1.000  O
  H88      1.0000 0.20682  0.97246  0.27203  Biso   1.000  H
  H89      1.0000 0.38016  0.09326  0.42174  Biso   1.000  H
  H90      1.0000 0.20953  0.05022  0.02589  Biso   1.000  H
  H91      1.0000 0.32979  0.08388  0.07930  Biso   1.000  H
  O49      1.0000 0.26376  0.95323  0.06607  Biso   1.000  O
  H92      1.0000 0.90982  0.66538  0.51893  Biso   1.000  H
  H93      1.0000 0.86980  0.62692  0.32563  Biso   1.000  H
  O50      1.0000 0.74842  0.65423  0.32632  Biso   1.000  O
  H94      1.0000 0.70908  0.49890  0.11110  Biso   1.000  H
  H95      1.0000 0.70404  0.59509  0.15519  Biso   1.000  H
  O51      1.0000 0.83928  0.59522  0.17491  Biso   1.000  O
  O52      1.0000 0.15004  0.15443  0.23392  Biso   1.000  O
  H96      1.0000 0.06849  0.02170  0.19670  Biso   1.000  H
  H97      1.0000 0.19012  0.07974  0.40329  Biso   1.000  H
  H98      1.0000 0.24111  0.91451  0.08780  Biso   1.000  H
  C61      1.0000 0.78090  0.74221  0.31492  Biso   1.000  C
  H99      1.0000 0.89715  0.60141  0.17711  Biso   1.000  H
  C62      1.0000 0.06258  0.18081  0.22233  Biso   1.000  C
  H100     1.0000 0.84601  0.74985  0.31139  Biso   1.000  H
  C63      1.0000 0.79932  0.81554  0.39353  Biso   1.000  C
  O53      1.0000 0.71099  0.75242  0.24230  Biso   1.000  O
  C64      1.0000 0.08416  0.24543  0.30421  Biso   1.000  C
  H101     1.0000 0.00382  0.12484  0.20602  Biso   1.000  H
  C65      1.0000 0.03984  0.22898  0.15267  Biso   1.000  C
  C66      1.0000 0.70130  0.80819  0.39819  Biso   1.000  C
  H102     1.0000 0.82663  0.87825  0.38880  Biso   1.000  H
  O54      1.0000 0.87233  0.80403  0.46961  Biso   1.000  O
  C67      1.0000 0.61145  0.74182  0.24079  Biso   1.000  C
  H103     1.0000 0.14626  0.29876  0.32223  Biso   1.000  H
  O55      1.0000 0.10018  0.19855  0.36802  Biso   1.000  O
  C68      1.0000 0.99574  0.28122  0.29092  Biso   1.000  C
  H104     1.0000 0.10182  0.27989  0.16571  Biso   1.000  H
  C69      1.0000 0.00544  0.16183  0.06821  Biso   1.000  C
  O56      1.0000 0.96046  0.26591  0.14581  Biso   1.000  O
  C70      1.0000 0.62667  0.81862  0.31524  Biso   1.000  C
  H105     1.0000 0.67390  0.74526  0.40241  Biso   1.000  H
  O57      1.0000 0.71694  0.87587  0.47163  Biso   1.000  O
  H106     1.0000 0.86646  0.74770  0.46319  Biso   1.000  H
  H107     1.0000 0.58476  0.68000  0.24753  Biso   1.000  H
  C71      1.0000 0.54366  0.74738  0.15500  Biso   1.000  C
  H108     1.0000 0.12667  0.17990  0.41091  Biso   1.000  H
  O58      1.0000 0.00784  0.34046  0.36512  Biso   1.000  O
  C72      1.0000 0.97685  0.32754  0.22000  Biso   1.000  C
  H109     1.0000 0.93462  0.22652  0.27190  Biso   1.000  H
  H110     1.0000 0.06100  0.13843  0.06859  Biso   1.000  H
  H111     1.0000 0.98852  0.19417  0.02400  Biso   1.000  H
  O59      1.0000 0.92111  0.08743  0.04913  Biso   1.000  O
  O60      1.0000 0.53288  0.80475  0.31832  Biso   1.000  O
  H112     1.0000 0.65117  0.88113  0.30881  Biso   1.000  H
  H113     1.0000 0.73623  0.92925  0.46734  Biso   1.000  H
  H114     1.0000 0.47956  0.75030  0.15671  Biso   1.000  H
  O61      1.0000 0.51714  0.66483  0.09120  Biso   1.000  O
  O62      1.0000 0.59907  0.84798  0.15450  Biso   1.000  O
  H115     1.0000 0.02367  0.39543  0.36361  Biso   1.000  H
  O63      1.0000 0.06265  0.40590  0.24690  Biso   1.000  O
  H116     1.0000 0.91624  0.34789  0.20949  Biso   1.000  H
  H117     1.0000 0.88699  0.10472  0.07199  Biso   1.000  H
  C73      1.0000 0.48966  0.87713  0.31190  Biso   1.000  C
  H118     1.0000 0.56284  0.66811  0.07583  Biso   1.000  H
  H119     1.0000 0.64267  0.87932  0.20369  Biso   1.000  H
  C74      1.0000 0.04534  0.49315  0.24652  Biso   1.000  C
  C75      1.0000 0.46411  0.89374  0.38622  Biso   1.000  C
  O64      1.0000 0.40367  0.85484  0.23512  Biso   1.000  O
  H120     1.0000 0.54079  0.93436  0.31763  Biso   1.000  H
  C76      1.0000 0.11760  0.56173  0.33344  Biso   1.000  C
  C77      1.0000 0.06777  0.52663  0.17818  Biso   1.000  C
  H121     1.0000 0.97381  0.48641  0.23449  Biso   1.000  H
  C78      1.0000 0.38760  0.80802  0.37753  Biso   1.000  C
  H122     1.0000 0.43391  0.94495  0.38389  Biso   1.000  H
  O65      1.0000 0.55317  0.92106  0.46319  Biso   1.000  O
  C79      1.0000 0.32357  0.77313  0.22019  Biso   1.000  C
  C80      1.0000 0.10599  0.65534  0.33092  Biso   1.000  C
  H123     1.0000 0.18868  0.56441  0.34730  Biso   1.000  H
  O66      1.0000 0.08955  0.52794  0.39189  Biso   1.000  O
  H124     1.0000 0.13563  0.52442  0.18530  Biso   1.000  H
  O67      1.0000 0.06375  0.62030  0.18328  Biso   1.000  O
  C81      1.0000 0.98775  0.46952  0.09089  Biso   1.000  C
  C82      1.0000 0.29648  0.78162  0.29332  Biso   1.000  C
  H125     1.0000 0.41752  0.75665  0.38143  Biso   1.000  H
  O68      1.0000 0.36171  0.82702  0.44549  Biso   1.000  O
  H126     1.0000 0.55816  0.97095  0.49373  Biso   1.000  H
  H127     1.0000 0.34897  0.71902  0.21660  Biso   1.000  H
  C83      1.0000 0.23743  0.75832  0.13680  Biso   1.000  C
  C84      1.0000 0.12796  0.68425  0.26113  Biso   1.000  C
  H128     1.0000 0.03472  0.65149  0.31820  Biso   1.000  H
  O69      1.0000 0.17107  0.72189  0.40839  Biso   1.000  O
  H129     1.0000 0.12728  0.56385  0.44064  Biso   1.000  H
  H130     1.0000 0.00585  0.49194  0.04881  Biso   1.000  H
  H131     1.0000 0.98655  0.40438  0.08339  Biso   1.000  H
  O70      1.0000 0.89244  0.47332  0.07571  Biso   1.000  O
  O71      1.0000 0.23046  0.69314  0.28299  Biso   1.000  O
  H132     1.0000 0.26091  0.82870  0.29263  Biso   1.000  H
  H133     1.0000 0.34788  0.82182  0.48624  Biso   1.000  H
  H134     1.0000 0.26228  0.75779  0.09359  Biso   1.000  H
  H135     1.0000 0.18694  0.69720  0.12099  Biso   1.000  H
  O72      1.0000 0.19056  0.82769  0.13749  Biso   1.000  O
  H136     1.0000 0.11807  0.74563  0.25912  Biso   1.000  H
  H137     1.0000 0.14830  0.76613  0.41324  Biso   1.000  H
  H138     1.0000 0.89723  0.51893  0.11142  Biso   1.000  H
  H139     1.0000 0.18249  0.88040  0.13850  Biso   1.000  H
