data_image0
_cell_length_a       11.616
_cell_length_b       18.242
_cell_length_c       11.617
_cell_angle_alpha    90
_cell_angle_beta     94.16
_cell_angle_gamma    90

_symmetry_space_group_name_H-M    "P 1"
_symmetry_int_tables_number       1

loop_
  _symmetry_equiv_pos_as_xyz
  'x, y, z'

loop_
  _atom_site_label
  _atom_site_occupancy
  _atom_site_fract_x
  _atom_site_fract_y
  _atom_site_fract_z
  _atom_site_thermal_displace_type
  _atom_site_B_iso_or_equiv
  _atom_site_type_symbol
  C1       1.0000 0.47111  0.53591  0.52493  Biso   1.000  C
  C2       1.0000 0.51070  0.52982  0.40384  Biso   1.000  C
  C3       1.0000 0.46771  0.61468  0.56351  Biso   1.000  C
  H1       1.0000 0.39317  0.51409  0.52691  Biso   1.000  H
  H2       1.0000 0.52451  0.50789  0.57878  Biso   1.000  H
  C4       1.0000 0.43261  0.53602  0.30752  Biso   1.000  C
  C5       1.0000 0.62700  0.52171  0.38597  Biso   1.000  C
  C6       1.0000 0.37093  0.65771  0.53727  Biso   1.000  C
  C7       1.0000 0.56464  0.64861  0.62038  Biso   1.000  C
  O1       1.0000 0.31760  0.54555  0.33013  Biso   1.000  O
  C8       1.0000 0.46952  0.53289  0.19687  Biso   1.000  C
  C9       1.0000 0.66449  0.52028  0.27610  Biso   1.000  C
  H3       1.0000 0.68162  0.51699  0.45061  Biso   1.000  H
  C10      1.0000 0.37084  0.73090  0.56920  Biso   1.000  C
  H4       1.0000 0.30442  0.63688  0.49739  Biso   1.000  H
  O2       1.0000 0.65816  0.60410  0.64213  Biso   1.000  O
  C11      1.0000 0.56221  0.72180  0.65102  Biso   1.000  C
  C12      1.0000 0.24007  0.57132  0.23804  Biso   1.000  C
  H5       1.0000 0.41456  0.53618  0.13240  Biso   1.000  H
  C13      1.0000 0.58590  0.52500  0.17900  Biso   1.000  C
  O3       1.0000 0.77958  0.51332  0.25349  Biso   1.000  O
  O4       1.0000 0.27100  0.77365  0.53149  Biso   1.000  O
  C14      1.0000 0.46438  0.76510  0.62677  Biso   1.000  C
  C15      1.0000 0.75892  0.63600  0.70091  Biso   1.000  C
  H6       1.0000 0.62889  0.74312  0.68960  Biso   1.000  H
  H7       1.0000 0.23079  0.53360  0.17788  Biso   1.000  H
  H8       1.0000 0.27119  0.61611  0.20541  Biso   1.000  H
  H9       1.0000 0.16489  0.58201  0.26738  Biso   1.000  H
  C16      1.0000 0.62728  0.52609  0.05869  Biso   1.000  C
  C17      1.0000 0.86176  0.54040  0.33850  Biso   1.000  C
  S1       1.0000 0.17022  0.78517  0.61141  Biso   1.000  S
  C18      1.0000 0.46398  0.84552  0.66043  Biso   1.000  C
  H10      1.0000 0.78253  0.67920  0.65836  Biso   1.000  H
  H11      1.0000 0.82168  0.59999  0.70557  Biso   1.000  H
  H12      1.0000 0.74143  0.65048  0.77902  Biso   1.000  H
  H13      1.0000 0.56654  0.50592  0.00354  Biso   1.000  H
  H14      1.0000 0.69674  0.49468  0.05610  Biso   1.000  H
  C19      1.0000 0.65609  0.60339  0.02391  Biso   1.000  C
  H15      1.0000 0.93936  0.53519  0.31166  Biso   1.000  H
  H16      1.0000 0.85672  0.51261  0.41022  Biso   1.000  H
  H17      1.0000 0.84619  0.59231  0.35283  Biso   1.000  H
  O5       1.0000 0.20788  0.78199  0.73060  Biso   1.000  O
  O6       1.0000 0.10517  0.84492  0.56437  Biso   1.000  O
  C20      1.0000 0.08100  0.70299  0.57783  Biso   1.000  C
  H18      1.0000 0.38492  0.85977  0.67778  Biso   1.000  H
  H19      1.0000 0.51518  0.85248  0.73138  Biso   1.000  H
  C21      1.0000 0.50344  0.89458  0.56713  Biso   1.000  C
  C22      1.0000 0.76441  0.63299  0.05153  Biso   1.000  C
  C23      1.0000 0.57209  0.64872  0.96720  Biso   1.000  C
  F1       1.0000 0.07533  0.68852  0.46883  Biso   1.000  F
  F2       1.0000 0.12850  0.64598  0.63557  Biso   1.000  F
  F3       1.0000 0.97874  0.71538  0.61123  Biso   1.000  F
  C24      1.0000 0.62061  0.90670  0.55418  Biso   1.000  C
  C25      1.0000 0.42341  0.92819  0.48928  Biso   1.000  C
  H20      1.0000 0.82334  0.60421  0.09002  Biso   1.000  H
  C26      1.0000 0.78566  0.70491  0.02279  Biso   1.000  C
  O7       1.0000 0.46568  0.61682  0.94459  Biso   1.000  O
  C27      1.0000 0.59666  0.72010  0.93812  Biso   1.000  C
  O8       1.0000 0.69648  0.87112  0.63290  Biso   1.000  O
  C28      1.0000 0.65518  0.95231  0.46822  Biso   1.000  C
  H21      1.0000 0.34338  0.92057  0.49679  Biso   1.000  H
  C29      1.0000 0.45761  0.97270  0.40064  Biso   1.000  C
  O9       1.0000 0.89728  0.73528  0.06024  Biso   1.000  O
  C30      1.0000 0.70734  0.75019  0.96496  Biso   1.000  C
  C31      1.0000 0.37640  0.65991  0.88754  Biso   1.000  C
  H22      1.0000 0.53832  0.74937  0.89928  Biso   1.000  H
  C32      1.0000 0.81613  0.87118  0.61011  Biso   1.000  C
  C33      1.0000 0.57497  0.98619  0.39029  Biso   1.000  C
  H23      1.0000 0.73522  0.96080  0.46201  Biso   1.000  H
  O10      1.0000 0.38152  0.00510  0.32012  Biso   1.000  O
  S2       1.0000 0.00369  0.70793  0.99862  Biso   1.000  S
  C34      1.0000 0.73476  0.82880  0.93233  Biso   1.000  C
  H24      1.0000 0.39834  0.67317  0.81029  Biso   1.000  H
  H25      1.0000 0.36491  0.70447  0.93216  Biso   1.000  H
  H26      1.0000 0.30462  0.63151  0.88072  Biso   1.000  H
  H27      1.0000 0.82505  0.85007  0.53373  Biso   1.000  H
  H28      1.0000 0.86008  0.84201  0.66889  Biso   1.000  H
  H29      1.0000 0.84520  0.92172  0.61210  Biso   1.000  H
  C35      1.0000 0.61591  0.03240  0.29241  Biso   1.000  C
  C36      1.0000 0.26421  0.97950  0.31459  Biso   1.000  C
  O11      1.0000 0.98225  0.71341  0.87762  Biso   1.000  O
  O12      1.0000 0.05256  0.64450  0.05049  Biso   1.000  O
  C37      1.0000 0.09598  0.78369  0.04738  Biso   1.000  C
  C38      1.0000 0.70513  0.88318  0.02348  Biso   1.000  C
  H30      1.0000 0.81798  0.83269  0.92008  Biso   1.000  H
  H31      1.0000 0.69085  0.84119  0.85863  Biso   1.000  H
  C39      1.0000 0.65020  0.98290  0.19549  Biso   1.000  C
  H32      1.0000 0.68281  0.06249  0.32098  Biso   1.000  H
  H33      1.0000 0.55326  0.06578  0.26307  Biso   1.000  H
  H34      1.0000 0.23061  0.98997  0.38778  Biso   1.000  H
  H35      1.0000 0.26269  0.92649  0.30070  Biso   1.000  H
  H36      1.0000 0.21935  0.00450  0.25150  Biso   1.000  H
  F4       1.0000 0.05700  0.84651  0.00138  Biso   1.000  F
  F5       1.0000 0.10060  0.79081  0.15846  Biso   1.000  F
  F6       1.0000 0.19964  0.77152  0.01424  Biso   1.000  F
  C40      1.0000 0.79031  0.90999  0.10348  Biso   1.000  C
  C41      1.0000 0.59131  0.90730  0.03038  Biso   1.000  C
  C42      1.0000 0.76423  0.95872  0.18901  Biso   1.000  C
  C43      1.0000 0.56567  0.95680  0.11488  Biso   1.000  C
  H37      1.0000 0.86790  0.89447  0.09908  Biso   1.000  H
  O13      1.0000 0.51152  0.88071  0.94761  Biso   1.000  O
  O14      1.0000 0.84365  0.98602  0.27032  Biso   1.000  O
  H38      1.0000 0.48850  0.97341  0.11798  Biso   1.000  H
  C44      1.0000 0.39337  0.88669  0.97074  Biso   1.000  C
  C45      1.0000 0.95800  0.95691  0.27420  Biso   1.000  C
  H39      1.0000 0.38260  0.86717  0.04781  Biso   1.000  H
  H40      1.0000 0.34596  0.85879  0.91300  Biso   1.000  H
  H41      1.0000 0.37022  0.93838  0.96738  Biso   1.000  H
  H42      1.0000 0.99261  0.96821  0.20187  Biso   1.000  H
  H43      1.0000 0.95522  0.90357  0.28456  Biso   1.000  H
  H44      1.0000 0.00462  0.97889  0.33893  Biso   1.000  H
  C46      1.0000 0.12731  0.47391  0.55867  Biso   1.000  C
  C47      1.0000 0.15612  0.39661  0.52389  Biso   1.000  C
  C48      1.0000 0.08593  0.47500  0.67899  Biso   1.000  C
  H45      1.0000 0.06649  0.49408  0.50352  Biso   1.000  H
  H46      1.0000 0.19668  0.50532  0.55608  Biso   1.000  H
  C49      1.0000 0.26444  0.36701  0.55151  Biso   1.000  C
  C50      1.0000 0.07203  0.35128  0.46719  Biso   1.000  C
  C51      1.0000 0.16452  0.47972  0.77608  Biso   1.000  C
  C52      1.0000 0.96955  0.46711  0.69694  Biso   1.000  C
  C53      1.0000 0.28569  0.29509  0.52277  Biso   1.000  C
  H47      1.0000 0.32328  0.39579  0.59000  Biso   1.000  H
  C54      1.0000 0.09661  0.27990  0.43810  Biso   1.000  C
  O15      1.0000 0.96562  0.38318  0.44457  Biso   1.000  O
  O16      1.0000 0.27961  0.48668  0.75347  Biso   1.000  O
  C55      1.0000 0.12704  0.47829  0.88604  Biso   1.000  C
  C56      1.0000 0.93264  0.46398  0.80750  Biso   1.000  C
  H48      1.0000 0.91459  0.46382  0.63238  Biso   1.000  H
  C57      1.0000 0.20729  0.24981  0.46503  Biso   1.000  C
  O17      1.0000 0.39731  0.26472  0.56023  Biso   1.000  O
  H49      1.0000 0.03818  0.25058  0.39926  Biso   1.000  H
  C58      1.0000 0.87634  0.34009  0.38752  Biso   1.000  C
  C59      1.0000 0.36179  0.45960  0.83848  Biso   1.000  C
  C60      1.0000 0.01073  0.47018  0.90382  Biso   1.000  C
  H50      1.0000 0.18165  0.48301  0.95060  Biso   1.000  H
  O18      1.0000 0.81763  0.45445  0.83011  Biso   1.000  O
  C61      1.0000 0.23470  0.17120  0.43232  Biso   1.000  C
  S3       1.0000 0.50363  0.29207  0.49860  Biso   1.000  S
  H51      1.0000 0.89828  0.32677  0.31028  Biso   1.000  H
  H52      1.0000 0.86478  0.29547  0.43223  Biso   1.000  H
  H53      1.0000 0.80448  0.36849  0.38071  Biso   1.000  H
  H54      1.0000 0.43940  0.46481  0.81173  Biso   1.000  H
  H55      1.0000 0.35675  0.48739  0.91021  Biso   1.000  H
  H56      1.0000 0.34622  0.40769  0.85281  Biso   1.000  H
  C62      1.0000 0.97105  0.46409  0.02491  Biso   1.000  C
  C63      1.0000 0.74010  0.42868  0.73802  Biso   1.000  C
  H57      1.0000 0.31792  0.16731  0.42006  Biso   1.000  H
  H58      1.0000 0.19079  0.15881  0.35861  Biso   1.000  H
  C64      1.0000 0.20507  0.11682  0.52346  Biso   1.000  C
  O19      1.0000 0.55259  0.35550  0.55047  Biso   1.000  O
  O20      1.0000 0.48220  0.28659  0.37760  Biso   1.000  O
  C65      1.0000 0.59601  0.21631  0.54737  Biso   1.000  C
  C66      1.0000 0.96765  0.38532  0.06349  Biso   1.000  C
  H59      1.0000 0.89311  0.48591  0.02689  Biso   1.000  H
  H60      1.0000 0.02446  0.49211  0.07877  Biso   1.000  H
  H61      1.0000 0.73082  0.46640  0.67786  Biso   1.000  H
  H62      1.0000 0.77122  0.38389  0.70540  Biso   1.000  H
  H63      1.0000 0.66492  0.41799  0.76737  Biso   1.000  H
  C67      1.0000 0.29034  0.09001  0.60347  Biso   1.000  C
  C68      1.0000 0.09134  0.09270  0.53036  Biso   1.000  C
  F7       1.0000 0.55703  0.15349  0.50136  Biso   1.000  F
  F8       1.0000 0.60063  0.20919  0.65853  Biso   1.000  F
  F9       1.0000 0.69958  0.22848  0.51422  Biso   1.000  F
  C69      1.0000 0.87080  0.34229  0.03734  Biso   1.000  C
  C70      1.0000 0.06449  0.35139  0.12037  Biso   1.000  C
  H64      1.0000 0.36793  0.10553  0.59906  Biso   1.000  H
  C71      1.0000 0.26417  0.04128  0.68900  Biso   1.000  C
  O21      1.0000 0.01138  0.11929  0.44759  Biso   1.000  O
  C72      1.0000 0.06570  0.04320  0.61486  Biso   1.000  C
  C73      1.0000 0.87070  0.26910  0.06919  Biso   1.000  C
  H65      1.0000 0.80445  0.36312  0.99738  Biso   1.000  H
  C74      1.0000 0.06215  0.27820  0.15101  Biso   1.000  C
  O22      1.0000 0.15801  0.39584  0.14212  Biso   1.000  O
  O23      1.0000 0.34359  0.01398  0.77030  Biso   1.000  O
  C75      1.0000 0.15023  0.01710  0.69547  Biso   1.000  C
  C76      1.0000 0.89331  0.11331  0.47072  Biso   1.000  C
  H66      1.0000 0.98853  0.02659  0.61797  Biso   1.000  H
  C77      1.0000 0.96433  0.23490  0.12684  Biso   1.000  C
  O24      1.0000 0.77094  0.22635  0.03147  Biso   1.000  O
  H67      1.0000 0.12883  0.25688  0.18959  Biso   1.000  H
  C78      1.0000 0.25887  0.36400  0.20089  Biso   1.000  C
  C79      1.0000 0.45803  0.04309  0.77418  Biso   1.000  C
  C80      1.0000 0.11594  0.96760  0.79239  Biso   1.000  C
  H68      1.0000 0.84590  0.14121  0.41298  Biso   1.000  H
  H69      1.0000 0.87008  0.06162  0.46736  Biso   1.000  H
  H70      1.0000 0.88263  0.13283  0.54780  Biso   1.000  H
  C81      1.0000 0.96392  0.15448  0.16041  Biso   1.000  C
  S4       1.0000 0.67007  0.21483  0.11139  Biso   1.000  S
  H71      1.0000 0.28248  0.32080  0.15843  Biso   1.000  H
  H72      1.0000 0.32163  0.40001  0.20564  Biso   1.000  H
  H73      1.0000 0.24138  0.34952  0.27900  Biso   1.000  H
  H74      1.0000 0.49264  0.03179  0.70194  Biso   1.000  H
  H75      1.0000 0.45525  0.09643  0.78463  Biso   1.000  H
  H76      1.0000 0.50465  0.02111  0.83892  Biso   1.000  H
  C82      1.0000 0.07500  0.01381  0.89027  Biso   1.000  C
  H77      1.0000 0.18284  0.93751  0.82096  Biso   1.000  H
  H78      1.0000 0.05330  0.93422  0.76314  Biso   1.000  H
  C83      1.0000 0.00330  0.10542  0.06711  Biso   1.000  C
  H79      1.0000 0.88486  0.14023  0.17776  Biso   1.000  H
  H80      1.0000 0.01513  0.14752  0.23144  Biso   1.000  H
  O25      1.0000 0.70782  0.21801  0.23058  Biso   1.000  O
  O26      1.0000 0.60512  0.15508  0.06444  Biso   1.000  O
  C84      1.0000 0.58095  0.29701  0.07782  Biso   1.000  C
  C85      1.0000 0.15521  0.04769  0.96820  Biso   1.000  C
  C86      1.0000 0.95764  0.02730  0.90063  Biso   1.000  C
  C87      1.0000 0.12056  0.09330  0.05417  Biso   1.000  C
  C88      1.0000 0.92344  0.07181  0.98926  Biso   1.000  C
  F10      1.0000 0.57528  0.31148  0.96881  Biso   1.000  F
  F11      1.0000 0.62845  0.35402  0.13564  Biso   1.000  F
  F12      1.0000 0.47860  0.28462  0.11122  Biso   1.000  F
  H81      1.0000 0.23525  0.03920  0.96199  Biso   1.000  H
  O27      1.0000 0.88155  0.99490  0.82010  Biso   1.000  O
  O28      1.0000 0.19643  0.12888  0.13288  Biso   1.000  O
  H82      1.0000 0.84341  0.07938  0.99677  Biso   1.000  H
  C89      1.0000 0.76424  0.02050  0.81458  Biso   1.000  C
  C90      1.0000 0.31607  0.12882  0.11010  Biso   1.000  C
  H83      1.0000 0.71929  0.99550  0.75148  Biso   1.000  H
  H84      1.0000 0.73064  0.00998  0.88777  Biso   1.000  H
  H85      1.0000 0.76272  0.07351  0.80068  Biso   1.000  H
  H86      1.0000 0.32491  0.14987  0.03371  Biso   1.000  H
  H87      1.0000 0.36002  0.15799  0.16887  Biso   1.000  H
  H88      1.0000 0.34514  0.07828  0.11208  Biso   1.000  H
  Ne1      1.0000 0.08417  0.24773  0.79785  Biso   1.000  Ne
  He1      1.0000 0.35807  0.24831  0.84138  Biso   1.000  He
  He2      1.0000 0.74380  0.22243  0.69925  Biso   1.000  He
  Ar1      1.0000 0.08095  0.25100  0.79469  Biso   1.000  Ar
  Ne2      1.0000 0.58420  0.75227  0.29785  Biso   1.000  Ne
  He3      1.0000 0.86550  0.75156  0.34311  Biso   1.000  He
  He4      1.0000 0.28648  0.77545  0.22301  Biso   1.000  He
  Ar2      1.0000 0.58092  0.74895  0.29465  Biso   1.000  Ar
