data_image0
_cell_length_a       11.305
_cell_length_b       12.136
_cell_length_c       37.187
_cell_angle_alpha    90
_cell_angle_beta     90
_cell_angle_gamma    90

_symmetry_space_group_name_H-M    "P 1"
_symmetry_int_tables_number       1

loop_
  _symmetry_equiv_pos_as_xyz
  'x, y, z'

loop_
  _atom_site_label
  _atom_site_occupancy
  _atom_site_fract_x
  _atom_site_fract_y
  _atom_site_fract_z
  _atom_site_thermal_displace_type
  _atom_site_B_iso_or_equiv
  _atom_site_type_symbol
  C1       1.0000 0.50155  0.46597  0.49235  Biso   1.000  C
  C2       1.0000 0.58744  0.38472  0.48926  Biso   1.000  C
  O1       1.0000 0.38762  0.42930  0.49587  Biso   1.000  O
  C3       1.0000 0.53428  0.57737  0.49192  Biso   1.000  C
  C4       1.0000 0.55197  0.26426  0.48907  Biso   1.000  C
  C5       1.0000 0.70544  0.41546  0.48509  Biso   1.000  C
  C6       1.0000 0.29801  0.50989  0.50195  Biso   1.000  C
  C7       1.0000 0.65130  0.60811  0.48786  Biso   1.000  C
  H1       1.0000 0.47519  0.63250  0.49439  Biso   1.000  H
  C8       1.0000 0.51986  0.22577  0.45153  Biso   1.000  C
  H2       1.0000 0.48341  0.25363  0.50531  Biso   1.000  H
  H3       1.0000 0.61831  0.21918  0.49829  Biso   1.000  H
  H4       1.0000 0.76488  0.36050  0.48299  Biso   1.000  H
  C9       1.0000 0.73667  0.52670  0.48396  Biso   1.000  C
  H5       1.0000 0.31906  0.55471  0.52290  Biso   1.000  H
  H6       1.0000 0.22229  0.47297  0.50639  Biso   1.000  H
  H7       1.0000 0.29102  0.55751  0.48081  Biso   1.000  H
  C10      1.0000 0.68678  0.72891  0.48729  Biso   1.000  C
  C11      1.0000 0.60699  0.18952  0.42789  Biso   1.000  C
  C12      1.0000 0.40345  0.23072  0.43940  Biso   1.000  C
  O2       1.0000 0.85113  0.56353  0.47909  Biso   1.000  O
  C13      1.0000 0.70013  0.77291  0.44935  Biso   1.000  C
  H8       1.0000 0.62618  0.77266  0.50009  Biso   1.000  H
  H9       1.0000 0.76267  0.73789  0.50031  Biso   1.000  H
  C14      1.0000 0.57789  0.15878  0.39291  Biso   1.000  C
  O3       1.0000 0.72101  0.18787  0.44128  Biso   1.000  O
  C15      1.0000 0.37488  0.20213  0.40409  Biso   1.000  C
  H10      1.0000 0.34268  0.25379  0.45540  Biso   1.000  H
  C16      1.0000 0.94374  0.48443  0.47767  Biso   1.000  C
  C17      1.0000 0.80398  0.75832  0.43007  Biso   1.000  C
  C18      1.0000 0.60610  0.82787  0.43233  Biso   1.000  C
  C19      1.0000 0.46210  0.16562  0.38043  Biso   1.000  C
  H11      1.0000 0.63830  0.13283  0.37731  Biso   1.000  H
  C20      1.0000 0.81035  0.14222  0.41891  Biso   1.000  C
  O4       1.0000 0.26130  0.20822  0.39030  Biso   1.000  O
  H12      1.0000 0.94578  0.44281  0.50031  Biso   1.000  H
  H13      1.0000 0.92977  0.43367  0.45761  Biso   1.000  H
  H14      1.0000 0.01964  0.52208  0.47420  Biso   1.000  H
  C21      1.0000 0.81238  0.79656  0.39533  Biso   1.000  C
  H15      1.0000 0.86935  0.72182  0.44080  Biso   1.000  H
  C22      1.0000 0.61796  0.86717  0.39740  Biso   1.000  C
  O5       1.0000 0.50491  0.83932  0.45217  Biso   1.000  O
  C23      1.0000 0.43521  0.13876  0.34136  Biso   1.000  C
  H16      1.0000 0.88633  0.14412  0.43160  Biso   1.000  H
  H17      1.0000 0.81619  0.18532  0.39670  Biso   1.000  H
  H18      1.0000 0.79018  0.06584  0.41310  Biso   1.000  H
  C24      1.0000 0.16860  0.23583  0.41418  Biso   1.000  C
  C25      1.0000 0.72163  0.85110  0.37774  Biso   1.000  C
  O6       1.0000 0.91535  0.77315  0.37341  Biso   1.000  O
  H19      1.0000 0.55409  0.90590  0.38669  Biso   1.000  H
  C26      1.0000 0.40646  0.88868  0.43464  Biso   1.000  C
  C27      1.0000 0.46625  0.23509  0.31713  Biso   1.000  C
  H20      1.0000 0.48120  0.07309  0.33391  Biso   1.000  H
  H21      1.0000 0.35011  0.12121  0.33880  Biso   1.000  H
  H22      1.0000 0.16426  0.18062  0.43340  Biso   1.000  H
  H23      1.0000 0.09350  0.23723  0.40100  Biso   1.000  H
  H24      1.0000 0.18372  0.30850  0.42469  Biso   1.000  H
  C28      1.0000 0.72800  0.88538  0.33861  Biso   1.000  C
  S1       1.0000 0.04653  0.78205  0.38532  Biso   1.000  S
  H25      1.0000 0.33967  0.89280  0.45139  Biso   1.000  H
  H26      1.0000 0.38417  0.84426  0.41369  Biso   1.000  H
  H27      1.0000 0.42786  0.96317  0.42679  Biso   1.000  H
  C29      1.0000 0.38310  0.31691  0.30997  Biso   1.000  C
  C30      1.0000 0.57904  0.24637  0.30247  Biso   1.000  C
  C31      1.0000 0.68527  0.79277  0.31452  Biso   1.000  C
  H28      1.0000 0.81053  0.90458  0.33240  Biso   1.000  H
  H29      1.0000 0.67828  0.95155  0.33479  Biso   1.000  H
  O7       1.0000 0.06838  0.73797  0.41990  Biso   1.000  O
  O8       1.0000 0.11349  0.74918  0.35510  Biso   1.000  O
  C32      1.0000 0.06643  0.93111  0.38938  Biso   1.000  C
  H30      1.0000 0.30535  0.30999  0.31949  Biso   1.000  H
  C33      1.0000 0.41159  0.40845  0.28916  Biso   1.000  C
  O9       1.0000 0.65856  0.16266  0.31011  Biso   1.000  O
  C34      1.0000 0.60699  0.33743  0.28128  Biso   1.000  C
  C35      1.0000 0.76303  0.71671  0.30037  Biso   1.000  C
  C36      1.0000 0.56444  0.77810  0.30796  Biso   1.000  C
  F1       1.0000 0.01168  0.96861  0.41832  Biso   1.000  F
  F2       1.0000 0.02247  0.98228  0.36109  Biso   1.000  F
  F3       1.0000 0.17992  0.95369  0.39253  Biso   1.000  F
  O10      1.0000 0.33295  0.49209  0.28163  Biso   1.000  O
  C37      1.0000 0.52428  0.41917  0.27429  Biso   1.000  C
  C38      1.0000 0.77161  0.16917  0.29357  Biso   1.000  C
  H31      1.0000 0.68430  0.34361  0.27141  Biso   1.000  H
  C39      1.0000 0.72004  0.62945  0.28029  Biso   1.000  C
  H32      1.0000 0.84556  0.72404  0.30441  Biso   1.000  H
  C40      1.0000 0.52331  0.69010  0.28741  Biso   1.000  C
  O11      1.0000 0.49102  0.85489  0.32304  Biso   1.000  O
  C41      1.0000 0.22397  0.49225  0.30016  Biso   1.000  C
  C42      1.0000 0.55595  0.51697  0.25092  Biso   1.000  C
  H33      1.0000 0.82017  0.10671  0.30140  Biso   1.000  H
  H34      1.0000 0.81017  0.23822  0.30059  Biso   1.000  H
  H35      1.0000 0.76241  0.16719  0.26741  Biso   1.000  H
  C43      1.0000 0.60159  0.61379  0.27265  Biso   1.000  C
  O12      1.0000 0.80177  0.54515  0.26891  Biso   1.000  O
  H36      1.0000 0.44069  0.68210  0.28341  Biso   1.000  H
  C44      1.0000 0.36816  0.83034  0.32404  Biso   1.000  C
  H37      1.0000 0.23857  0.48962  0.32611  Biso   1.000  H
  H38      1.0000 0.17736  0.42790  0.29301  Biso   1.000  H
  H39      1.0000 0.18019  0.55966  0.29430  Biso   1.000  H
  H40      1.0000 0.48518  0.54038  0.23729  Biso   1.000  H
  H41      1.0000 0.61725  0.49448  0.23339  Biso   1.000  H
  S2       1.0000 0.89394  0.57012  0.23912  Biso   1.000  S
  H42      1.0000 0.35542  0.76228  0.33770  Biso   1.000  H
  H43      1.0000 0.33861  0.82095  0.29951  Biso   1.000  H
  H44      1.0000 0.32570  0.89107  0.33571  Biso   1.000  H
  O13      1.0000 0.83945  0.59245  0.20585  Biso   1.000  O
  O14      1.0000 0.98700  0.63687  0.25210  Biso   1.000  O
  C45      1.0000 0.94852  0.42807  0.23753  Biso   1.000  C
  F4       1.0000 0.86953  0.36140  0.22341  Biso   1.000  F
  F5       1.0000 0.97452  0.39206  0.26999  Biso   1.000  F
  F6       1.0000 0.04582  0.42642  0.21771  Biso   1.000  F
  C46      1.0000 0.56639  0.56889  0.61062  Biso   1.000  C
  S3       1.0000 0.54657  0.71786  0.61468  Biso   1.000  S
  F7       1.0000 0.51172  0.53139  0.58168  Biso   1.000  F
  F8       1.0000 0.52251  0.51772  0.63891  Biso   1.000  F
  F9       1.0000 0.67988  0.54631  0.60747  Biso   1.000  F
  O15      1.0000 0.41539  0.72676  0.62659  Biso   1.000  O
  O16      1.0000 0.56833  0.76195  0.58010  Biso   1.000  O
  O17      1.0000 0.61345  0.75074  0.64490  Biso   1.000  O
  C47      1.0000 0.31243  0.70336  0.60467  Biso   1.000  C
  C48      1.0000 0.30402  0.74168  0.56993  Biso   1.000  C
  C49      1.0000 0.22167  0.64890  0.62226  Biso   1.000  C
  C50      1.0000 0.20018  0.72709  0.55065  Biso   1.000  C
  H45      1.0000 0.36939  0.77818  0.55920  Biso   1.000  H
  C51      1.0000 0.11800  0.63275  0.60260  Biso   1.000  C
  C52      1.0000 0.22795  0.61462  0.66139  Biso   1.000  C
  C53      1.0000 0.18682  0.77109  0.51271  Biso   1.000  C
  C54      1.0000 0.10606  0.67205  0.56767  Biso   1.000  C
  H46      1.0000 0.05414  0.59410  0.61331  Biso   1.000  H
  H47      1.0000 0.31057  0.59542  0.66760  Biso   1.000  H
  H48      1.0000 0.17833  0.54837  0.66521  Biso   1.000  H
  C55      1.0000 0.18532  0.70715  0.68548  Biso   1.000  C
  C56      1.0000 0.15126  0.89189  0.51214  Biso   1.000  C
  H49      1.0000 0.12623  0.72726  0.49991  Biso   1.000  H
  H50      1.0000 0.26272  0.76211  0.49969  Biso   1.000  H
  O18      1.0000 0.00487  0.66068  0.54783  Biso   1.000  O
  C57      1.0000 0.26307  0.78329  0.69963  Biso   1.000  C
  C58      1.0000 0.06448  0.72190  0.69204  Biso   1.000  C
  C59      1.0000 0.23671  0.97330  0.51604  Biso   1.000  C
  C60      1.0000 0.03432  0.92254  0.50808  Biso   1.000  C
  C61      1.0000 0.90650  0.61132  0.56536  Biso   1.000  C
  H51      1.0000 0.34560  0.77587  0.69559  Biso   1.000  H
  C62      1.0000 0.22008  0.87047  0.71971  Biso   1.000  C
  C63      1.0000 0.02326  0.80990  0.71259  Biso   1.000  C
  O19      1.0000 0.99098  0.64511  0.67696  Biso   1.000  O
  O20      1.0000 0.35117  0.93639  0.52091  Biso   1.000  O
  C64      1.0000 0.20548  0.08446  0.51491  Biso   1.000  C
  H52      1.0000 0.97514  0.86750  0.50561  Biso   1.000  H
  C65      1.0000 0.00159  0.03403  0.50765  Biso   1.000  C
  H53      1.0000 0.83963  0.60720  0.54861  Biso   1.000  H
  H54      1.0000 0.88412  0.65565  0.58631  Biso   1.000  H
  H55      1.0000 0.92782  0.53675  0.57321  Biso   1.000  H
  O21      1.0000 0.30181  0.95476  0.73109  Biso   1.000  O
  C66      1.0000 0.10164  0.88621  0.72735  Biso   1.000  C
  H56      1.0000 0.94065  0.81790  0.71659  Biso   1.000  H
  C67      1.0000 0.86820  0.66958  0.67596  Biso   1.000  C
  C68      1.0000 0.44379  0.01557  0.52233  Biso   1.000  C
  C69      1.0000 0.08748  0.11528  0.51074  Biso   1.000  C
  H57      1.0000 0.26493  0.13950  0.51701  Biso   1.000  H
  O22      1.0000 0.88757  0.07070  0.50413  Biso   1.000  O
  S4       1.0000 0.39398  0.92980  0.76088  Biso   1.000  S
  C70      1.0000 0.05599  0.98294  0.74908  Biso   1.000  C
  H58      1.0000 0.85537  0.73772  0.66230  Biso   1.000  H
  H59      1.0000 0.83857  0.67897  0.70049  Biso   1.000  H
  H60      1.0000 0.82565  0.60885  0.66429  Biso   1.000  H
  H61      1.0000 0.51959  0.97792  0.52580  Biso   1.000  H
  H62      1.0000 0.44582  0.05719  0.49969  Biso   1.000  H
  H63      1.0000 0.42981  0.06633  0.54239  Biso   1.000  H
  C71      1.0000 0.05201  0.23566  0.51093  Biso   1.000  C
  C72      1.0000 0.79797  0.99011  0.49805  Biso   1.000  C
  O23      1.0000 0.33950  0.90747  0.79415  Biso   1.000  O
  O24      1.0000 0.48695  0.86305  0.74790  Biso   1.000  O
  C73      1.0000 0.44856  0.07193  0.76247  Biso   1.000  C
  H64      1.0000 0.98514  0.95954  0.76271  Biso   1.000  H
  H65      1.0000 0.11729  0.00552  0.76661  Biso   1.000  H
  C74      1.0000 0.02433  0.08083  0.72571  Biso   1.000  C
  H66      1.0000 0.98337  0.24637  0.49469  Biso   1.000  H
  C75      1.0000 0.01990  0.27423  0.54847  Biso   1.000  C
  H67      1.0000 0.11827  0.28082  0.50171  Biso   1.000  H
  H68      1.0000 0.81911  0.94529  0.47710  Biso   1.000  H
  H69      1.0000 0.79098  0.94249  0.51919  Biso   1.000  H
  H70      1.0000 0.72225  0.02703  0.49361  Biso   1.000  H
  F10      1.0000 0.36957  0.13860  0.77659  Biso   1.000  F
  F11      1.0000 0.47457  0.10794  0.73001  Biso   1.000  F
  F12      1.0000 0.54578  0.07358  0.78229  Biso   1.000  F
  C76      1.0000 0.91154  0.09146  0.71084  Biso   1.000  C
  C77      1.0000 0.10703  0.16257  0.71872  Biso   1.000  C
  C78      1.0000 0.90349  0.26928  0.56060  Biso   1.000  C
  C79      1.0000 0.10703  0.31048  0.57211  Biso   1.000  C
  C80      1.0000 0.88306  0.18309  0.69003  Biso   1.000  C
  O25      1.0000 0.83299  0.00791  0.71837  Biso   1.000  O
  C81      1.0000 0.07908  0.25363  0.69753  Biso   1.000  C
  H71      1.0000 0.18425  0.15639  0.72859  Biso   1.000  H
  H72      1.0000 0.84264  0.24621  0.54460  Biso   1.000  H
  C82      1.0000 0.87483  0.29787  0.59591  Biso   1.000  C
  O26      1.0000 0.22096  0.31213  0.55872  Biso   1.000  O
  C83      1.0000 0.07793  0.34122  0.60709  Biso   1.000  C
  C84      1.0000 0.96630  0.26491  0.68287  Biso   1.000  C
  H73      1.0000 0.80540  0.19001  0.68051  Biso   1.000  H
  C85      1.0000 0.72393  0.00766  0.69984  Biso   1.000  C
  O27      1.0000 0.15860  0.33734  0.68989  Biso   1.000  O
  O28      1.0000 0.76126  0.29178  0.60970  Biso   1.000  O
  C86      1.0000 0.96205  0.33438  0.61957  Biso   1.000  C
  C87      1.0000 0.31039  0.35778  0.58109  Biso   1.000  C
  H74      1.0000 0.13826  0.36717  0.62269  Biso   1.000  H
  C88      1.0000 0.93516  0.36116  0.65864  Biso   1.000  C
  H75      1.0000 0.68014  0.94026  0.70570  Biso   1.000  H
  H76      1.0000 0.73861  0.01038  0.67389  Biso   1.000  H
  H77      1.0000 0.67740  0.07210  0.70699  Biso   1.000  H
  C89      1.0000 0.27156  0.33075  0.70643  Biso   1.000  C
  C90      1.0000 0.66855  0.26417  0.58582  Biso   1.000  C
  H78      1.0000 0.38638  0.35588  0.56840  Biso   1.000  H
  H79      1.0000 0.31614  0.31468  0.60330  Biso   1.000  H
  H80      1.0000 0.29023  0.43416  0.58690  Biso   1.000  H
  H81      1.0000 0.98116  0.42691  0.66609  Biso   1.000  H
  H82      1.0000 0.85007  0.37879  0.66120  Biso   1.000  H
  H83      1.0000 0.32021  0.39329  0.69860  Biso   1.000  H
  H84      1.0000 0.31022  0.26178  0.69941  Biso   1.000  H
  H85      1.0000 0.26236  0.33281  0.73259  Biso   1.000  H
  H86      1.0000 0.66431  0.31938  0.56660  Biso   1.000  H
  H87      1.0000 0.59345  0.26277  0.59900  Biso   1.000  H
  H88      1.0000 0.68368  0.19150  0.57531  Biso   1.000  H
  O29      1.0000 0.66050  0.40747  0.70584  Biso   1.000  O
  S5       1.0000 0.60593  0.42988  0.73913  Biso   1.000  S
  O30      1.0000 0.69819  0.45476  0.76890  Biso   1.000  O
  O31      1.0000 0.51296  0.36305  0.75212  Biso   1.000  O
  C91      1.0000 0.55135  0.57185  0.73754  Biso   1.000  C
  C92      1.0000 0.77983  0.37047  0.78030  Biso   1.000  C
  F13      1.0000 0.63034  0.63860  0.72340  Biso   1.000  F
  F14      1.0000 0.52534  0.60786  0.77000  Biso   1.000  F
  F15      1.0000 0.45422  0.57358  0.71770  Biso   1.000  F
  C93      1.0000 0.73684  0.28329  0.80039  Biso   1.000  C
  C94      1.0000 0.89836  0.38621  0.77266  Biso   1.000  C
  C95      1.0000 0.81468  0.20723  0.81453  Biso   1.000  C
  H89      1.0000 0.65440  0.27587  0.80439  Biso   1.000  H
  C96      1.0000 0.97665  0.30990  0.78743  Biso   1.000  C
  C97      1.0000 0.94392  0.48303  0.75093  Biso   1.000  C
  C98      1.0000 0.77196  0.11462  0.83863  Biso   1.000  C
  C99      1.0000 0.93543  0.22190  0.80797  Biso   1.000  C
  H90      1.0000 0.05927  0.31790  0.78339  Biso   1.000  H
  H91      1.0000 0.88262  0.50552  0.73340  Biso   1.000  H
  C100     1.0000 0.97567  0.58075  0.77430  Biso   1.000  C
  H92      1.0000 0.01477  0.45962  0.73730  Biso   1.000  H
  C101     1.0000 0.77824  0.14890  0.87775  Biso   1.000  C
  H93      1.0000 0.68934  0.09542  0.83239  Biso   1.000  H
  H94      1.0000 0.82167  0.04837  0.83481  Biso   1.000  H
  O32      1.0000 0.00902  0.14511  0.82303  Biso   1.000  O
  C102     1.0000 0.89297  0.66257  0.78129  Biso   1.000  C
  C103     1.0000 0.08837  0.59146  0.78915  Biso   1.000  C
  C104     1.0000 0.68757  0.20336  0.89531  Biso   1.000  C
  C105     1.0000 0.88200  0.13283  0.89741  Biso   1.000  C
  C106     1.0000 0.13180  0.16958  0.82402  Biso   1.000  C
  H95      1.0000 0.81566  0.65639  0.77140  Biso   1.000  H
  C107     1.0000 0.92083  0.75354  0.80246  Biso   1.000  C
  O33      1.0000 0.16701  0.50791  0.78162  Biso   1.000  O
  C108     1.0000 0.11685  0.68309  0.80999  Biso   1.000  C
  O34      1.0000 0.58461  0.22676  0.87340  Biso   1.000  O
  C109     1.0000 0.69598  0.24168  0.93008  Biso   1.000  C
  H96      1.0000 0.94586  0.09410  0.88671  Biso   1.000  H
  C110     1.0000 0.89385  0.17213  0.93232  Biso   1.000  C
  H97      1.0000 0.14463  0.23772  0.83771  Biso   1.000  H
  H98      1.0000 0.16143  0.17897  0.79950  Biso   1.000  H
  H99      1.0000 0.17426  0.10893  0.83570  Biso   1.000  H
  O35      1.0000 0.84140  0.83734  0.81012  Biso   1.000  O
  C111     1.0000 0.03370  0.76491  0.81711  Biso   1.000  C
  C112     1.0000 0.27598  0.50766  0.80017  Biso   1.000  C
  H100     1.0000 0.19460  0.69001  0.81951  Biso   1.000  H
  S6       1.0000 0.45343  0.21786  0.88531  Biso   1.000  S
  C113     1.0000 0.79973  0.22709  0.94934  Biso   1.000  C
  H101     1.0000 0.63061  0.27818  0.94081  Biso   1.000  H
  O36      1.0000 0.99505  0.16068  0.95216  Biso   1.000  O
  C114     1.0000 0.72835  0.83075  0.79358  Biso   1.000  C
  C115     1.0000 0.06484  0.86116  0.84134  Biso   1.000  C
  H102     1.0000 0.26139  0.51038  0.82610  Biso   1.000  H
  H103     1.0000 0.32260  0.57210  0.79299  Biso   1.000  H
  H104     1.0000 0.31977  0.44026  0.79431  Biso   1.000  H
  O37      1.0000 0.43158  0.26203  0.91992  Biso   1.000  O
  O38      1.0000 0.38647  0.25082  0.85508  Biso   1.000  O
  C116     1.0000 0.43361  0.06889  0.88940  Biso   1.000  C
  C117     1.0000 0.81318  0.27109  0.98731  Biso   1.000  C
  C118     1.0000 0.09350  0.11132  0.93463  Biso   1.000  C
  H105     1.0000 0.67979  0.89329  0.80141  Biso   1.000  H
  H106     1.0000 0.68978  0.76178  0.80060  Biso   1.000  H
  H107     1.0000 0.73755  0.83281  0.76739  Biso   1.000  H
  H108     1.0000 0.01884  0.92691  0.83389  Biso   1.000  H
  H109     1.0000 0.14993  0.87879  0.83879  Biso   1.000  H
  C119     1.0000 0.03786  0.83438  0.88042  Biso   1.000  C
  F16      1.0000 0.48828  0.03139  0.91830  Biso   1.000  F
  F17      1.0000 0.47749  0.01772  0.86108  Biso   1.000  F
  F18      1.0000 0.32012  0.04631  0.89252  Biso   1.000  F
  C120     1.0000 0.84865  0.39189  0.98787  Biso   1.000  C
  H110     1.0000 0.87377  0.22726  0.00011  Biso   1.000  H
  H111     1.0000 0.73728  0.26211  0.00030  Biso   1.000  H
  H112     1.0000 0.16028  0.10720  0.95141  Biso   1.000  H
  H113     1.0000 0.11579  0.15574  0.91371  Biso   1.000  H
  H114     1.0000 0.07209  0.03683  0.92680  Biso   1.000  H
  C121     1.0000 0.92207  0.84122  0.89292  Biso   1.000  C
  C122     1.0000 0.12508  0.79787  0.90411  Biso   1.000  C
  C123     1.0000 0.76329  0.47330  0.98397  Biso   1.000  C
  C124     1.0000 0.96568  0.42263  0.99191  Biso   1.000  C
  H115     1.0000 0.86165  0.86717  0.87730  Biso   1.000  H
  C125     1.0000 0.89297  0.81048  0.92788  Biso   1.000  C
  O39      1.0000 0.23866  0.79178  0.89031  Biso   1.000  O
  C126     1.0000 0.09651  0.76928  0.93939  Biso   1.000  C
  O40      1.0000 0.64874  0.43647  0.97908  Biso   1.000  O
  C127     1.0000 0.79443  0.58446  0.98510  Biso   1.000  C
  C128     1.0000 0.99832  0.53395  0.99236  Biso   1.000  C
  H116     1.0000 0.02477  0.36750  0.99441  Biso   1.000  H
  O41      1.0000 0.77895  0.81213  0.94130  Biso   1.000  O
  C129     1.0000 0.98010  0.77414  0.95154  Biso   1.000  C
  C130     1.0000 0.33136  0.76417  0.91419  Biso   1.000  C
  H117     1.0000 0.15728  0.74621  0.95539  Biso   1.000  H
  C131     1.0000 0.55621  0.51557  0.97768  Biso   1.000  C
  C132     1.0000 0.91243  0.61528  0.98927  Biso   1.000  C
  H118     1.0000 0.73507  0.63950  0.98300  Biso   1.000  H
  O42      1.0000 0.11243  0.57070  0.99586  Biso   1.000  O
  C133     1.0000 0.68961  0.85778  0.91892  Biso   1.000  C
  C134     1.0000 0.94799  0.73566  0.98908  Biso   1.000  C
  H119     1.0000 0.33569  0.81938  0.93339  Biso   1.000  H
  H120     1.0000 0.40646  0.76277  0.90099  Biso   1.000  H
  H121     1.0000 0.31632  0.69150  0.92470  Biso   1.000  H
  H122     1.0000 0.48041  0.47792  0.97421  Biso   1.000  H
  H123     1.0000 0.57019  0.56625  0.95759  Biso   1.000  H
  H124     1.0000 0.55418  0.55719  0.00030  Biso   1.000  H
  C135     1.0000 0.20203  0.49011  0.00196  Biso   1.000  C
  H125     1.0000 0.61353  0.85588  0.93159  Biso   1.000  H
  H126     1.0000 0.68377  0.81468  0.89671  Biso   1.000  H
  H127     1.0000 0.70977  0.93416  0.91309  Biso   1.000  H
  H128     1.0000 0.88165  0.78082  0.99831  Biso   1.000  H
  H129     1.0000 0.01663  0.74637  0.00530  Biso   1.000  H
  H130     1.0000 0.20902  0.44249  0.98080  Biso   1.000  H
  H131     1.0000 0.18089  0.44529  0.02291  Biso   1.000  H
  H132     1.0000 0.27766  0.52703  0.00640  Biso   1.000  H
  O43      1.0000 0.16046  0.09253  0.29416  Biso   1.000  O
  S7       1.0000 0.10597  0.07012  0.26087  Biso   1.000  S
  O44      1.0000 0.19823  0.04524  0.23110  Biso   1.000  O
  O45      1.0000 0.01300  0.13687  0.24788  Biso   1.000  O
  C136     1.0000 0.05139  0.92807  0.26246  Biso   1.000  C
  C137     1.0000 0.27988  0.12953  0.21970  Biso   1.000  C
  F19      1.0000 0.95418  0.92642  0.28230  Biso   1.000  F
  F20      1.0000 0.13038  0.86140  0.27660  Biso   1.000  F
  F21      1.0000 0.02539  0.89206  0.23000  Biso   1.000  F
  C138     1.0000 0.23689  0.21671  0.19961  Biso   1.000  C
  C139     1.0000 0.39841  0.11379  0.22734  Biso   1.000  C
  C140     1.0000 0.31473  0.29277  0.18547  Biso   1.000  C
  H133     1.0000 0.15436  0.22413  0.19561  Biso   1.000  H
  C141     1.0000 0.47669  0.19010  0.21257  Biso   1.000  C
  C142     1.0000 0.44396  0.01697  0.24907  Biso   1.000  C
  C143     1.0000 0.27200  0.38538  0.16137  Biso   1.000  C
  C144     1.0000 0.43547  0.27810  0.19203  Biso   1.000  C
  H134     1.0000 0.55931  0.18210  0.21661  Biso   1.000  H
  H135     1.0000 0.51482  0.04038  0.26270  Biso   1.000  H
  H136     1.0000 0.38266  0.99448  0.26660  Biso   1.000  H
  C145     1.0000 0.47572  0.91917  0.22570  Biso   1.000  C
  C146     1.0000 0.27828  0.35110  0.12225  Biso   1.000  C
  H137     1.0000 0.18939  0.40458  0.16761  Biso   1.000  H
  H138     1.0000 0.32172  0.45155  0.16519  Biso   1.000  H
  O46      1.0000 0.50898  0.35489  0.17697  Biso   1.000  O
  C147     1.0000 0.39301  0.83734  0.21871  Biso   1.000  C
  C148     1.0000 0.58841  0.90845  0.21085  Biso   1.000  C
  C149     1.0000 0.18762  0.29656  0.10469  Biso   1.000  C
  C150     1.0000 0.38195  0.36717  0.10259  Biso   1.000  C
  C151     1.0000 0.63176  0.33042  0.17598  Biso   1.000  C
  H139     1.0000 0.31570  0.84361  0.22860  Biso   1.000  H
  C152     1.0000 0.42088  0.74637  0.19754  Biso   1.000  C
  O47      1.0000 0.66696  0.99209  0.21838  Biso   1.000  O
  C153     1.0000 0.61690  0.81691  0.19001  Biso   1.000  C
  O48      1.0000 0.08456  0.27315  0.12660  Biso   1.000  O
  C154     1.0000 0.19602  0.25832  0.06992  Biso   1.000  C
  H140     1.0000 0.44591  0.40590  0.11329  Biso   1.000  H
  C155     1.0000 0.39390  0.32787  0.06768  Biso   1.000  C
  H141     1.0000 0.64458  0.26228  0.16229  Biso   1.000  H
  H142     1.0000 0.66139  0.32103  0.20050  Biso   1.000  H
  H143     1.0000 0.67430  0.39107  0.16430  Biso   1.000  H
  O49      1.0000 0.34135  0.66266  0.18988  Biso   1.000  O
  C156     1.0000 0.53366  0.73509  0.18289  Biso   1.000  C
  C157     1.0000 0.77594  0.99225  0.19983  Biso   1.000  C
  H144     1.0000 0.69456  0.80999  0.18049  Biso   1.000  H
  S8       1.0000 0.95338  0.28214  0.11469  Biso   1.000  S
  C158     1.0000 0.29978  0.27291  0.05066  Biso   1.000  C
  H145     1.0000 0.13056  0.22182  0.05919  Biso   1.000  H
  O50      1.0000 0.49509  0.33932  0.04784  Biso   1.000  O
  C159     1.0000 0.22839  0.66917  0.20642  Biso   1.000  C
  C160     1.0000 0.56479  0.63876  0.15866  Biso   1.000  C
  H146     1.0000 0.81973  0.05974  0.20569  Biso   1.000  H
  H147     1.0000 0.76134  0.98954  0.17390  Biso   1.000  H
  H148     1.0000 0.82256  0.92790  0.20701  Biso   1.000  H
  O51      1.0000 0.93153  0.23797  0.08008  Biso   1.000  O
  O52      1.0000 0.88642  0.24918  0.14492  Biso   1.000  O
  C161     1.0000 0.93357  0.43111  0.11060  Biso   1.000  C
  C162     1.0000 0.31322  0.22891  0.01269  Biso   1.000  C
  C163     1.0000 0.59345  0.38868  0.06537  Biso   1.000  C
  H149     1.0000 0.17983  0.60671  0.19859  Biso   1.000  H
  H150     1.0000 0.18983  0.73822  0.19940  Biso   1.000  H
  H151     1.0000 0.23759  0.66719  0.23261  Biso   1.000  H
  H152     1.0000 0.51880  0.57309  0.16611  Biso   1.000  H
  H153     1.0000 0.64989  0.62121  0.16121  Biso   1.000  H
  C164     1.0000 0.53790  0.66562  0.11958  Biso   1.000  C
  F22      1.0000 0.98824  0.46861  0.08170  Biso   1.000  F
  F23      1.0000 0.97744  0.48228  0.13892  Biso   1.000  F
  F24      1.0000 0.82008  0.45369  0.10748  Biso   1.000  F
  C165     1.0000 0.34870  0.10811  0.01213  Biso   1.000  C
  H154     1.0000 0.37382  0.27266  0.99989  Biso   1.000  H
  H155     1.0000 0.23733  0.23789  0.99970  Biso   1.000  H
  H156     1.0000 0.66024  0.39280  0.04859  Biso   1.000  H
  H157     1.0000 0.61575  0.34426  0.08629  Biso   1.000  H
  H158     1.0000 0.57205  0.46317  0.07320  Biso   1.000  H
  C166     1.0000 0.42211  0.65878  0.10708  Biso   1.000  C
  C167     1.0000 0.62503  0.70204  0.09589  Biso   1.000  C
  C168     1.0000 0.26325  0.02670  0.01603  Biso   1.000  C
  C169     1.0000 0.46572  0.07737  0.00809  Biso   1.000  C
  H159     1.0000 0.36170  0.63275  0.12270  Biso   1.000  H
  C170     1.0000 0.39301  0.68952  0.07212  Biso   1.000  C
  O53      1.0000 0.73870  0.70822  0.10969  Biso   1.000  O
  C171     1.0000 0.59646  0.73072  0.06061  Biso   1.000  C
  O54      1.0000 0.14878  0.06353  0.02092  Biso   1.000  O
  C172     1.0000 0.29447  0.91546  0.01490  Biso   1.000  C
  H160     1.0000 0.52481  0.13250  0.00559  Biso   1.000  H
  C173     1.0000 0.49836  0.96597  0.00764  Biso   1.000  C
  O55      1.0000 0.27899  0.68787  0.05870  Biso   1.000  O
  C174     1.0000 0.48005  0.72577  0.04846  Biso   1.000  C
  C175     1.0000 0.83140  0.73574  0.08581  Biso   1.000  C
  H161     1.0000 0.65723  0.75379  0.04461  Biso   1.000  H
  C176     1.0000 0.05617  0.98434  0.02232  Biso   1.000  C
  C177     1.0000 0.41247  0.88464  0.01073  Biso   1.000  C
  H162     1.0000 0.23512  0.86050  0.01700  Biso   1.000  H
  O56      1.0000 0.61238  0.92930  0.00414  Biso   1.000  O
  C178     1.0000 0.18956  0.64222  0.08108  Biso   1.000  C
  C179     1.0000 0.44794  0.76426  0.01092  Biso   1.000  C
  H163     1.0000 0.83565  0.68062  0.06661  Biso   1.000  H
  H164     1.0000 0.90650  0.73715  0.09901  Biso   1.000  H
  H165     1.0000 0.81628  0.80850  0.07530  Biso   1.000  H
  H166     1.0000 0.98036  0.02208  0.02579  Biso   1.000  H
  H167     1.0000 0.05422  0.94281  0.99970  Biso   1.000  H
  H168     1.0000 0.07023  0.93367  0.04241  Biso   1.000  H
  C180     1.0000 0.70199  0.00989  0.99804  Biso   1.000  C
  H169     1.0000 0.11358  0.64412  0.06841  Biso   1.000  H
  H170     1.0000 0.18381  0.68532  0.10329  Biso   1.000  H
  H171     1.0000 0.20982  0.56575  0.08691  Biso   1.000  H
  H172     1.0000 0.51659  0.75354  0.99470  Biso   1.000  H
  H173     1.0000 0.38169  0.71918  0.00169  Biso   1.000  H
  H174     1.0000 0.70898  0.05751  0.01920  Biso   1.000  H
  H175     1.0000 0.77771  0.97297  0.99360  Biso   1.000  H
  H176     1.0000 0.68085  0.05471  0.97709  Biso   1.000  H
  Ne1      1.0000 0.30908  0.04856  0.13548  Biso   1.000  Ne
  He1      1.0000 0.75587  0.11847  0.10035  Biso   1.000  He
  He2      1.0000 0.98427  0.88159  0.12878  Biso   1.000  He
  Ar1      1.0000 0.33890  0.98591  0.12209  Biso   1.000  Ar
  Ne2      1.0000 0.69087  0.54856  0.36452  Biso   1.000  Ne
  He3      1.0000 0.25442  0.61479  0.39952  Biso   1.000  He
  He4      1.0000 0.08744  0.34804  0.37405  Biso   1.000  He
  Ar2      1.0000 0.66107  0.48594  0.37790  Biso   1.000  Ar
  Ne3      1.0000 0.19088  0.95141  0.63548  Biso   1.000  Ne
  He5      1.0000 0.57974  0.14942  0.62624  Biso   1.000  He
  He6      1.0000 0.74933  0.88336  0.60041  Biso   1.000  He
  Ar3      1.0000 0.16163  0.01277  0.62226  Biso   1.000  Ar
  Ne4      1.0000 0.80908  0.45142  0.86452  Biso   1.000  Ne
  He7      1.0000 0.19329  0.40442  0.89877  Biso   1.000  He
  He8      1.0000 0.59138  0.54100  0.86699  Biso   1.000  He
  Ar4      1.0000 0.83891  0.51406  0.87791  Biso   1.000  Ar
