data_image0
_cell_length_a       15.233
_cell_length_b       19.754
_cell_length_c       21.392
_cell_angle_alpha    90
_cell_angle_beta     123.2
_cell_angle_gamma    90

_symmetry_space_group_name_H-M    "P 1"
_symmetry_int_tables_number       1

loop_
  _symmetry_equiv_pos_as_xyz
  'x, y, z'

loop_
  _atom_site_label
  _atom_site_occupancy
  _atom_site_fract_x
  _atom_site_fract_y
  _atom_site_fract_z
  _atom_site_thermal_displace_type
  _atom_site_B_iso_or_equiv
  _atom_site_type_symbol
  C1       1.0000 0.18780  0.40250  0.33140  Biso   1.000  C
  N1       1.0000 0.24620  0.39860  0.29670  Biso   1.000  N
  H1       1.0000 0.23732  0.39972  0.38631  Biso   1.000  H
  H2       1.0000 0.14007  0.36312  0.31542  Biso   1.000  H
  N2       1.0000 0.12603  0.46492  0.31279  Biso   1.000  N
  C2       1.0000 0.23715  0.34388  0.25223  Biso   1.000  C
  C3       1.0000 0.33955  0.43728  0.32112  Biso   1.000  C
  C4       1.0000 0.16907  0.52810  0.35134  Biso   1.000  C
  C5       1.0000 0.02013  0.46512  0.27112  Biso   1.000  C
  O1       1.0000 0.17166  0.29908  0.23084  Biso   1.000  O
  N3       1.0000 0.31382  0.35031  0.23883  Biso   1.000  N
  C6       1.0000 0.39074  0.40189  0.28464  Biso   1.000  C
  H3       1.0000 0.38737  0.43778  0.37681  Biso   1.000  H
  N4       1.0000 0.31880  0.50658  0.28961  Biso   1.000  N
  N5       1.0000 0.20691  0.57158  0.31441  Biso   1.000  N
  H4       1.0000 0.22246  0.52192  0.40592  Biso   1.000  H
  C7       1.0000 0.07146  0.56702  0.33564  Biso   1.000  C
  N6       1.0000 0.98477  0.52562  0.27883  Biso   1.000  N
  O2       1.0000 0.96466  0.41789  0.23201  Biso   1.000  O
  C8       1.0000 0.34220  0.29321  0.20888  Biso   1.000  C
  H5       1.0000 0.46074  0.38210  0.32240  Biso   1.000  H
  N7       1.0000 0.39811  0.45398  0.24190  Biso   1.000  N
  C9       1.0000 0.35912  0.51458  0.24642  Biso   1.000  C
  C10      1.0000 0.31168  0.56272  0.32944  Biso   1.000  C
  C11      1.0000 0.15743  0.63248  0.29514  Biso   1.000  C
  H6       1.0000 0.06985  0.57102  0.38162  Biso   1.000  H
  N8       1.0000 0.08026  0.63268  0.30944  Biso   1.000  N
  C12      1.0000 0.88025  0.53012  0.26464  Biso   1.000  C
  H7       1.0000 0.41297  0.27701  0.24832  Biso   1.000  H
  H8       1.0000 0.29224  0.25570  0.19693  Biso   1.000  H
  N9       1.0000 0.34212  0.30900  0.14441  Biso   1.000  N
  C13      1.0000 0.46992  0.45039  0.21542  Biso   1.000  C
  O3       1.0000 0.35972  0.56788  0.21698  Biso   1.000  O
  H9       1.0000 0.33241  0.60459  0.31542  Biso   1.000  H
  H10      1.0000 0.36184  0.55548  0.38374  Biso   1.000  H
  O4       1.0000 0.17776  0.68052  0.26771  Biso   1.000  O
  C14      1.0000 0.00416  0.68680  0.28944  Biso   1.000  C
  H11      1.0000 0.84826  0.48441  0.25223  Biso   1.000  H
  H12      1.0000 0.88582  0.54521  0.31073  Biso   1.000  H
  N10      1.0000 0.81274  0.57538  0.20519  Biso   1.000  N
  C15      1.0000 0.43034  0.34140  0.14721  Biso   1.000  C
  C16      1.0000 0.27421  0.27959  0.07709  Biso   1.000  C
  N11      1.0000 0.42500  0.41521  0.14709  Biso   1.000  N
  H13      1.0000 0.48802  0.49691  0.20899  Biso   1.000  H
  H14      1.0000 0.53552  0.42741  0.25369  Biso   1.000  H
  H15      1.0000 0.03673  0.73038  0.29022  Biso   1.000  H
  H16      1.0000 0.98671  0.68918  0.32771  Biso   1.000  H
  N12      1.0000 0.90872  0.67839  0.21732  Biso   1.000  N
  C17      1.0000 0.81573  0.64959  0.20899  Biso   1.000  C
  C18      1.0000 0.73279  0.55320  0.13698  Biso   1.000  C
  C19      1.0000 0.40988  0.32581  0.06939  Biso   1.000  C
  H17      1.0000 0.49960  0.32368  0.18888  Biso   1.000  H
  N13      1.0000 0.30650  0.29371  0.02911  Biso   1.000  N
  O5       1.0000 0.19630  0.24618  0.05978  Biso   1.000  O
  C20      1.0000 0.43078  0.44128  0.08939  Biso   1.000  C
  C21      1.0000 0.88331  0.71672  0.15721  Biso   1.000  C
  H18      1.0000 0.80566  0.66630  0.24883  Biso   1.000  H
  C22      1.0000 0.72463  0.67181  0.13089  Biso   1.000  C
  N14      1.0000 0.68204  0.60879  0.09190  Biso   1.000  N
  O6       1.0000 0.71002  0.49332  0.11821  Biso   1.000  O
  H19      1.0000 0.46440  0.29432  0.07369  Biso   1.000  H
  N15      1.0000 0.41692  0.39030  0.04302  Biso   1.000  N
  C23      1.0000 0.27367  0.25220  0.96413  Biso   1.000  C
  O7       1.0000 0.44717  0.50162  0.08279  Biso   1.000  O
  N16      1.0000 0.78070  0.71019  0.10581  Biso   1.000  N
  O8       1.0000 0.94531  0.75200  0.15179  Biso   1.000  O
  H20      1.0000 0.67142  0.69971  0.13290  Biso   1.000  H
  C24      1.0000 0.58085  0.60150  0.02263  Biso   1.000  C
  C25      1.0000 0.41926  0.39850  0.97743  Biso   1.000  C
  H21      1.0000 0.22693  0.21601  0.96156  Biso   1.000  H
  H22      1.0000 0.33628  0.23018  0.97017  Biso   1.000  H
  N17      1.0000 0.21941  0.28981  0.89425  Biso   1.000  N
  C26      1.0000 0.72643  0.74780  0.03592  Biso   1.000  C
  N18      1.0000 0.58319  0.60970  0.95704  Biso   1.000  N
  H23      1.0000 0.53213  0.63542  0.02151  Biso   1.000  H
  H24      1.0000 0.55259  0.55609  0.02140  Biso   1.000  H
  H25      1.0000 0.46798  0.36458  0.97855  Biso   1.000  H
  H26      1.0000 0.44752  0.44391  0.97866  Biso   1.000  H
  N19      1.0000 0.31807  0.39121  0.90816  Biso   1.000  N
  C27      1.0000 0.27548  0.32819  0.86916  Biso   1.000  C
  C28      1.0000 0.11680  0.28328  0.84285  Biso   1.000  C
  N20      1.0000 0.69361  0.70629  0.97095  Biso   1.000  N
  H27      1.0000 0.77318  0.78399  0.03849  Biso   1.000  H
  H28      1.0000 0.66376  0.76982  0.02989  Biso   1.000  H
  C29      1.0000 0.59023  0.67419  0.93067  Biso   1.000  C
  C30      1.0000 0.56927  0.55872  0.91067  Biso   1.000  C
  C31      1.0000 0.26728  0.44680  0.86302  Biso   1.000  C
  C32      1.0000 0.18438  0.35041  0.79106  Biso   1.000  C
  H29      1.0000 0.32869  0.30029  0.86715  Biso   1.000  H
  N21      1.0000 0.09139  0.32161  0.78274  Biso   1.000  N
  O9       1.0000 0.05480  0.24800  0.84827  Biso   1.000  O
  C33      1.0000 0.72590  0.72041  0.92296  Biso   1.000  C
  H30      1.0000 0.53571  0.70568  0.92637  Biso   1.000  H
  C34      1.0000 0.56977  0.65860  0.85285  Biso   1.000  C
  N22      1.0000 0.57511  0.58479  0.85296  Biso   1.000  N
  O10      1.0000 0.55287  0.49838  0.91726  Biso   1.000  O
  N23      1.0000 0.18736  0.42462  0.79486  Biso   1.000  N
  O11      1.0000 0.29009  0.50668  0.88184  Biso   1.000  O
  H31      1.0000 0.19445  0.33370  0.75123  Biso   1.000  H
  C35      1.0000 0.99595  0.31320  0.71062  Biso   1.000  C
  N24      1.0000 0.65798  0.69100  0.85564  Biso   1.000  N
  O12      1.0000 0.80377  0.75382  0.94022  Biso   1.000  O
  H32      1.0000 0.50046  0.67632  0.81112  Biso   1.000  H
  C36      1.0000 0.53019  0.54961  0.78464  Biso   1.000  C
  C37      1.0000 0.11986  0.46988  0.73542  Biso   1.000  C
  H33      1.0000 0.96338  0.26962  0.70983  Biso   1.000  H
  N25      1.0000 0.91985  0.36732  0.69062  Biso   1.000  N
  H34      1.0000 0.01333  0.31082  0.67235  Biso   1.000  H
  C38      1.0000 0.65787  0.70679  0.79112  Biso   1.000  C
  H35      1.0000 0.51209  0.50309  0.79106  Biso   1.000  H
  H36      1.0000 0.46455  0.57259  0.74631  Biso   1.000  H
  N26      1.0000 0.60199  0.54602  0.75816  Biso   1.000  N
  H37      1.0000 0.15185  0.51559  0.74782  Biso   1.000  H
  H38      1.0000 0.11422  0.45479  0.68933  Biso   1.000  H
  N27      1.0000 0.01534  0.47438  0.72123  Biso   1.000  N
  C39      1.0000 0.92865  0.43298  0.66441  Biso   1.000  C
  C40      1.0000 0.84262  0.36752  0.70492  Biso   1.000  C
  H39      1.0000 0.58714  0.72299  0.75173  Biso   1.000  H
  H40      1.0000 0.70787  0.74430  0.80313  Biso   1.000  H
  N28      1.0000 0.68628  0.64969  0.76123  Biso   1.000  N
  C41      1.0000 0.60937  0.59811  0.71542  Biso   1.000  C
  C42      1.0000 0.64092  0.48542  0.75363  Biso   1.000  C
  C43      1.0000 0.97997  0.53488  0.72894  Biso   1.000  C
  C44      1.0000 0.83104  0.47190  0.64872  Biso   1.000  C
  H41      1.0000 0.93025  0.42898  0.61844  Biso   1.000  H
  N29      1.0000 0.79313  0.42842  0.68564  Biso   1.000  N
  O13      1.0000 0.82235  0.31948  0.73235  Biso   1.000  O
  C45      1.0000 0.76296  0.65612  0.74782  Biso   1.000  C
  C46      1.0000 0.66056  0.56272  0.67894  Biso   1.000  C
  H42      1.0000 0.53937  0.61790  0.67765  Biso   1.000  H
  N30      1.0000 0.68124  0.49342  0.71045  Biso   1.000  N
  O14      1.0000 0.64035  0.43212  0.78302  Biso   1.000  O
  N31      1.0000 0.87403  0.53508  0.68721  Biso   1.000  N
  O15      1.0000 0.03545  0.58211  0.76805  Biso   1.000  O
  H43      1.0000 0.77765  0.47808  0.59414  Biso   1.000  H
  C47      1.0000 0.68842  0.43728  0.67062  Biso   1.000  C
  N32      1.0000 0.75384  0.60140  0.70335  Biso   1.000  N
  O16      1.0000 0.82845  0.70092  0.76922  Biso   1.000  O
  H44      1.0000 0.61274  0.56222  0.62324  Biso   1.000  H
  C48      1.0000 0.81224  0.59750  0.66866  Biso   1.000  C
  H45      1.0000 0.66763  0.39541  0.68464  Biso   1.000  H
  H46      1.0000 0.63820  0.44452  0.61631  Biso   1.000  H
  H47      1.0000 0.76273  0.60028  0.61374  Biso   1.000  H
  H48      1.0000 0.86004  0.63688  0.68464  Biso   1.000  H
  C49      1.0000 0.27366  0.24780  0.46413  Biso   1.000  C
  N33      1.0000 0.21939  0.21019  0.39424  Biso   1.000  N
  H49      1.0000 0.22687  0.28399  0.46151  Biso   1.000  H
  H50      1.0000 0.33622  0.26982  0.47011  Biso   1.000  H
  N34      1.0000 0.30655  0.20629  0.52910  Biso   1.000  N
  C50      1.0000 0.27542  0.17181  0.36910  Biso   1.000  C
  C51      1.0000 0.11674  0.21672  0.34279  Biso   1.000  C
  C52      1.0000 0.40997  0.17419  0.56944  Biso   1.000  C
  C53      1.0000 0.27430  0.22041  0.57715  Biso   1.000  C
  C54      1.0000 0.18432  0.14959  0.29100  Biso   1.000  C
  H51      1.0000 0.32862  0.19971  0.36709  Biso   1.000  H
  N35      1.0000 0.31801  0.10879  0.40810  Biso   1.000  N
  N36      1.0000 0.09137  0.17839  0.28274  Biso   1.000  N
  O17      1.0000 0.05473  0.25200  0.34821  Biso   1.000  O
  N37      1.0000 0.41696  0.10970  0.54301  Biso   1.000  N
  H52      1.0000 0.46448  0.20568  0.57374  Biso   1.000  H
  C55      1.0000 0.43038  0.15860  0.64720  Biso   1.000  C
  N38      1.0000 0.34217  0.19100  0.64441  Biso   1.000  N
  O18      1.0000 0.19639  0.25382  0.55983  Biso   1.000  O
  H53      1.0000 0.19443  0.16630  0.25123  Biso   1.000  H
  N39      1.0000 0.18730  0.07538  0.29480  Biso   1.000  N
  C56      1.0000 0.26726  0.05320  0.36302  Biso   1.000  C
  C57      1.0000 0.41924  0.10150  0.47743  Biso   1.000  C
  C58      1.0000 0.99593  0.18680  0.21061  Biso   1.000  C
  C59      1.0000 0.43087  0.05872  0.58944  Biso   1.000  C
  N40      1.0000 0.42509  0.08479  0.64715  Biso   1.000  N
  H54      1.0000 0.49969  0.17632  0.68894  Biso   1.000  H
  C60      1.0000 0.34229  0.20679  0.70894  Biso   1.000  C
  C61      1.0000 0.11984  0.03012  0.23542  Biso   1.000  C
  O19      1.0000 0.29007  0.99332  0.38184  Biso   1.000  O
  H55      1.0000 0.46796  0.13542  0.47855  Biso   1.000  H
  H56      1.0000 0.44746  0.05609  0.47860  Biso   1.000  H
  H57      1.0000 0.01333  0.18918  0.17229  Biso   1.000  H
  H58      1.0000 0.96336  0.23038  0.20983  Biso   1.000  H
  N41      1.0000 0.91983  0.13268  0.19061  Biso   1.000  N
  O20      1.0000 0.44726  0.99838  0.58285  Biso   1.000  O
  C62      1.0000 0.46997  0.04961  0.71542  Biso   1.000  C
  H59      1.0000 0.41295  0.22299  0.74832  Biso   1.000  H
  H60      1.0000 0.29229  0.24430  0.69692  Biso   1.000  H
  N42      1.0000 0.31387  0.14969  0.73882  Biso   1.000  N
  H61      1.0000 0.11421  0.04521  0.18933  Biso   1.000  H
  N43      1.0000 0.01532  0.02562  0.22123  Biso   1.000  N
  H62      1.0000 0.15183  0.98441  0.24782  Biso   1.000  H
  C63      1.0000 0.92863  0.06702  0.16441  Biso   1.000  C
  C64      1.0000 0.84260  0.13248  0.20492  Biso   1.000  C
  H63      1.0000 0.48811  0.00309  0.70905  Biso   1.000  H
  H64      1.0000 0.53561  0.07259  0.75374  Biso   1.000  H
  N44      1.0000 0.39820  0.04602  0.74195  Biso   1.000  N
  C65      1.0000 0.39078  0.09811  0.78463  Biso   1.000  C
  C66      1.0000 0.23720  0.15612  0.75223  Biso   1.000  C
  C67      1.0000 0.97996  0.96512  0.22894  Biso   1.000  C
  C68      1.0000 0.83102  0.02810  0.14871  Biso   1.000  C
  H65      1.0000 0.93019  0.07102  0.11838  Biso   1.000  H
  N45      1.0000 0.79314  0.07158  0.18559  Biso   1.000  N
  O21      1.0000 0.82229  0.18052  0.23229  Biso   1.000  O
  C69      1.0000 0.35917  0.98542  0.74642  Biso   1.000  C
  H66      1.0000 0.46083  0.11790  0.82246  Biso   1.000  H
  C70      1.0000 0.33960  0.06272  0.82111  Biso   1.000  C
  N46      1.0000 0.24629  0.10140  0.79676  Biso   1.000  N
  O22      1.0000 0.17171  0.20092  0.73084  Biso   1.000  O
  N47      1.0000 0.87401  0.96492  0.18721  Biso   1.000  N
  O23      1.0000 0.03539  0.91789  0.26799  Biso   1.000  O
  H67      1.0000 0.77759  0.02192  0.09408  Biso   1.000  H
  C71      1.0000 0.68841  0.06272  0.17061  Biso   1.000  C
  N48      1.0000 0.31889  0.99342  0.78966  Biso   1.000  N
  O24      1.0000 0.35981  0.93212  0.71704  Biso   1.000  O
  H68      1.0000 0.38735  0.06222  0.87681  Biso   1.000  H
  C72      1.0000 0.18789  0.09750  0.83145  Biso   1.000  C
  C73      1.0000 0.81224  0.90250  0.16860  Biso   1.000  C
  H69      1.0000 0.66761  0.10459  0.18464  Biso   1.000  H
  H70      1.0000 0.63825  0.05548  0.11631  Biso   1.000  H
  N49      1.0000 0.68118  0.00658  0.21039  Biso   1.000  N
  C74      1.0000 0.31167  0.93728  0.82944  Biso   1.000  C
  H71      1.0000 0.23741  0.10028  0.88637  Biso   1.000  H
  H72      1.0000 0.14005  0.13688  0.81542  Biso   1.000  H
  N50      1.0000 0.12612  0.03508  0.81285  Biso   1.000  N
  H73      1.0000 0.76273  0.89972  0.11369  Biso   1.000  H
  H74      1.0000 0.86002  0.86312  0.18464  Biso   1.000  H
  N51      1.0000 0.75384  0.89860  0.20330  Biso   1.000  N
  C75      1.0000 0.66050  0.93728  0.17888  Biso   1.000  C
  C76      1.0000 0.64097  0.01458  0.25363  Biso   1.000  C
  H75      1.0000 0.33246  0.89541  0.81542  Biso   1.000  H
  H76      1.0000 0.36189  0.94452  0.88374  Biso   1.000  H
  N52      1.0000 0.20696  0.92842  0.81441  Biso   1.000  N
  C77      1.0000 0.16911  0.97190  0.85134  Biso   1.000  C
  C78      1.0000 0.02018  0.03488  0.77111  Biso   1.000  C
  C79      1.0000 0.76294  0.84388  0.24782  Biso   1.000  C
  C80      1.0000 0.60935  0.90189  0.21542  Biso   1.000  C
  H77      1.0000 0.61268  0.93778  0.12318  Biso   1.000  H
  N53      1.0000 0.60193  0.95398  0.25810  Biso   1.000  N
  O25      1.0000 0.64033  0.06788  0.28302  Biso   1.000  O
  C81      1.0000 0.15747  0.86752  0.79514  Biso   1.000  C
  H78      1.0000 0.22251  0.97808  0.90592  Biso   1.000  H
  C82      1.0000 0.07151  0.93298  0.83564  Biso   1.000  C
  N54      1.0000 0.98475  0.97438  0.77882  Biso   1.000  N
  O26      1.0000 0.96464  0.08211  0.73201  Biso   1.000  O
  N55      1.0000 0.68627  0.85031  0.26123  Biso   1.000  N
  O27      1.0000 0.82843  0.79908  0.26922  Biso   1.000  O
  H79      1.0000 0.53931  0.88210  0.17760  Biso   1.000  H
  C83      1.0000 0.53017  0.95039  0.28464  Biso   1.000  C
  N56      1.0000 0.08031  0.86732  0.80944  Biso   1.000  N
  O28      1.0000 0.17778  0.81948  0.76776  Biso   1.000  O
  H80      1.0000 0.06990  0.92898  0.88162  Biso   1.000  H
  C84      1.0000 0.88029  0.96988  0.76463  Biso   1.000  C
  C85      1.0000 0.65785  0.79321  0.29112  Biso   1.000  C
  H81      1.0000 0.51202  0.99691  0.29100  Biso   1.000  H
  H82      1.0000 0.46453  0.92741  0.24631  Biso   1.000  H
  N57      1.0000 0.57505  0.91521  0.35290  Biso   1.000  N
  C86      1.0000 0.00421  0.81320  0.78944  Biso   1.000  C
  H83      1.0000 0.88587  0.95479  0.81072  Biso   1.000  H
  N58      1.0000 0.81277  0.92462  0.70525  Biso   1.000  N
  H84      1.0000 0.84831  0.01559  0.75223  Biso   1.000  H
  H85      1.0000 0.58712  0.77701  0.25173  Biso   1.000  H
  H86      1.0000 0.70785  0.75570  0.30313  Biso   1.000  H
  N59      1.0000 0.65797  0.80900  0.35564  Biso   1.000  N
  C87      1.0000 0.56971  0.84140  0.35279  Biso   1.000  C
  C88      1.0000 0.56927  0.94128  0.41061  Biso   1.000  C
  H87      1.0000 0.98680  0.81082  0.82776  Biso   1.000  H
  N60      1.0000 0.90877  0.82161  0.71732  Biso   1.000  N
  H88      1.0000 0.03678  0.76962  0.79022  Biso   1.000  H
  C89      1.0000 0.73288  0.94680  0.63704  Biso   1.000  C
  C90      1.0000 0.81582  0.85041  0.70905  Biso   1.000  C
  C91      1.0000 0.72584  0.77959  0.42290  Biso   1.000  C
  C92      1.0000 0.59016  0.82581  0.43061  Biso   1.000  C
  H89      1.0000 0.50044  0.82368  0.31112  Biso   1.000  H
  N61      1.0000 0.58317  0.89030  0.45704  Biso   1.000  N
  O29      1.0000 0.55281  0.00162  0.41721  Biso   1.000  O
  C93      1.0000 0.88335  0.78328  0.65720  Biso   1.000  C
  N62      1.0000 0.68206  0.89121  0.59195  Biso   1.000  N
  O30      1.0000 0.71006  0.00668  0.61821  Biso   1.000  O
  C94      1.0000 0.72472  0.82819  0.63095  Biso   1.000  C
  H90      1.0000 0.80571  0.83370  0.74882  Biso   1.000  H
  N63      1.0000 0.69359  0.79371  0.47095  Biso   1.000  N
  O31      1.0000 0.80375  0.74618  0.44022  Biso   1.000  O
  H91      1.0000 0.53565  0.79432  0.42631  Biso   1.000  H
  C95      1.0000 0.58089  0.89850  0.52262  Biso   1.000  C
  N64      1.0000 0.78075  0.78981  0.60581  Biso   1.000  N
  O32      1.0000 0.94540  0.74800  0.65184  Biso   1.000  O
  H92      1.0000 0.67147  0.80029  0.63290  Biso   1.000  H
  C96      1.0000 0.72648  0.75220  0.53592  Biso   1.000  C
  H93      1.0000 0.53218  0.86458  0.52151  Biso   1.000  H
  H94      1.0000 0.55268  0.94391  0.52145  Biso   1.000  H
  H95      1.0000 0.77327  0.71601  0.53855  Biso   1.000  H
  H96      1.0000 0.66385  0.73018  0.52994  Biso   1.000  H
  Ne1      1.0000 0.00005  0.50000  0.00002  Biso   1.000  Ne
  He1      1.0000 0.10867  0.66053  0.99968  Biso   1.000  He
  He2      1.0000 0.92830  0.38208  0.00591  Biso   1.000  He
  Ar1      1.0000 0.00003  0.50000  0.00002  Biso   1.000  Ar
  Ne2      1.0000 0.00006  0.00000  0.50002  Biso   1.000  Ne
  He3      1.0000 0.10837  0.83985  0.49965  Biso   1.000  He
  He4      1.0000 0.92736  0.10934  0.51033  Biso   1.000  He
  Ar2      1.0000 0.00007  1.00000  0.50003  Biso   1.000  Ar
