data_image0
_cell_length_a       9.344
_cell_length_b       13.455
_cell_length_c       14.289
_cell_angle_alpha    90
_cell_angle_beta     94.75
_cell_angle_gamma    90

_symmetry_space_group_name_H-M    "P 1"
_symmetry_int_tables_number       1

loop_
  _symmetry_equiv_pos_as_xyz
  'x, y, z'

loop_
  _atom_site_label
  _atom_site_occupancy
  _atom_site_fract_x
  _atom_site_fract_y
  _atom_site_fract_z
  _atom_site_thermal_displace_type
  _atom_site_B_iso_or_equiv
  _atom_site_type_symbol
  C1       1.0000 0.67555  0.53073  0.59017  Biso   1.000  C
  N1       1.0000 0.78539  0.58751  0.54909  Biso   1.000  N
  C2       1.0000 0.64117  0.57414  0.67788  Biso   1.000  C
  H1       1.0000 0.70870  0.46302  0.60099  Biso   1.000  H
  H2       1.0000 0.58992  0.52865  0.54698  Biso   1.000  H
  C3       1.0000 0.56154  0.59963  0.62627  Biso   1.000  C
  H3       1.0000 0.63048  0.48569  0.54361  Biso   1.000  H
  H4       1.0000 0.71890  0.49119  0.64179  Biso   1.000  H
  C4       1.0000 0.83748  0.56760  0.46770  Biso   1.000  C
  H5       1.0000 0.80326  0.64430  0.57269  Biso   1.000  H
  N2       1.0000 0.61808  0.68317  0.67809  Biso   1.000  N
  H6       1.0000 0.55506  0.54225  0.69677  Biso   1.000  H
  H7       1.0000 0.71855  0.55853  0.72521  Biso   1.000  H
  H8       1.0000 0.50266  0.56135  0.66587  Biso   1.000  H
  C5       1.0000 0.47865  0.70323  0.62072  Biso   1.000  C
  H9       1.0000 0.49978  0.62319  0.57297  Biso   1.000  H
  O1       1.0000 0.80410  0.49208  0.42297  Biso   1.000  O
  C6       1.0000 0.94461  0.64043  0.43308  Biso   1.000  C
  C7       1.0000 0.61994  0.72382  0.76967  Biso   1.000  C
  C8       1.0000 0.67525  0.65299  0.77627  Biso   1.000  C
  C9       1.0000 0.50870  0.76083  0.68989  Biso   1.000  C
  C10      1.0000 0.44712  0.81063  0.59993  Biso   1.000  C
  H10      1.0000 0.40096  0.67611  0.65380  Biso   1.000  H
  H11      1.0000 0.47951  0.66786  0.56159  Biso   1.000  H
  C11      1.0000 0.95925  0.73645  0.48785  Biso   1.000  C
  H12      1.0000 0.91613  0.65604  0.36791  Biso   1.000  H
  H13      1.0000 0.03779  0.60840  0.43533  Biso   1.000  H
  C12      1.0000 0.76725  0.72523  0.82669  Biso   1.000  C
  H14      1.0000 0.58428  0.79153  0.76447  Biso   1.000  H
  H15      1.0000 0.55362  0.68621  0.80457  Biso   1.000  H
  H16      1.0000 0.72836  0.59153  0.77227  Biso   1.000  H
  H17      1.0000 0.59425  0.63961  0.81271  Biso   1.000  H
  H18      1.0000 0.43028  0.73110  0.72051  Biso   1.000  H
  H19      1.0000 0.55132  0.81159  0.73146  Biso   1.000  H
  N3       1.0000 0.55148  0.85656  0.54431  Biso   1.000  N
  H20      1.0000 0.44504  0.84653  0.65871  Biso   1.000  H
  H21      1.0000 0.35268  0.81605  0.56658  Biso   1.000  H
  H22      1.0000 0.37917  0.86102  0.61608  Biso   1.000  H
  H23      1.0000 0.39420  0.76135  0.56152  Biso   1.000  H
  C13      1.0000 0.86816  0.81561  0.46320  Biso   1.000  C
  C14      1.0000 0.04650  0.74166  0.57170  Biso   1.000  C
  N4       1.0000 0.87482  0.76492  0.77016  Biso   1.000  N
  H24      1.0000 0.76189  0.76581  0.88238  Biso   1.000  H
  H25      1.0000 0.79352  0.65819  0.84649  Biso   1.000  H
  H26      1.0000 0.81441  0.69402  0.88217  Biso   1.000  H
  H27      1.0000 0.70884  0.77934  0.84720  Biso   1.000  H
  C15      1.0000 0.62279  0.93943  0.56910  Biso   1.000  C
  H28      1.0000 0.57056  0.82809  0.49467  Biso   1.000  H
  C16      1.0000 0.86053  0.89729  0.52128  Biso   1.000  C
  H29      1.0000 0.80492  0.81070  0.40752  Biso   1.000  H
  C17      1.0000 0.04156  0.82356  0.63076  Biso   1.000  C
  H30      1.0000 0.10432  0.68354  0.59052  Biso   1.000  H
  C18      1.0000 0.00886  0.78848  0.80183  Biso   1.000  C
  H31      1.0000 0.84926  0.76752  0.71033  Biso   1.000  H
  C19      1.0000 0.73801  0.97049  0.50618  Biso   1.000  C
  O2       1.0000 0.60154  0.98580  0.64045  Biso   1.000  O
  C20      1.0000 0.95056  0.90197  0.60344  Biso   1.000  C
  C21      1.0000 0.11007  0.82059  0.72978  Biso   1.000  C
  O3       1.0000 0.05059  0.78402  0.88547  Biso   1.000  O
  H32      1.0000 0.69990  0.96990  0.44101  Biso   1.000  H
  H33      1.0000 0.77117  0.03716  0.52212  Biso   1.000  H
  H34      1.0000 0.94425  0.95964  0.64488  Biso   1.000  H
  H35      1.0000 0.19099  0.77525  0.73238  Biso   1.000  H
  H36      1.0000 0.14707  0.88621  0.74642  Biso   1.000  H
  C22      1.0000 0.32447  0.46934  0.40976  Biso   1.000  C
  C23      1.0000 0.35886  0.42594  0.32212  Biso   1.000  C
  C24      1.0000 0.43848  0.40045  0.37367  Biso   1.000  C
  N5       1.0000 0.21463  0.41249  0.45092  Biso   1.000  N
  H37      1.0000 0.29132  0.53705  0.39902  Biso   1.000  H
  H38      1.0000 0.41011  0.47142  0.45302  Biso   1.000  H
  H39      1.0000 0.36954  0.51431  0.45639  Biso   1.000  H
  H40      1.0000 0.28113  0.50881  0.35822  Biso   1.000  H
  N6       1.0000 0.38195  0.31683  0.32191  Biso   1.000  N
  H41      1.0000 0.44496  0.45782  0.30316  Biso   1.000  H
  H42      1.0000 0.28148  0.44155  0.27479  Biso   1.000  H
  H43      1.0000 0.49736  0.43872  0.33413  Biso   1.000  H
  C25      1.0000 0.52138  0.29684  0.37929  Biso   1.000  C
  H44      1.0000 0.50024  0.37681  0.42697  Biso   1.000  H
  C26      1.0000 0.16254  0.43240  0.53224  Biso   1.000  C
  H45      1.0000 0.19677  0.35570  0.42732  Biso   1.000  H
  C27      1.0000 0.38009  0.27618  0.23034  Biso   1.000  C
  C28      1.0000 0.32477  0.34701  0.22367  Biso   1.000  C
  C29      1.0000 0.49133  0.23924  0.31011  Biso   1.000  C
  C30      1.0000 0.55291  0.18937  0.40007  Biso   1.000  C
  H46      1.0000 0.59906  0.32389  0.34621  Biso   1.000  H
  H47      1.0000 0.52052  0.33222  0.43842  Biso   1.000  H
  C31      1.0000 0.05542  0.35957  0.56693  Biso   1.000  C
  O4       1.0000 0.19593  0.50799  0.57704  Biso   1.000  O
  C32      1.0000 0.23278  0.27484  0.17332  Biso   1.000  C
  H48      1.0000 0.41573  0.20847  0.23546  Biso   1.000  H
  H49      1.0000 0.44640  0.31379  0.19537  Biso   1.000  H
  H50      1.0000 0.27155  0.40855  0.22767  Biso   1.000  H
  H51      1.0000 0.40578  0.36039  0.18729  Biso   1.000  H
  H52      1.0000 0.56964  0.26890  0.27950  Biso   1.000  H
  H53      1.0000 0.44870  0.18841  0.26847  Biso   1.000  H
  N7       1.0000 0.44854  0.14344  0.45569  Biso   1.000  N
  H54      1.0000 0.55499  0.15347  0.34129  Biso   1.000  H
  H55      1.0000 0.64735  0.18402  0.43343  Biso   1.000  H
  H56      1.0000 0.62075  0.13898  0.38392  Biso   1.000  H
  H57      1.0000 0.60583  0.23872  0.43849  Biso   1.000  H
  C33      1.0000 0.04077  0.26362  0.51215  Biso   1.000  C
  H58      1.0000 0.08379  0.34404  0.63210  Biso   1.000  H
  H59      1.0000 0.96224  0.39160  0.56468  Biso   1.000  H
  N8       1.0000 0.12520  0.23508  0.22978  Biso   1.000  N
  H60      1.0000 0.23814  0.23419  0.11763  Biso   1.000  H
  H61      1.0000 0.20651  0.34181  0.15351  Biso   1.000  H
  H62      1.0000 0.18561  0.30598  0.11777  Biso   1.000  H
  H63      1.0000 0.29118  0.22074  0.15281  Biso   1.000  H
  C34      1.0000 0.37723  0.06057  0.43090  Biso   1.000  C
  H64      1.0000 0.42946  0.17191  0.50527  Biso   1.000  H
  C35      1.0000 0.95352  0.25842  0.42823  Biso   1.000  C
  C36      1.0000 0.13187  0.18439  0.53680  Biso   1.000  C
  H65      1.0000 0.15066  0.23248  0.28968  Biso   1.000  H
  C37      1.0000 0.99117  0.21159  0.19818  Biso   1.000  C
  O5       1.0000 0.39848  0.01427  0.35948  Biso   1.000  O
  C38      1.0000 0.26202  0.02951  0.49382  Biso   1.000  C
  C39      1.0000 0.95847  0.17651  0.36924  Biso   1.000  C
  H66      1.0000 0.89571  0.31654  0.40948  Biso   1.000  H
  C40      1.0000 0.13949  0.10279  0.47865  Biso   1.000  C
  H67      1.0000 0.19510  0.18930  0.59249  Biso   1.000  H
  O6       1.0000 0.94944  0.21598  0.11454  Biso   1.000  O
  C41      1.0000 0.88996  0.17941  0.27023  Biso   1.000  C
  H68      1.0000 0.30013  0.03010  0.55899  Biso   1.000  H
  H69      1.0000 0.22886  0.96291  0.47788  Biso   1.000  H
  C42      1.0000 0.04947  0.09803  0.39656  Biso   1.000  C
  H70      1.0000 0.80904  0.22482  0.26763  Biso   1.000  H
  H71      1.0000 0.85296  0.11379  0.25358  Biso   1.000  H
  H72      1.0000 0.05567  0.04043  0.35513  Biso   1.000  H
  O7       1.0000 0.55063  0.71602  0.38547  Biso   1.000  O
  C43      1.0000 0.50879  0.71156  0.30183  Biso   1.000  C
  C44      1.0000 0.61011  0.67945  0.22978  Biso   1.000  C
  N9       1.0000 0.37475  0.73512  0.27016  Biso   1.000  N
  C45      1.0000 0.54160  0.67648  0.13076  Biso   1.000  C
  H73      1.0000 0.69103  0.72479  0.23237  Biso   1.000  H
  H74      1.0000 0.64711  0.61382  0.24642  Biso   1.000  H
  C46      1.0000 0.26729  0.77480  0.32669  Biso   1.000  C
  H75      1.0000 0.34930  0.73252  0.21032  Biso   1.000  H
  C47      1.0000 0.45060  0.59807  0.10344  Biso   1.000  C
  C48      1.0000 0.54644  0.75838  0.07177  Biso   1.000  C
  C49      1.0000 0.11987  0.77622  0.26966  Biso   1.000  C
  C50      1.0000 0.17518  0.84705  0.27627  Biso   1.000  C
  H76      1.0000 0.26193  0.73423  0.38238  Biso   1.000  H
  H77      1.0000 0.29356  0.84184  0.34649  Biso   1.000  H
  H78      1.0000 0.31445  0.80602  0.38216  Biso   1.000  H
  H79      1.0000 0.20878  0.72070  0.34719  Biso   1.000  H
  C51      1.0000 0.36058  0.60275  0.02135  Biso   1.000  C
  H80      1.0000 0.44429  0.54039  0.14487  Biso   1.000  H
  C52      1.0000 0.45929  0.76358  0.98785  Biso   1.000  C
  H81      1.0000 0.60425  0.81650  0.09052  Biso   1.000  H
  C53      1.0000 0.00874  0.73920  0.18989  Biso   1.000  C
  N10      1.0000 0.11801  0.81687  0.17809  Biso   1.000  N
  H82      1.0000 0.08432  0.70851  0.26447  Biso   1.000  H
  H83      1.0000 0.05366  0.81382  0.30457  Biso   1.000  H
  H84      1.0000 0.22840  0.90851  0.27226  Biso   1.000  H
  H85      1.0000 0.09418  0.86042  0.31271  Biso   1.000  H
  C54      1.0000 0.23805  0.52954  0.00618  Biso   1.000  C
  C55      1.0000 0.36809  0.68443  0.96320  Biso   1.000  C
  C56      1.0000 0.44454  0.85961  0.93308  Biso   1.000  C
  C57      1.0000 0.94705  0.68941  0.09993  Biso   1.000  C
  C58      1.0000 0.97858  0.79680  0.12072  Biso   1.000  C
  H86      1.0000 0.05137  0.68844  0.23153  Biso   1.000  H
  H87      1.0000 0.93032  0.76893  0.22051  Biso   1.000  H
  C59      1.0000 0.06147  0.90041  0.12626  Biso   1.000  C
  C60      1.0000 0.14121  0.92590  0.17788  Biso   1.000  C
  C61      1.0000 0.12283  0.56061  0.06910  Biso   1.000  C
  H88      1.0000 0.27121  0.46295  0.02212  Biso   1.000  H
  H89      1.0000 0.19994  0.53014  0.94101  Biso   1.000  H
  H90      1.0000 0.30486  0.68933  0.90751  Biso   1.000  H
  C62      1.0000 0.33741  0.93244  0.96770  Biso   1.000  C
  H91      1.0000 0.41617  0.84400  0.86791  Biso   1.000  H
  H92      1.0000 0.53783  0.89164  0.93532  Biso   1.000  H
  N11      1.0000 0.05142  0.64348  0.04431  Biso   1.000  N
  H93      1.0000 0.94497  0.65351  0.15871  Biso   1.000  H
  H94      1.0000 0.85272  0.68398  0.06657  Biso   1.000  H
  H95      1.0000 0.87921  0.63902  0.11608  Biso   1.000  H
  H96      1.0000 0.89424  0.73876  0.06152  Biso   1.000  H
  H97      1.0000 0.90090  0.82393  0.15379  Biso   1.000  H
  H98      1.0000 0.97955  0.83226  0.06159  Biso   1.000  H
  H99      1.0000 0.99983  0.87685  0.07303  Biso   1.000  H
  C63      1.0000 0.17560  0.96938  0.09024  Biso   1.000  C
  H100     1.0000 0.05499  0.95786  0.19677  Biso   1.000  H
  H101     1.0000 0.00260  0.93876  0.16587  Biso   1.000  H
  H102     1.0000 0.21848  0.94151  0.22521  Biso   1.000  H
  O8       1.0000 0.10148  0.51431  0.14045  Biso   1.000  O
  N12      1.0000 0.28533  0.91252  0.04909  Biso   1.000  N
  O9       1.0000 0.30414  0.00795  0.92296  Biso   1.000  O
  H103     1.0000 0.07061  0.67194  0.99473  Biso   1.000  H
  H104     1.0000 0.08985  0.97146  0.04698  Biso   1.000  H
  H105     1.0000 0.20874  0.03701  0.10098  Biso   1.000  H
  H106     1.0000 0.13052  0.01434  0.04361  Biso   1.000  H
  H107     1.0000 0.21894  0.00884  0.14178  Biso   1.000  H
  H108     1.0000 0.30330  0.85574  0.07268  Biso   1.000  H
  O10      1.0000 0.44940  0.28406  0.61454  Biso   1.000  O
  C64      1.0000 0.49124  0.28844  0.69818  Biso   1.000  C
  N13      1.0000 0.62527  0.26488  0.72978  Biso   1.000  N
  C65      1.0000 0.38992  0.32055  0.77023  Biso   1.000  C
  C66      1.0000 0.73273  0.22520  0.67325  Biso   1.000  C
  H109     1.0000 0.65073  0.26748  0.78968  Biso   1.000  H
  C67      1.0000 0.45843  0.32352  0.86925  Biso   1.000  C
  H110     1.0000 0.30899  0.27521  0.76756  Biso   1.000  H
  H111     1.0000 0.35292  0.38618  0.75359  Biso   1.000  H
  C68      1.0000 0.88005  0.22378  0.73034  Biso   1.000  C
  H112     1.0000 0.73809  0.26577  0.61756  Biso   1.000  H
  H113     1.0000 0.70647  0.15823  0.65351  Biso   1.000  H
  C69      1.0000 0.82484  0.15303  0.72367  Biso   1.000  C
  H114     1.0000 0.68557  0.19398  0.61777  Biso   1.000  H
  H115     1.0000 0.79125  0.27930  0.65281  Biso   1.000  H
  C70      1.0000 0.45359  0.24162  0.92824  Biso   1.000  C
  C71      1.0000 0.54943  0.40193  0.89656  Biso   1.000  C
  N14      1.0000 0.88201  0.18313  0.82191  Biso   1.000  N
  H116     1.0000 0.91569  0.29149  0.73547  Biso   1.000  H
  H117     1.0000 0.94636  0.18618  0.69537  Biso   1.000  H
  C72      1.0000 0.99129  0.26080  0.81012  Biso   1.000  C
  H118     1.0000 0.77162  0.09149  0.72767  Biso   1.000  H
  H119     1.0000 0.90585  0.13958  0.68729  Biso   1.000  H
  H120     1.0000 0.39578  0.18350  0.90949  Biso   1.000  H
  C73      1.0000 0.54074  0.23642  0.01215  Biso   1.000  C
  C74      1.0000 0.63945  0.39725  0.97866  Biso   1.000  C
  H121     1.0000 0.55573  0.45961  0.85506  Biso   1.000  H
  C75      1.0000 0.85882  0.07410  0.82213  Biso   1.000  C
  C76      1.0000 0.93855  0.09959  0.87367  Biso   1.000  C
  C77      1.0000 0.02145  0.20320  0.87929  Biso   1.000  C
  H122     1.0000 0.94866  0.31163  0.76847  Biso   1.000  H
  C78      1.0000 0.05298  0.31059  0.90007  Biso   1.000  C
  H123     1.0000 0.06971  0.23114  0.77950  Biso   1.000  H
  C79      1.0000 0.55548  0.14039  0.06693  Biso   1.000  C
  C80      1.0000 0.63183  0.31564  0.03680  Biso   1.000  C
  C81      1.0000 0.76197  0.47046  0.99376  Biso   1.000  C
  C82      1.0000 0.82443  0.03069  0.90977  Biso   1.000  C
  H124     1.0000 0.94503  0.04221  0.80316  Biso   1.000  H
  H125     1.0000 0.78155  0.05849  0.77479  Biso   1.000  H
  H126     1.0000 0.99742  0.06132  0.83406  Biso   1.000  H
  H127     1.0000 0.00020  0.12323  0.92697  Biso   1.000  H
  H128     1.0000 0.09913  0.17607  0.84621  Biso   1.000  H
  H129     1.0000 0.02048  0.16782  0.93842  Biso   1.000  H
  N15      1.0000 0.94850  0.35652  0.95569  Biso   1.000  N
  H130     1.0000 0.05495  0.34649  0.84130  Biso   1.000  H
  H131     1.0000 0.14730  0.31602  0.93336  Biso   1.000  H
  H132     1.0000 0.12082  0.36098  0.88392  Biso   1.000  H
  H133     1.0000 0.10579  0.26132  0.93849  Biso   1.000  H
  C83      1.0000 0.66261  0.06756  0.03224  Biso   1.000  C
  H134     1.0000 0.58386  0.15600  0.13210  Biso   1.000  H
  H135     1.0000 0.46220  0.10844  0.06468  Biso   1.000  H
  H136     1.0000 0.69517  0.31074  0.09249  Biso   1.000  H
  C84      1.0000 0.87719  0.43946  0.93090  Biso   1.000  C
  H137     1.0000 0.72882  0.53712  0.97788  Biso   1.000  H
  H138     1.0000 0.80009  0.46994  0.05899  Biso   1.000  H
  N16      1.0000 0.71459  0.08755  0.95092  Biso   1.000  N
  H139     1.0000 0.91006  0.02861  0.95295  Biso   1.000  H
  H140     1.0000 0.79128  0.96299  0.89902  Biso   1.000  H
  H141     1.0000 0.86950  0.98573  0.95640  Biso   1.000  H
  H142     1.0000 0.78109  0.99123  0.85822  Biso   1.000  H
  H143     1.0000 0.92942  0.32813  0.00527  Biso   1.000  H
  O11      1.0000 0.69589  0.99205  0.07704  Biso   1.000  O
  O12      1.0000 0.89854  0.48577  0.85948  Biso   1.000  O
  H144     1.0000 0.69673  0.14433  0.92732  Biso   1.000  H
  Ne1      1.0000 0.23473  0.25761  0.37327  Biso   1.000  Ne
  He1      1.0000 0.31024  0.26757  0.46996  Biso   1.000  He
  He2      1.0000 0.24209  0.17563  0.36701  Biso   1.000  He
  Ar1      1.0000 0.23428  0.23918  0.39068  Biso   1.000  Ar
  Ne2      1.0000 0.26528  0.75762  0.12672  Biso   1.000  Ne
  He3      1.0000 0.35964  0.77777  0.12527  Biso   1.000  He
  He4      1.0000 0.21555  0.75032  0.06019  Biso   1.000  He
  Ar2      1.0000 0.26936  0.74424  0.10926  Biso   1.000  Ar
  Ne3      1.0000 0.73473  0.24240  0.87327  Biso   1.000  Ne
  He5      1.0000 0.78180  0.25137  0.93680  Biso   1.000  He
  He6      1.0000 0.69620  0.43726  0.75496  Biso   1.000  He
  Ar3      1.0000 0.73069  0.25580  0.89073  Biso   1.000  Ar
  Ne4      1.0000 0.76529  0.74242  0.62672  Biso   1.000  Ne
  He7      1.0000 0.72469  0.80675  0.63600  Biso   1.000  He
  He8      1.0000 0.86377  0.71807  0.62829  Biso   1.000  He
  He9      1.0000 0.71563  0.74974  0.56020  Biso   1.000  He
  Ar4      1.0000 0.76940  0.75579  0.60928  Biso   1.000  Ar
