data_image0
_cell_length_a       14.082
_cell_length_b       19.079
_cell_length_c       12.417
_cell_angle_alpha    90
_cell_angle_beta     109.28
_cell_angle_gamma    90

_symmetry_space_group_name_H-M    "P 1"
_symmetry_int_tables_number       1

loop_
  _symmetry_equiv_pos_as_xyz
  'x, y, z'

loop_
  _atom_site_label
  _atom_site_occupancy
  _atom_site_fract_x
  _atom_site_fract_y
  _atom_site_fract_z
  _atom_site_thermal_displace_type
  _atom_site_B_iso_or_equiv
  _atom_site_type_symbol
  C1       1.0000 0.54991  0.32418  0.52071  Biso   1.000  C
  C2       1.0000 0.46011  0.30940  0.41593  Biso   1.000  C
  H1       1.0000 0.52782  0.34698  0.57898  Biso   1.000  H
  C3       1.0000 0.62110  0.37198  0.48666  Biso   1.000  C
  O1       1.0000 0.60310  0.26092  0.56558  Biso   1.000  O
  O2       1.0000 0.38869  0.26579  0.44307  Biso   1.000  O
  C4       1.0000 0.41068  0.37832  0.36568  Biso   1.000  C
  H2       1.0000 0.48322  0.28550  0.35920  Biso   1.000  H
  C5       1.0000 0.56889  0.43813  0.42856  Biso   1.000  C
  H3       1.0000 0.65099  0.34708  0.43667  Biso   1.000  H
  O3       1.0000 0.69842  0.39101  0.59272  Biso   1.000  O
  O4       1.0000 0.37678  0.41218  0.44656  Biso   1.000  O
  H4       1.0000 0.35280  0.36831  0.29760  Biso   1.000  H
  O5       1.0000 0.48029  0.41899  0.33377  Biso   1.000  O
  H5       1.0000 0.54890  0.46648  0.48334  Biso   1.000  H
  C6       1.0000 0.63360  0.48142  0.37814  Biso   1.000  C
  C7       1.0000 0.80022  0.39048  0.59579  Biso   1.000  C
  C8       1.0000 0.27386  0.43451  0.41696  Biso   1.000  C
  H6       1.0000 0.69551  0.49379  0.43812  Biso   1.000  H
  H7       1.0000 0.65110  0.45338  0.32217  Biso   1.000  H
  O6       1.0000 0.58508  0.54322  0.32541  Biso   1.000  O
  H8       1.0000 0.80322  0.37219  0.52318  Biso   1.000  H
  C9       1.0000 0.85807  0.34189  0.69109  Biso   1.000  C
  O7       1.0000 0.84281  0.45830  0.61379  Biso   1.000  O
  C10      1.0000 0.23231  0.40212  0.50253  Biso   1.000  C
  H9       1.0000 0.23540  0.41852  0.34000  Biso   1.000  H
  C11      1.0000 0.27263  0.51439  0.42199  Biso   1.000  C
  H10      1.0000 0.92669  0.33728  0.68870  Biso   1.000  H
  C12      1.0000 0.86430  0.37161  0.80516  Biso   1.000  C
  O8       1.0000 0.81192  0.27281  0.67403  Biso   1.000  O
  C13      1.0000 0.84268  0.49101  0.71797  Biso   1.000  C
  C14      1.0000 0.13217  0.43299  0.49178  Biso   1.000  C
  H11      1.0000 0.27828  0.41381  0.57872  Biso   1.000  H
  O9       1.0000 0.22841  0.32711  0.49306  Biso   1.000  O
  H12      1.0000 0.31907  0.52901  0.49639  Biso   1.000  H
  C15      1.0000 0.30269  0.55029  0.33206  Biso   1.000  C
  O10      1.0000 0.17399  0.53850  0.41346  Biso   1.000  O
  H13      1.0000 0.79691  0.37219  0.81199  Biso   1.000  H
  C16      1.0000 0.90508  0.44562  0.81668  Biso   1.000  C
  O11      1.0000 0.92817  0.32738  0.89159  Biso   1.000  O
  H14      1.0000 0.77391  0.49589  0.71933  Biso   1.000  H
  C17      1.0000 0.89079  0.56297  0.71908  Biso   1.000  C
  C18      1.0000 0.13953  0.51250  0.50023  Biso   1.000  C
  H15      1.0000 0.08552  0.42088  0.41619  Biso   1.000  H
  O12      1.0000 0.09149  0.40668  0.57548  Biso   1.000  O
  H16      1.0000 0.30412  0.60050  0.34503  Biso   1.000  H
  H17      1.0000 0.37018  0.53562  0.33804  Biso   1.000  H
  O13      1.0000 0.23624  0.53562  0.21944  Biso   1.000  O
  H18      1.0000 0.97507  0.44468  0.81830  Biso   1.000  H
  O14      1.0000 0.90068  0.47398  0.92231  Biso   1.000  O
  H19      1.0000 0.89741  0.58630  0.79057  Biso   1.000  H
  H20      1.0000 0.95757  0.55700  0.71430  Biso   1.000  H
  O15      1.0000 0.83369  0.60470  0.62881  Biso   1.000  O
  O16      1.0000 0.20390  0.53132  0.60961  Biso   1.000  O
  H21      1.0000 0.07237  0.53168  0.48931  Biso   1.000  H
  C19      1.0000 0.99307  0.47649  0.01548  Biso   1.000  C
  C20      1.0000 0.17652  0.58798  0.66899  Biso   1.000  C
  C21      1.0000 0.97822  0.45008  0.12230  Biso   1.000  C
  H22      1.0000 0.04208  0.44620  0.99747  Biso   1.000  H
  O17      1.0000 0.03092  0.54578  0.02990  Biso   1.000  O
  C22      1.0000 0.19011  0.56261  0.78810  Biso   1.000  C
  H23      1.0000 0.10616  0.60129  0.63026  Biso   1.000  H
  C23      1.0000 0.24507  0.65072  0.67539  Biso   1.000  C
  C24      1.0000 0.91361  0.49772  0.16479  Biso   1.000  C
  O18      1.0000 0.93948  0.37942  0.10583  Biso   1.000  O
  H24      1.0000 0.04458  0.44840  0.18142  Biso   1.000  H
  C25      1.0000 0.96940  0.59531  0.06419  Biso   1.000  C
  C26      1.0000 0.16878  0.62152  0.85704  Biso   1.000  C
  H25      1.0000 0.26059  0.54882  0.82359  Biso   1.000  H
  O19      1.0000 0.12851  0.50270  0.78750  Biso   1.000  O
  H26      1.0000 0.31418  0.63651  0.71839  Biso   1.000  H
  C27      1.0000 0.24520  0.68248  0.56558  Biso   1.000  C
  O20      1.0000 0.21604  0.70402  0.73861  Biso   1.000  O
  H27      1.0000 0.84512  0.49730  0.11001  Biso   1.000  H
  C28      1.0000 0.95437  0.57110  0.17332  Biso   1.000  C
  O21      1.0000 0.91022  0.47702  0.27289  Biso   1.000  O
  H28      1.0000 0.90370  0.59851  0.00413  Biso   1.000  H
  C29      1.0000 0.02187  0.66571  0.07588  Biso   1.000  C
  C30      1.0000 0.22774  0.68688  0.85124  Biso   1.000  C
  H29      1.0000 0.09684  0.63248  0.82700  Biso   1.000  H
  O22      1.0000 0.19381  0.60071  0.97521  Biso   1.000  O
  H30      1.0000 0.28594  0.72472  0.58163  Biso   1.000  H
  H31      1.0000 0.27534  0.64988  0.52642  Biso   1.000  H
  O23      1.0000 0.14611  0.69962  0.49332  Biso   1.000  O
  O24      1.0000 0.88570  0.61602  0.20258  Biso   1.000  O
  H32      1.0000 0.01944  0.57272  0.23483  Biso   1.000  H
  H33      1.0000 0.98071  0.70182  0.09329  Biso   1.000  H
  H34      1.0000 0.03233  0.67792  0.00473  Biso   1.000  H
  O25      1.0000 0.11675  0.66130  0.16564  Biso   1.000  O
  O26      1.0000 0.33161  0.67587  0.91727  Biso   1.000  O
  H35      1.0000 0.20190  0.72582  0.88519  Biso   1.000  H
  C31      1.0000 0.92297  0.66492  0.29277  Biso   1.000  C
  C32      1.0000 0.38377  0.73321  0.98937  Biso   1.000  C
  H36      1.0000 0.99479  0.65711  0.33312  Biso   1.000  H
  C33      1.0000 0.86234  0.65522  0.37331  Biso   1.000  C
  O27      1.0000 0.90552  0.73479  0.24968  Biso   1.000  O
  H37      1.0000 0.33941  0.77420  0.97674  Biso   1.000  H
  C34      1.0000 0.47671  0.75130  0.95857  Biso   1.000  C
  C35      1.0000 0.41124  0.70958  0.11223  Biso   1.000  C
  H38      1.0000 0.88281  0.69081  0.43337  Biso   1.000  H
  C36      1.0000 0.75322  0.66340  0.30949  Biso   1.000  C
  O28      1.0000 0.88366  0.58598  0.42510  Biso   1.000  O
  C37      1.0000 0.80288  0.74700  0.18031  Biso   1.000  C
  H39      1.0000 0.51886  0.70952  0.96676  Biso   1.000  H
  C38      1.0000 0.45668  0.78201  0.84219  Biso   1.000  C
  O29      1.0000 0.53232  0.80528  0.03689  Biso   1.000  O
  C39      1.0000 0.47608  0.76472  0.18859  Biso   1.000  C
  H40      1.0000 0.44903  0.66571  0.12204  Biso   1.000  H
  O30      1.0000 0.32251  0.69862  0.14260  Biso   1.000  O
  H41      1.0000 0.73225  0.62488  0.25454  Biso   1.000  H
  C40      1.0000 0.73187  0.73169  0.24447  Biso   1.000  C
  O31      1.0000 0.69342  0.66078  0.38338  Biso   1.000  O
  H42      1.0000 0.78626  0.71660  0.11300  Biso   1.000  H
  C41      1.0000 0.80073  0.82331  0.14243  Biso   1.000  C
  H43      1.0000 0.52020  0.79459  0.83281  Biso   1.000  H
  H44      1.0000 0.42486  0.74679  0.78537  Biso   1.000  H
  O32      1.0000 0.39418  0.84208  0.82291  Biso   1.000  O
  C42      1.0000 0.56418  0.78332  0.15096  Biso   1.000  C
  H45      1.0000 0.43553  0.80691  0.18518  Biso   1.000  H
  O33      1.0000 0.51375  0.74029  0.30556  Biso   1.000  O
  O34      1.0000 0.62948  0.72509  0.16717  Biso   1.000  O
  H46      1.0000 0.73502  0.77011  0.29797  Biso   1.000  H
  H47      1.0000 0.73160  0.83741  0.10353  Biso   1.000  H
  H48      1.0000 0.82782  0.85308  0.20890  Biso   1.000  H
  O35      1.0000 0.85850  0.83249  0.06744  Biso   1.000  O
  H49      1.0000 0.60108  0.82190  0.19866  Biso   1.000  H
  C43      1.0000 0.54333  0.28199  0.15784  Biso   1.000  C
  C44      1.0000 0.52327  0.25132  0.04138  Biso   1.000  C
  H50      1.0000 0.47981  0.29462  0.16723  Biso   1.000  H
  H51      1.0000 0.57511  0.24682  0.21458  Biso   1.000  H
  O36      1.0000 0.60582  0.34210  0.17712  Biso   1.000  O
  O37      1.0000 0.46768  0.30531  0.96314  Biso   1.000  O
  C45      1.0000 0.61620  0.23319  0.01058  Biso   1.000  C
  H52      1.0000 0.48112  0.20950  0.03319  Biso   1.000  H
  C46      1.0000 0.43579  0.28330  0.84898  Biso   1.000  C
  C47      1.0000 0.58877  0.20960  0.88780  Biso   1.000  C
  H53      1.0000 0.66059  0.27418  0.02329  Biso   1.000  H
  O38      1.0000 0.66837  0.17590  0.08267  Biso   1.000  O
  O39      1.0000 0.37050  0.22512  0.83277  Biso   1.000  O
  H54      1.0000 0.39890  0.32192  0.80129  Biso   1.000  H
  C48      1.0000 0.52390  0.26469  0.81136  Biso   1.000  C
  H55      1.0000 0.55097  0.16568  0.87799  Biso   1.000  H
  O40      1.0000 0.67749  0.19860  0.85743  Biso   1.000  O
  C49      1.0000 0.77227  0.18691  0.14880  Biso   1.000  C
  C50      1.0000 0.26811  0.23172  0.75547  Biso   1.000  C
  H56      1.0000 0.56452  0.30688  0.81477  Biso   1.000  H
  O41      1.0000 0.48622  0.24032  0.69438  Biso   1.000  O
  C51      1.0000 0.83122  0.12149  0.14300  Biso   1.000  C
  O42      1.0000 0.78404  0.20399  0.26142  Biso   1.000  O
  H57      1.0000 0.79810  0.22580  0.11484  Biso   1.000  H
  C52      1.0000 0.24676  0.16343  0.69046  Biso   1.000  C
  C53      1.0000 0.19712  0.24703  0.81972  Biso   1.000  C
  H58      1.0000 0.26503  0.27009  0.70198  Biso   1.000  H
  C54      1.0000 0.80989  0.06258  0.21193  Biso   1.000  C
  H59      1.0000 0.90324  0.13250  0.17303  Biso   1.000  H
  O43      1.0000 0.80619  0.10069  0.02483  Biso   1.000  O
  C55      1.0000 0.75494  0.15069  0.32464  Biso   1.000  C
  C56      1.0000 0.13774  0.15520  0.62673  Biso   1.000  C
  H60      1.0000 0.26783  0.12490  0.74549  Biso   1.000  H
  O44      1.0000 0.30656  0.16081  0.61657  Biso   1.000  O
  O45      1.0000 0.09446  0.23481  0.75027  Biso   1.000  O
  H61      1.0000 0.21374  0.21663  0.88704  Biso   1.000  H
  C57      1.0000 0.19927  0.32329  0.85760  Biso   1.000  C
  C58      1.0000 0.82348  0.08800  0.33104  Biso   1.000  C
  H62      1.0000 0.73941  0.04880  0.17644  Biso   1.000  H
  O46      1.0000 0.87149  0.00273  0.21253  Biso   1.000  O
  H63      1.0000 0.68582  0.13649  0.28164  Biso   1.000  H
  C59      1.0000 0.75478  0.18250  0.43436  Biso   1.000  C
  C60      1.0000 0.07701  0.16489  0.70718  Biso   1.000  C
  H64      1.0000 0.11717  0.19079  0.56658  Biso   1.000  H
  O47      1.0000 0.11634  0.08601  0.57494  Biso   1.000  O
  H65      1.0000 0.26841  0.33739  0.89651  Biso   1.000  H
  H66      1.0000 0.17218  0.35311  0.79114  Biso   1.000  H
  O48      1.0000 0.14150  0.33251  0.93260  Biso   1.000  O
  O49      1.0000 0.79610  0.03129  0.39042  Biso   1.000  O
  H67      1.0000 0.89381  0.10132  0.36969  Biso   1.000  H
  H68      1.0000 0.71413  0.22470  0.41841  Biso   1.000  H
  H69      1.0000 0.72474  0.14990  0.47361  Biso   1.000  H
  O50      1.0000 0.85389  0.19959  0.50671  Biso   1.000  O
  O51      1.0000 0.11427  0.11599  0.79737  Biso   1.000  O
  H70      1.0000 0.00521  0.15708  0.66691  Biso   1.000  H
  C61      1.0000 0.86047  0.01247  0.49980  Biso   1.000  C
  C62      1.0000 0.04563  0.07113  0.82672  Biso   1.000  C
  O52      1.0000 0.82599  0.03852  0.58649  Biso   1.000  O
  C63      1.0000 0.86780  0.93302  0.50816  Biso   1.000  C
  H71      1.0000 0.92763  0.03171  0.51072  Biso   1.000  H
  C64      1.0000 0.03060  0.09529  0.93584  Biso   1.000  C
  C65      1.0000 0.08636  0.99769  0.83516  Biso   1.000  C
  H72      1.0000 0.98057  0.07270  0.76520  Biso   1.000  H
  C66      1.0000 0.72745  0.01441  0.57804  Biso   1.000  C
  C67      1.0000 0.76770  0.90209  0.49750  Biso   1.000  C
  H73      1.0000 0.91445  0.92091  0.58376  Biso   1.000  H
  O53      1.0000 0.90848  0.90670  0.42447  Biso   1.000  O
  O54      1.0000 0.96908  0.04581  0.97014  Biso   1.000  O
  C68      1.0000 0.97811  0.16568  0.92407  Biso   1.000  C
  H74      1.0000 0.09631  0.09849  0.99590  Biso   1.000  H
  C69      1.0000 0.02178  0.95010  0.87774  Biso   1.000  C
  H75      1.0000 0.15489  0.99727  0.89002  Biso   1.000  H
  O55      1.0000 0.08976  0.97699  0.72706  Biso   1.000  O
  C70      1.0000 0.72612  0.93448  0.58299  Biso   1.000  C
  H76      1.0000 0.68091  0.02898  0.50356  Biso   1.000  H
  C71      1.0000 0.69729  0.05032  0.66788  Biso   1.000  C
  H77      1.0000 0.72172  0.91378  0.42131  Biso   1.000  H
  O56      1.0000 0.77157  0.82709  0.50688  Biso   1.000  O
  C72      1.0000 0.00691  0.97652  0.98447  Biso   1.000  C
  H78      1.0000 0.96767  0.17789  0.99531  Biso   1.000  H
  O57      1.0000 0.88333  0.16128  0.83439  Biso   1.000  O
  H79      1.0000 0.01927  0.20179  0.90666  Biso   1.000  H
  H80      1.0000 0.95543  0.94842  0.81861  Biso   1.000  H
  O58      1.0000 0.06052  0.87940  0.89420  Biso   1.000  O
  O59      1.0000 0.62319  0.91221  0.55338  Biso   1.000  O
  H81      1.0000 0.76460  0.91850  0.66003  Biso   1.000  H
  H82      1.0000 0.69588  0.10048  0.65500  Biso   1.000  H
  H83      1.0000 0.62982  0.03559  0.66200  Biso   1.000  H
  O60      1.0000 0.76377  0.03559  0.78059  Biso   1.000  O
  O61      1.0000 0.09932  0.97400  0.07773  Biso   1.000  O
  H84      1.0000 0.95790  0.94622  0.00247  Biso   1.000  H
  C73      1.0000 0.58929  0.87830  0.63427  Biso   1.000  C
  C74      1.0000 0.09490  0.94559  0.18327  Biso   1.000  C
  C75      1.0000 0.53989  0.80942  0.58410  Biso   1.000  C
  O62      1.0000 0.51969  0.91902  0.66618  Biso   1.000  O
  H85      1.0000 0.64720  0.86828  0.70244  Biso   1.000  H
  C76      1.0000 0.15730  0.99098  0.28198  Biso   1.000  C
  C77      1.0000 0.13568  0.87159  0.19479  Biso   1.000  C
  H86      1.0000 0.02493  0.94470  0.18173  Biso   1.000  H
  C78      1.0000 0.45009  0.82420  0.47933  Biso   1.000  C
  H87      1.0000 0.51679  0.78552  0.64084  Biso   1.000  H
  O63      1.0000 0.61129  0.76582  0.55688  Biso   1.000  O
  C79      1.0000 0.43109  0.93810  0.57139  Biso   1.000  C
  C80      1.0000 0.10919  0.06300  0.28087  Biso   1.000  C
  H88      1.0000 0.22609  0.99591  0.28070  Biso   1.000  H
  O64      1.0000 0.15717  0.95828  0.38616  Biso   1.000  O
  C81      1.0000 0.14190  0.84192  0.30886  Biso   1.000  C
  H89      1.0000 0.20307  0.87222  0.18796  Biso   1.000  H
  O65      1.0000 0.07184  0.82740  0.10844  Biso   1.000  O
  C82      1.0000 0.37888  0.87201  0.51328  Biso   1.000  C
  H90      1.0000 0.47216  0.84700  0.42097  Biso   1.000  H
  O66      1.0000 0.39688  0.76089  0.43436  Biso   1.000  O
  H91      1.0000 0.45110  0.96651  0.51670  Biso   1.000  H
  C83      1.0000 0.36641  0.98139  0.62190  Biso   1.000  C
  O67      1.0000 0.16631  0.10472  0.37123  Biso   1.000  O
  H92      1.0000 0.10257  0.08633  0.20937  Biso   1.000  H
  H93      1.0000 0.04243  0.05703  0.28574  Biso   1.000  H
  C84      1.0000 0.19976  0.89051  0.40416  Biso   1.000  C
  H94      1.0000 0.07332  0.83731  0.31133  Biso   1.000  H
  O68      1.0000 0.18808  0.77279  0.32601  Biso   1.000  O
  O69      1.0000 0.30159  0.89098  0.40732  Biso   1.000  O
  H95      1.0000 0.34898  0.84711  0.56328  Biso   1.000  H
  O70      1.0000 0.41492  0.04319  0.67462  Biso   1.000  O
  H96      1.0000 0.30449  0.99382  0.56192  Biso   1.000  H
  H97      1.0000 0.34887  0.95340  0.67778  Biso   1.000  H
  H98      1.0000 0.19683  0.87222  0.47677  Biso   1.000  H
  Ne1      1.0000 0.57788  0.55684  0.82389  Biso   1.000  Ne
  He1      1.0000 0.55314  0.47438  0.87634  Biso   1.000  He
  He2      1.0000 0.55370  0.63377  0.64445  Biso   1.000  He
  Ar1      1.0000 0.55666  0.51033  0.86884  Biso   1.000  Ar
  Ne2      1.0000 0.42211  0.05684  0.17611  Biso   1.000  Ne
  He3      1.0000 0.42807  0.09405  0.23891  Biso   1.000  He
  He4      1.0000 0.48553  0.90527  0.78010  Biso   1.000  He
  Ar2      1.0000 0.46581  0.92481  0.03207  Biso   1.000  Ar
