data_image0
_cell_length_a       14.337
_cell_length_b       37.402
_cell_length_c       9.446
_cell_angle_alpha    90
_cell_angle_beta     90
_cell_angle_gamma    90

_symmetry_space_group_name_H-M    "P 1"
_symmetry_int_tables_number       1

loop_
  _symmetry_equiv_pos_as_xyz
  'x, y, z'

loop_
  _atom_site_label
  _atom_site_occupancy
  _atom_site_fract_x
  _atom_site_fract_y
  _atom_site_fract_z
  _atom_site_thermal_displace_type
  _atom_site_B_iso_or_equiv
  _atom_site_type_symbol
  O1       1.0000 0.57369  0.48989  0.53367  Biso   1.000  O
  C1       1.0000 0.52438  0.47500  0.41912  Biso   1.000  C
  C2       1.0000 0.53840  0.43409  0.42261  Biso   1.000  C
  C3       1.0000 0.41620  0.48289  0.43193  Biso   1.000  C
  O2       1.0000 0.50750  0.42220  0.55939  Biso   1.000  O
  O3       1.0000 0.48281  0.41661  0.31717  Biso   1.000  O
  C4       1.0000 0.36249  0.46209  0.32405  Biso   1.000  C
  O4       1.0000 0.40608  0.52040  0.40822  Biso   1.000  O
  C5       1.0000 0.57439  0.40140  0.64514  Biso   1.000  C
  C6       1.0000 0.38411  0.42230  0.33337  Biso   1.000  C
  O5       1.0000 0.26693  0.46621  0.36661  Biso   1.000  O
  C7       1.0000 0.54670  0.41011  0.79642  Biso   1.000  C
  C8       1.0000 0.56288  0.36161  0.60978  Biso   1.000  C
  C9       1.0000 0.34108  0.40051  0.21078  Biso   1.000  C
  C10      1.0000 0.20751  0.48650  0.27228  Biso   1.000  C
  C11      1.0000 0.60159  0.38650  0.90165  Biso   1.000  C
  O6       1.0000 0.57348  0.44770  0.82035  Biso   1.000  O
  O7       1.0000 0.61659  0.34161  0.71406  Biso   1.000  O
  C12      1.0000 0.59831  0.34921  0.46782  Biso   1.000  C
  O8       1.0000 0.37707  0.41150  0.07506  Biso   1.000  O
  C13      1.0000 0.14389  0.50880  0.36132  Biso   1.000  C
  O9       1.0000 0.15129  0.46059  0.19193  Biso   1.000  O
  C14      1.0000 0.58387  0.34629  0.85782  Biso   1.000  C
  O10      1.0000 0.56400  0.39140  0.03822  Biso   1.000  O
  O11      1.0000 0.69868  0.36490  0.45554  Biso   1.000  O
  C15      1.0000 0.08321  0.48599  0.45660  Biso   1.000  C
  O12      1.0000 0.20451  0.53230  0.44114  Biso   1.000  O
  C16      1.0000 0.09842  0.43669  0.27514  Biso   1.000  C
  O13      1.0000 0.48957  0.33921  0.86513  Biso   1.000  O
  C17      1.0000 0.02950  0.45709  0.37275  Biso   1.000  C
  O14      1.0000 0.01423  0.50861  0.52562  Biso   1.000  O
  C18      1.0000 0.04631  0.41271  0.16769  Biso   1.000  C
  C19      1.0000 0.46007  0.30619  0.92484  Biso   1.000  C
  O15      1.0000 0.99930  0.43260  0.48126  Biso   1.000  O
  O16      1.0000 0.98410  0.43490  0.07813  Biso   1.000  O
  C20      1.0000 0.40071  0.28629  0.81304  Biso   1.000  C
  C21      1.0000 0.40259  0.31589  0.05812  Biso   1.000  C
  C22      1.0000 0.90228  0.42201  0.47756  Biso   1.000  C
  O17      1.0000 0.35147  0.25731  0.87878  Biso   1.000  O
  C23      1.0000 0.45560  0.27151  0.68738  Biso   1.000  C
  C24      1.0000 0.35070  0.28359  0.11328  Biso   1.000  C
  O18      1.0000 0.46858  0.32699  0.16473  Biso   1.000  O
  C25      1.0000 0.86741  0.42570  0.63064  Biso   1.000  C
  O19      1.0000 0.89649  0.38600  0.43659  Biso   1.000  O
  C26      1.0000 0.29009  0.26790  0.99121  Biso   1.000  C
  O20      1.0000 0.54537  0.25469  0.73788  Biso   1.000  O
  O21      1.0000 0.29058  0.29461  0.22390  Biso   1.000  O
  C27      1.0000 0.92223  0.40209  0.73269  Biso   1.000  C
  O22      1.0000 0.87822  0.46289  0.66801  Biso   1.000  O
  C28      1.0000 0.94929  0.36049  0.52393  Biso   1.000  C
  O23      1.0000 0.22899  0.29421  0.94230  Biso   1.000  O
  C29      1.0000 0.91609  0.36300  0.67690  Biso   1.000  C
  O24      1.0000 0.87829  0.40161  0.87000  Biso   1.000  O
  C30      1.0000 0.93723  0.32381  0.45257  Biso   1.000  C
  C31      1.0000 0.13190  0.28579  0.93278  Biso   1.000  C
  O25      1.0000 0.98333  0.34300  0.76180  Biso   1.000  O
  O26      1.0000 0.84188  0.31300  0.47078  Biso   1.000  O
  C32      1.0000 0.10811  0.28490  0.77123  Biso   1.000  C
  C33      1.0000 0.08230  0.31691  0.00476  Biso   1.000  C
  C34      1.0000 0.95390  0.31060  0.82299  Biso   1.000  C
  C35      1.0000 0.14668  0.25170  0.69627  Biso   1.000  C
  O27      1.0000 0.00537  0.28079  0.75831  Biso   1.000  O
  C36      1.0000 0.97468  0.30180  0.97809  Biso   1.000  C
  O28      1.0000 0.09877  0.31450  0.15657  Biso   1.000  O
  O29      1.0000 0.13050  0.22010  0.77218  Biso   1.000  O
  O30      1.0000 0.92181  0.33990  0.04171  Biso   1.000  O
  O31      1.0000 0.62182  0.53711  0.16801  Biso   1.000  O
  C37      1.0000 0.63263  0.57430  0.13064  Biso   1.000  C
  C38      1.0000 0.59768  0.57799  0.97756  Biso   1.000  C
  C39      1.0000 0.57781  0.59791  0.23269  Biso   1.000  C
  O32      1.0000 0.50073  0.56740  0.98126  Biso   1.000  O
  O33      1.0000 0.60347  0.61400  0.93659  Biso   1.000  O
  C40      1.0000 0.58387  0.63700  0.17690  Biso   1.000  C
  O34      1.0000 0.62168  0.59839  0.37000  Biso   1.000  O
  C41      1.0000 0.47053  0.54291  0.87275  Biso   1.000  C
  C42      1.0000 0.55067  0.63951  0.02393  Biso   1.000  C
  O35      1.0000 0.51671  0.65700  0.26180  Biso   1.000  O
  C43      1.0000 0.41682  0.51401  0.95660  Biso   1.000  C
  C44      1.0000 0.40162  0.56331  0.77514  Biso   1.000  C
  C45      1.0000 0.56281  0.67619  0.95257  Biso   1.000  C
  C46      1.0000 0.54607  0.68940  0.32299  Biso   1.000  C
  O36      1.0000 0.48581  0.49139  0.02562  Biso   1.000  O
  C47      1.0000 0.35607  0.49120  0.86132  Biso   1.000  C
  O37      1.0000 0.34868  0.53941  0.69193  Biso   1.000  O
  C48      1.0000 0.45372  0.58729  0.66769  Biso   1.000  C
  O38      1.0000 0.65809  0.68700  0.97078  Biso   1.000  O
  C49      1.0000 0.52528  0.69820  0.47809  Biso   1.000  C
  O39      1.0000 0.49459  0.71921  0.25831  Biso   1.000  O
  C50      1.0000 0.29253  0.51350  0.77228  Biso   1.000  C
  O40      1.0000 0.29553  0.46770  0.94114  Biso   1.000  O
  O41      1.0000 0.51587  0.56510  0.57813  Biso   1.000  O
  C51      1.0000 0.41773  0.68309  0.50476  Biso   1.000  C
  O42      1.0000 0.57822  0.66010  0.54171  Biso   1.000  O
  C52      1.0000 0.39192  0.71510  0.27123  Biso   1.000  C
  O43      1.0000 0.23310  0.53379  0.86661  Biso   1.000  O
  O44      1.0000 0.40120  0.68550  0.65657  Biso   1.000  O
  C53      1.0000 0.36807  0.71421  0.43278  Biso   1.000  C
  C54      1.0000 0.35328  0.74830  0.19627  Biso   1.000  C
  C55      1.0000 0.13748  0.53791  0.82405  Biso   1.000  C
  O45      1.0000 0.27098  0.70579  0.44230  Biso   1.000  O
  O46      1.0000 0.36953  0.77990  0.27218  Biso   1.000  O
  C56      1.0000 0.08377  0.51711  0.93193  Biso   1.000  C
  C57      1.0000 0.11592  0.57770  0.83337  Biso   1.000  C
  C58      1.0000 0.20988  0.73210  0.49121  Biso   1.000  C
  C59      1.0000 0.97559  0.52500  0.91912  Biso   1.000  C
  O47      1.0000 0.09388  0.47960  0.90822  Biso   1.000  O
  C60      1.0000 0.15889  0.59949  0.71078  Biso   1.000  C
  O48      1.0000 0.01723  0.58339  0.81717  Biso   1.000  O
  C61      1.0000 0.14933  0.71641  0.61328  Biso   1.000  C
  O49      1.0000 0.14850  0.74269  0.37878  Biso   1.000  O
  C62      1.0000 0.96157  0.56591  0.92261  Biso   1.000  C
  O50      1.0000 0.92627  0.51011  0.03367  Biso   1.000  O
  O51      1.0000 0.12290  0.58850  0.57506  Biso   1.000  O
  C63      1.0000 0.09737  0.68411  0.55812  Biso   1.000  C
  O52      1.0000 0.20939  0.70539  0.72390  Biso   1.000  O
  C64      1.0000 0.09932  0.71371  0.31304  Biso   1.000  C
  O53      1.0000 0.99247  0.57780  0.05939  Biso   1.000  O
  C65      1.0000 0.03990  0.69381  0.42484  Biso   1.000  C
  O54      1.0000 0.03139  0.67301  0.66473  Biso   1.000  O
  C66      1.0000 0.04443  0.72849  0.18738  Biso   1.000  C
  C67      1.0000 0.92558  0.59860  0.14514  Biso   1.000  C
  O55      1.0000 0.01039  0.66079  0.36513  Biso   1.000  O
  O56      1.0000 0.95459  0.74531  0.23788  Biso   1.000  O
  C68      1.0000 0.95327  0.58989  0.29642  Biso   1.000  C
  C69      1.0000 0.93709  0.63839  0.10978  Biso   1.000  C
  C70      1.0000 0.91609  0.65371  0.35782  Biso   1.000  C
  C71      1.0000 0.89837  0.61350  0.40165  Biso   1.000  C
  O57      1.0000 0.92648  0.55230  0.32035  Biso   1.000  O
  C72      1.0000 0.90172  0.65079  0.96782  Biso   1.000  C
  O58      1.0000 0.88338  0.65839  0.21406  Biso   1.000  O
  O59      1.0000 0.93597  0.60860  0.53822  Biso   1.000  O
  O60      1.0000 0.80128  0.63510  0.95554  Biso   1.000  O
  O61      1.0000 0.63047  0.27990  0.22782  Biso   1.000  O
  C73      1.0000 0.64672  0.24830  0.30373  Biso   1.000  C
  C74      1.0000 0.60808  0.21510  0.22877  Biso   1.000  C
  O62      1.0000 0.50541  0.21921  0.24169  Biso   1.000  O
  C75      1.0000 0.63193  0.21421  0.06722  Biso   1.000  C
  C76      1.0000 0.45393  0.18940  0.17701  Biso   1.000  C
  C77      1.0000 0.58227  0.18309  0.99524  Biso   1.000  C
  O63      1.0000 0.72902  0.20579  0.05770  Biso   1.000  O
  C78      1.0000 0.47472  0.19820  0.02191  Biso   1.000  C
  O64      1.0000 0.48329  0.15700  0.23820  Biso   1.000  O
  O65      1.0000 0.59880  0.18550  0.84343  Biso   1.000  O
  C79      1.0000 0.79012  0.23210  0.00879  Biso   1.000  C
  O66      1.0000 0.42178  0.16010  0.95829  Biso   1.000  O
  C80      1.0000 0.41613  0.13700  0.32310  Biso   1.000  C
  O67      1.0000 0.85150  0.24269  0.12122  Biso   1.000  O
  C81      1.0000 0.85067  0.21641  0.88672  Biso   1.000  C
  C82      1.0000 0.42219  0.09791  0.26731  Biso   1.000  C
  C83      1.0000 0.44933  0.13951  0.47607  Biso   1.000  C
  C84      1.0000 0.90068  0.21371  0.18696  Biso   1.000  C
  C85      1.0000 0.90263  0.18411  0.94188  Biso   1.000  C
  O68      1.0000 0.79061  0.20539  0.77610  Biso   1.000  O
  C86      1.0000 0.36737  0.07430  0.36936  Biso   1.000  C
  O69      1.0000 0.37832  0.09839  0.13000  Biso   1.000  O
  C87      1.0000 0.43719  0.17619  0.54743  Biso   1.000  C
  O70      1.0000 0.39653  0.11400  0.56341  Biso   1.000  O
  C88      1.0000 0.96010  0.19381  0.07516  Biso   1.000  C
  C89      1.0000 0.95557  0.22849  0.31262  Biso   1.000  C
  O71      1.0000 0.96861  0.17301  0.83527  Biso   1.000  O
  C90      1.0000 0.40232  0.07799  0.52244  Biso   1.000  C
  O72      1.0000 0.37818  0.03711  0.33199  Biso   1.000  O
  O73      1.0000 0.34191  0.18700  0.52922  Biso   1.000  O
  O74      1.0000 0.98961  0.16079  0.13487  Biso   1.000  O
  O75      1.0000 0.04541  0.24531  0.26212  Biso   1.000  O
  O76      1.0000 0.49927  0.06740  0.51874  Biso   1.000  O
  C91      1.0000 0.08391  0.15371  0.14218  Biso   1.000  C
  C92      1.0000 0.52947  0.04291  0.62725  Biso   1.000  C
  C93      1.0000 0.10163  0.11350  0.09835  Biso   1.000  C
  O77      1.0000 0.11662  0.15839  0.28594  Biso   1.000  O
  C94      1.0000 0.58318  0.01401  0.54340  Biso   1.000  C
  C95      1.0000 0.59838  0.06331  0.72486  Biso   1.000  C
  O78      1.0000 0.06403  0.10860  0.96178  Biso   1.000  O
  C96      1.0000 0.04673  0.08989  0.20358  Biso   1.000  C
  C97      1.0000 0.06291  0.13839  0.39022  Biso   1.000  C
  C98      1.0000 0.64393  0.99120  0.63868  Biso   1.000  C
  O79      1.0000 0.51419  0.99139  0.47438  Biso   1.000  O
  C99      1.0000 0.54628  0.08729  0.83231  Biso   1.000  C
  O80      1.0000 0.65132  0.03941  0.80807  Biso   1.000  O
  C100     1.0000 0.07442  0.09860  0.35486  Biso   1.000  C
  O81      1.0000 0.07352  0.05230  0.17965  Biso   1.000  O
  C101     1.0000 0.09828  0.15079  0.53218  Biso   1.000  C
  C102     1.0000 0.70747  0.01350  0.72772  Biso   1.000  C
  O82      1.0000 0.70447  0.96770  0.55886  Biso   1.000  O
  O83      1.0000 0.48413  0.06510  0.92187  Biso   1.000  O
  O84      1.0000 0.00753  0.07780  0.44061  Biso   1.000  O
  O85      1.0000 0.19872  0.13510  0.54446  Biso   1.000  O
  O86      1.0000 0.76690  0.03379  0.63339  Biso   1.000  O
  C103     1.0000 0.03843  0.06591  0.57739  Biso   1.000  C
  C104     1.0000 0.86252  0.03791  0.67595  Biso   1.000  C
  C105     1.0000 0.02441  0.02500  0.58088  Biso   1.000  C
  O87      1.0000 0.98277  0.08339  0.68283  Biso   1.000  O
  C106     1.0000 0.91623  0.01711  0.56807  Biso   1.000  C
  C107     1.0000 0.88408  0.07770  0.66663  Biso   1.000  C
  O88      1.0000 0.07373  0.01011  0.46633  Biso   1.000  O
  O89      1.0000 0.90612  0.97960  0.59178  Biso   1.000  O
  C108     1.0000 0.84111  0.09949  0.78922  Biso   1.000  C
  O90      1.0000 0.87710  0.08850  0.92494  Biso   1.000  O
  O91      1.0000 0.45463  0.75469  0.76212  Biso   1.000  O
  C109     1.0000 0.54440  0.77151  0.81262  Biso   1.000  C
  C110     1.0000 0.59929  0.78629  0.68696  Biso   1.000  C
  C111     1.0000 0.53993  0.80619  0.57516  Biso   1.000  C
  O92      1.0000 0.64853  0.75731  0.62122  Biso   1.000  O
  C112     1.0000 0.59741  0.81589  0.44188  Biso   1.000  C
  O93      1.0000 0.51043  0.83921  0.63487  Biso   1.000  O
  C113     1.0000 0.70991  0.76790  0.50879  Biso   1.000  C
  C114     1.0000 0.64930  0.78359  0.38672  Biso   1.000  C
  O94      1.0000 0.53142  0.82699  0.33527  Biso   1.000  O
  C115     1.0000 0.41613  0.84629  0.64218  Biso   1.000  C
  O95      1.0000 0.77101  0.79421  0.55770  Biso   1.000  O
  O96      1.0000 0.70942  0.79461  0.27610  Biso   1.000  O
  C116     1.0000 0.39841  0.88650  0.59835  Biso   1.000  C
  O97      1.0000 0.38341  0.84161  0.78594  Biso   1.000  O
  C117     1.0000 0.86810  0.78579  0.56722  Biso   1.000  C
  C118     1.0000 0.45330  0.91011  0.70358  Biso   1.000  C
  O98      1.0000 0.43600  0.89140  0.46178  Biso   1.000  O
  C119     1.0000 0.43712  0.86161  0.89022  Biso   1.000  C
  C120     1.0000 0.91770  0.81691  0.49524  Biso   1.000  C
  C121     1.0000 0.89189  0.78490  0.72877  Biso   1.000  C
  C122     1.0000 0.42561  0.90140  0.85486  Biso   1.000  C
  O99      1.0000 0.42652  0.94770  0.67965  Biso   1.000  O
  C123     1.0000 0.40169  0.84921  0.03218  Biso   1.000  C
  O100     1.0000 0.90123  0.81450  0.34343  Biso   1.000  O
  C124     1.0000 0.02532  0.80180  0.52191  Biso   1.000  C
  C125     1.0000 0.85332  0.75170  0.80373  Biso   1.000  C
  O101     1.0000 0.99463  0.78079  0.74169  Biso   1.000  O
  O102     1.0000 0.49250  0.92220  0.94061  Biso   1.000  O
  O103     1.0000 0.30132  0.86490  0.04446  Biso   1.000  O
  C126     1.0000 0.04610  0.81060  0.67701  Biso   1.000  C
  O104     1.0000 0.07819  0.83990  0.45829  Biso   1.000  O
  O105     1.0000 0.86950  0.72010  0.72782  Biso   1.000  O
  C127     1.0000 0.46160  0.93409  0.07739  Biso   1.000  C
  O106     1.0000 0.01667  0.84300  0.73820  Biso   1.000  O
  C128     1.0000 0.47562  0.97500  0.08088  Biso   1.000  C
  O107     1.0000 0.51719  0.91661  0.18283  Biso   1.000  O
  C129     1.0000 0.08391  0.86300  0.82310  Biso   1.000  C
  O108     1.0000 0.42631  0.98989  0.96633  Biso   1.000  O
  C130     1.0000 0.58380  0.98289  0.06807  Biso   1.000  C
  C131     1.0000 0.61589  0.92230  0.16663  Biso   1.000  C
  C132     1.0000 0.07777  0.90209  0.76731  Biso   1.000  C
  C133     1.0000 0.05071  0.86049  0.97607  Biso   1.000  C
  C134     1.0000 0.63751  0.96209  0.17595  Biso   1.000  C
  O109     1.0000 0.59392  0.02040  0.09178  Biso   1.000  O
  C135     1.0000 0.65892  0.90051  0.28922  Biso   1.000  C
  C136     1.0000 0.13259  0.92570  0.86936  Biso   1.000  C
  O110     1.0000 0.12171  0.90161  0.63000  Biso   1.000  O
  C137     1.0000 0.06277  0.82381  0.04743  Biso   1.000  C
  O111     1.0000 0.10351  0.88600  0.06341  Biso   1.000  O
  O112     1.0000 0.73307  0.96621  0.13339  Biso   1.000  O
  O113     1.0000 0.62293  0.91150  0.42494  Biso   1.000  O
  O114     1.0000 0.12178  0.96289  0.83199  Biso   1.000  O
  C138     1.0000 0.09772  0.92201  0.02244  Biso   1.000  C
  O115     1.0000 0.15812  0.81300  0.02922  Biso   1.000  O
  C139     1.0000 0.79249  0.98650  0.22772  Biso   1.000  C
  O116     1.0000 0.00070  0.93260  0.01874  Biso   1.000  O
  O117     1.0000 0.84871  0.96059  0.30807  Biso   1.000  O
  C140     1.0000 0.85611  0.00880  0.13868  Biso   1.000  C
  C141     1.0000 0.97050  0.95709  0.12725  Biso   1.000  C
  C142     1.0000 0.90158  0.93669  0.22486  Biso   1.000  C
  C143     1.0000 0.91679  0.98599  0.04340  Biso   1.000  C
  O118     1.0000 0.79549  0.03230  0.05886  Biso   1.000  O
  C144     1.0000 0.95369  0.91271  0.33231  Biso   1.000  C
  O119     1.0000 0.98577  0.00861  0.97438  Biso   1.000  O
  O120     1.0000 0.01590  0.93490  0.42187  Biso   1.000  O
  Ne1      1.0000 0.74739  0.12114  0.35587  Biso   1.000  Ne
  He1      1.0000 0.77419  0.18409  0.56752  Biso   1.000  He
  He2      1.0000 0.72443  0.06561  0.06480  Biso   1.000  He
  Ar1      1.0000 0.72682  0.06271  0.12450  Biso   1.000  Ar
  Ne2      1.0000 0.24738  0.37886  0.64413  Biso   1.000  Ne
  He3      1.0000 0.22660  0.43989  0.87555  Biso   1.000  He
  He4      1.0000 0.26807  0.34484  0.54108  Biso   1.000  He
  Ar2      1.0000 0.22682  0.43730  0.87554  Biso   1.000  Ar
  Ne3      1.0000 0.25261  0.62114  0.14413  Biso   1.000  Ne
  He5      1.0000 0.23704  0.52653  0.37838  Biso   1.000  He
  He6      1.0000 0.22983  0.67354  0.97946  Biso   1.000  He
  Ar3      1.0000 0.27318  0.56271  0.37550  Biso   1.000  Ar
  Ne4      1.0000 0.75262  0.87886  0.85587  Biso   1.000  Ne
  He7      1.0000 0.72958  0.82598  0.02268  Biso   1.000  He
  He8      1.0000 0.77790  0.94156  0.52642  Biso   1.000  He
  Ar4      1.0000 0.77318  0.93730  0.62446  Biso   1.000  Ar
