data_image0
_cell_length_a       27.771
_cell_length_b       13.458
_cell_length_c       21.852
_cell_angle_alpha    90
_cell_angle_beta     101.2
_cell_angle_gamma    90

_symmetry_space_group_name_H-M    "P 1"
_symmetry_int_tables_number       1

loop_
  _symmetry_equiv_pos_as_xyz
  'x, y, z'

loop_
  _atom_site_label
  _atom_site_occupancy
  _atom_site_fract_x
  _atom_site_fract_y
  _atom_site_fract_z
  _atom_site_thermal_displace_type
  _atom_site_B_iso_or_equiv
  _atom_site_type_symbol
  C1       1.0000 0.56311  0.50424  0.48041  Biso   1.000  C
  N1       1.0000 0.55184  0.40437  0.47052  Biso   1.000  N
  N2       1.0000 0.56271  0.54406  0.42340  Biso   1.000  N
  O1       1.0000 0.57011  0.54681  0.53000  Biso   1.000  O
  C2       1.0000 0.53669  0.38111  0.40558  Biso   1.000  C
  C3       1.0000 0.53662  0.34559  0.51890  Biso   1.000  C
  C4       1.0000 0.55032  0.47570  0.37321  Biso   1.000  C
  C5       1.0000 0.57193  0.64980  0.41491  Biso   1.000  C
  N3       1.0000 0.56507  0.30480  0.38179  Biso   1.000  N
  H1       1.0000 0.50070  0.36722  0.39462  Biso   1.000  H
  N4       1.0000 0.56901  0.26423  0.54092  Biso   1.000  N
  H2       1.0000 0.50332  0.31892  0.50271  Biso   1.000  H
  H3       1.0000 0.53440  0.38951  0.55459  Biso   1.000  H
  N5       1.0000 0.59199  0.44219  0.34470  Biso   1.000  N
  H4       1.0000 0.52231  0.50022  0.34092  Biso   1.000  H
  N6       1.0000 0.62108  0.67350  0.40810  Biso   1.000  N
  H5       1.0000 0.56460  0.68673  0.45130  Biso   1.000  H
  H6       1.0000 0.54882  0.67358  0.37750  Biso   1.000  H
  C6       1.0000 0.59661  0.34121  0.34741  Biso   1.000  C
  C7       1.0000 0.56030  0.20077  0.39299  Biso   1.000  C
  C8       1.0000 0.56583  0.17008  0.50882  Biso   1.000  C
  C9       1.0000 0.59791  0.26118  0.59951  Biso   1.000  C
  C10      1.0000 0.61141  0.50126  0.30071  Biso   1.000  C
  C11      1.0000 0.63702  0.66793  0.34862  Biso   1.000  C
  C12      1.0000 0.65511  0.72009  0.45261  Biso   1.000  C
  O2       1.0000 0.62442  0.29299  0.32180  Biso   1.000  O
  N7       1.0000 0.58716  0.16852  0.45401  Biso   1.000  N
  H7       1.0000 0.52512  0.18472  0.38972  Biso   1.000  H
  H8       1.0000 0.57250  0.16303  0.36019  Biso   1.000  H
  C13      1.0000 0.60071  0.10299  0.55561  Biso   1.000  C
  H9       1.0000 0.53151  0.14378  0.50010  Biso   1.000  H
  N8       1.0000 0.61623  0.16540  0.60842  Biso   1.000  N
  O3       1.0000 0.60505  0.32813  0.63632  Biso   1.000  O
  N9       1.0000 0.64896  0.56970  0.33038  Biso   1.000  N
  H10      1.0000 0.62542  0.45690  0.27249  Biso   1.000  H
  H11      1.0000 0.58442  0.53953  0.27491  Biso   1.000  H
  C14      1.0000 0.68802  0.72180  0.36168  Biso   1.000  C
  H12      1.0000 0.61322  0.70166  0.31471  Biso   1.000  H
  N10      1.0000 0.69583  0.73926  0.42830  Biso   1.000  N
  O4       1.0000 0.64945  0.74149  0.50579  Biso   1.000  O
  C15      1.0000 0.62843  0.11198  0.46110  Biso   1.000  C
  N11      1.0000 0.63846  0.07891  0.52062  Biso   1.000  N
  H13      1.0000 0.58361  0.04213  0.56671  Biso   1.000  H
  C16      1.0000 0.64340  0.13122  0.66720  Biso   1.000  C
  C17      1.0000 0.69719  0.56294  0.32058  Biso   1.000  C
  N12      1.0000 0.71966  0.65099  0.34130  Biso   1.000  N
  H14      1.0000 0.68702  0.78548  0.33789  Biso   1.000  H
  C18      1.0000 0.73121  0.81312  0.45811  Biso   1.000  C
  O5       1.0000 0.65232  0.09392  0.41948  Biso   1.000  O
  C19      1.0000 0.67291  0.99614  0.53961  Biso   1.000  C
  N13      1.0000 0.69592  0.12357  0.66851  Biso   1.000  N
  H15      1.0000 0.63793  0.17752  0.70042  Biso   1.000  H
  H16      1.0000 0.63081  0.06509  0.67648  Biso   1.000  H
  O6       1.0000 0.71468  0.49413  0.29810  Biso   1.000  O
  C20      1.0000 0.76841  0.67618  0.33159  Biso   1.000  C
  N14      1.0000 0.78078  0.77671  0.47262  Biso   1.000  N
  H17      1.0000 0.72161  0.83579  0.49711  Biso   1.000  H
  H18      1.0000 0.72992  0.87130  0.43012  Biso   1.000  H
  N15      1.0000 0.71620  0.02378  0.58421  Biso   1.000  N
  H19      1.0000 0.68311  0.96872  0.50201  Biso   1.000  H
  H20      1.0000 0.65563  0.94271  0.55780  Biso   1.000  H
  C21      1.0000 0.71801  0.03522  0.65069  Biso   1.000  C
  C22      1.0000 0.72861  0.18168  0.70802  Biso   1.000  C
  N16      1.0000 0.80480  0.68220  0.38809  Biso   1.000  N
  H21      1.0000 0.76689  0.74097  0.30990  Biso   1.000  H
  H22      1.0000 0.77892  0.62558  0.30402  Biso   1.000  H
  C23      1.0000 0.81210  0.76750  0.42709  Biso   1.000  C
  C24      1.0000 0.80761  0.77381  0.53299  Biso   1.000  C
  C25      1.0000 0.76102  0.03641  0.56741  Biso   1.000  C
  C26      1.0000 0.77351  0.05179  0.67672  Biso   1.000  C
  H23      1.0000 0.70551  0.97474  0.66902  Biso   1.000  H
  N17      1.0000 0.77426  0.14281  0.71082  Biso   1.000  N
  O7       1.0000 0.71942  0.25591  0.73629  Biso   1.000  O
  C27      1.0000 0.84421  0.61770  0.40068  Biso   1.000  C
  H24      1.0000 0.81101  0.82940  0.40162  Biso   1.000  H
  C28      1.0000 0.86433  0.75160  0.46749  Biso   1.000  C
  N18      1.0000 0.85461  0.75732  0.53070  Biso   1.000  N
  O8       1.0000 0.78959  0.78466  0.58071  Biso   1.000  O
  N19      1.0000 0.79462  0.05803  0.62092  Biso   1.000  N
  O9       1.0000 0.76961  0.02660  0.51549  Biso   1.000  O
  H25      1.0000 0.78803  0.99576  0.70429  Biso   1.000  H
  C29      1.0000 0.81623  0.17989  0.75308  Biso   1.000  C
  N20      1.0000 0.87829  0.65708  0.44789  Biso   1.000  N
  O10      1.0000 0.84832  0.54154  0.37218  Biso   1.000  O
  H26      1.0000 0.88762  0.80480  0.45970  Biso   1.000  H
  C30      1.0000 0.89292  0.74491  0.58598  Biso   1.000  C
  C31      1.0000 0.84693  0.05239  0.62130  Biso   1.000  C
  N21      1.0000 0.85044  0.23339  0.72272  Biso   1.000  N
  H27      1.0000 0.80502  0.22477  0.78341  Biso   1.000  H
  H28      1.0000 0.83360  0.12350  0.77678  Biso   1.000  H
  C32      1.0000 0.92861  0.61770  0.46282  Biso   1.000  C
  N22      1.0000 0.90655  0.64289  0.59932  Biso   1.000  N
  H29      1.0000 0.88152  0.77359  0.62242  Biso   1.000  H
  H30      1.0000 0.92242  0.78258  0.58020  Biso   1.000  H
  N23      1.0000 0.87197  0.14608  0.63343  Biso   1.000  N
  H31      1.0000 0.85173  0.02712  0.58038  Biso   1.000  H
  H32      1.0000 0.86200  0.00401  0.65349  Biso   1.000  H
  C33      1.0000 0.88802  0.18591  0.69528  Biso   1.000  C
  C34      1.0000 0.85862  0.33348  0.72939  Biso   1.000  C
  N24      1.0000 0.93905  0.55588  0.51768  Biso   1.000  N
  H33      1.0000 0.95182  0.67439  0.46861  Biso   1.000  H
  H34      1.0000 0.93483  0.57869  0.42672  Biso   1.000  H
  C35      1.0000 0.94871  0.59600  0.58020  Biso   1.000  C
  C36      1.0000 0.89252  0.59192  0.64700  Biso   1.000  C
  C37      1.0000 0.89592  0.18881  0.59079  Biso   1.000  C
  H35      1.0000 0.90602  0.13449  0.72402  Biso   1.000  H
  C38      1.0000 0.92261  0.27181  0.68530  Biso   1.000  C
  N25      1.0000 0.89839  0.35800  0.70499  Biso   1.000  N
  O11      1.0000 0.83268  0.39099  0.75332  Biso   1.000  O
  C39      1.0000 0.93827  0.45623  0.51661  Biso   1.000  C
  H36      1.0000 0.97802  0.64059  0.58752  Biso   1.000  H
  C40      1.0000 0.95743  0.50141  0.62172  Biso   1.000  C
  N26      1.0000 0.92236  0.51167  0.66202  Biso   1.000  N
  O12      1.0000 0.85807  0.61547  0.67182  Biso   1.000  O
  N27      1.0000 0.92254  0.26780  0.61892  Biso   1.000  N
  O13      1.0000 0.89459  0.16132  0.53709  Biso   1.000  O
  H37      1.0000 0.95643  0.26282  0.71082  Biso   1.000  H
  C41      1.0000 0.92303  0.45252  0.71679  Biso   1.000  C
  N28      1.0000 0.94814  0.42153  0.57600  Biso   1.000  N
  O14      1.0000 0.93146  0.40400  0.46921  Biso   1.000  O
  H38      1.0000 0.99182  0.49881  0.64621  Biso   1.000  H
  C42      1.0000 0.95880  0.31899  0.59111  Biso   1.000  C
  H39      1.0000 0.95753  0.44041  0.73708  Biso   1.000  H
  H40      1.0000 0.90734  0.49071  0.74632  Biso   1.000  H
  H41      1.0000 0.96230  0.28347  0.55249  Biso   1.000  H
  H42      1.0000 0.99092  0.31520  0.62032  Biso   1.000  H
  C43      1.0000 0.43691  0.49576  0.51960  Biso   1.000  C
  N29      1.0000 0.43730  0.45594  0.57660  Biso   1.000  N
  N30      1.0000 0.44818  0.59563  0.52949  Biso   1.000  N
  O15      1.0000 0.42994  0.45319  0.47001  Biso   1.000  O
  C44      1.0000 0.42812  0.35020  0.58510  Biso   1.000  C
  C45      1.0000 0.44973  0.52430  0.62680  Biso   1.000  C
  C46      1.0000 0.46332  0.61889  0.59443  Biso   1.000  C
  C47      1.0000 0.46340  0.65441  0.48111  Biso   1.000  C
  N31      1.0000 0.37893  0.32650  0.59191  Biso   1.000  N
  H43      1.0000 0.43542  0.31327  0.54871  Biso   1.000  H
  H44      1.0000 0.45123  0.32642  0.62251  Biso   1.000  H
  N32      1.0000 0.40803  0.55781  0.65530  Biso   1.000  N
  H45      1.0000 0.47771  0.49978  0.65908  Biso   1.000  H
  N33      1.0000 0.43495  0.69520  0.61822  Biso   1.000  N
  H46      1.0000 0.49932  0.63278  0.60539  Biso   1.000  H
  N34      1.0000 0.43101  0.73577  0.45909  Biso   1.000  N
  H47      1.0000 0.49670  0.68108  0.49730  Biso   1.000  H
  H48      1.0000 0.46561  0.61049  0.44542  Biso   1.000  H
  C48      1.0000 0.34491  0.27991  0.54740  Biso   1.000  C
  C49      1.0000 0.36303  0.33207  0.65139  Biso   1.000  C
  C50      1.0000 0.38861  0.49874  0.69930  Biso   1.000  C
  C51      1.0000 0.40340  0.65879  0.65260  Biso   1.000  C
  C52      1.0000 0.43972  0.79923  0.60702  Biso   1.000  C
  C53      1.0000 0.43422  0.82992  0.49119  Biso   1.000  C
  C54      1.0000 0.40211  0.73882  0.40050  Biso   1.000  C
  N35      1.0000 0.30422  0.26074  0.57171  Biso   1.000  N
  O16      1.0000 0.35057  0.25851  0.49422  Biso   1.000  O
  C55      1.0000 0.31199  0.27820  0.63832  Biso   1.000  C
  N36      1.0000 0.35106  0.43030  0.66963  Biso   1.000  N
  H49      1.0000 0.38683  0.29834  0.68530  Biso   1.000  H
  H50      1.0000 0.37463  0.54310  0.72752  Biso   1.000  H
  H51      1.0000 0.41563  0.46047  0.72509  Biso   1.000  H
  O17      1.0000 0.37559  0.70701  0.67821  Biso   1.000  O
  N37      1.0000 0.41286  0.83148  0.54600  Biso   1.000  N
  H52      1.0000 0.47493  0.81528  0.61029  Biso   1.000  H
  H53      1.0000 0.42752  0.83697  0.63982  Biso   1.000  H
  C56      1.0000 0.39931  0.89701  0.44440  Biso   1.000  C
  H54      1.0000 0.46850  0.85622  0.49991  Biso   1.000  H
  N38      1.0000 0.38382  0.83460  0.39159  Biso   1.000  N
  O18      1.0000 0.39497  0.67187  0.36369  Biso   1.000  O
  C57      1.0000 0.26881  0.18688  0.54190  Biso   1.000  C
  N39      1.0000 0.28036  0.34901  0.65871  Biso   1.000  N
  H55      1.0000 0.31303  0.21452  0.66212  Biso   1.000  H
  C58      1.0000 0.30282  0.43706  0.67942  Biso   1.000  C
  C59      1.0000 0.37162  0.88802  0.53891  Biso   1.000  C
  N40      1.0000 0.36155  0.92109  0.47938  Biso   1.000  N
  H56      1.0000 0.41641  0.95787  0.43329  Biso   1.000  H
  C60      1.0000 0.35662  0.86878  0.33281  Biso   1.000  C
  N41      1.0000 0.21924  0.22329  0.52739  Biso   1.000  N
  H57      1.0000 0.27840  0.16421  0.50290  Biso   1.000  H
  H58      1.0000 0.27010  0.12870  0.56989  Biso   1.000  H
  C61      1.0000 0.23161  0.32382  0.66841  Biso   1.000  C
  O19      1.0000 0.28534  0.50587  0.70191  Biso   1.000  O
  O20      1.0000 0.34770  0.90608  0.58052  Biso   1.000  O
  C62      1.0000 0.32711  0.00386  0.46040  Biso   1.000  C
  N42      1.0000 0.30410  0.87643  0.33150  Biso   1.000  N
  H59      1.0000 0.36209  0.82248  0.29959  Biso   1.000  H
  H60      1.0000 0.36920  0.93491  0.32352  Biso   1.000  H
  C63      1.0000 0.19240  0.22619  0.46702  Biso   1.000  C
  C64      1.0000 0.18792  0.23250  0.57292  Biso   1.000  C
  N43      1.0000 0.19525  0.31780  0.61192  Biso   1.000  N
  H61      1.0000 0.23312  0.25903  0.69011  Biso   1.000  H
  H62      1.0000 0.22113  0.37442  0.69598  Biso   1.000  H
  N44      1.0000 0.28385  0.97622  0.41580  Biso   1.000  N
  H63      1.0000 0.31690  0.03128  0.49800  Biso   1.000  H
  H64      1.0000 0.34442  0.05729  0.44220  Biso   1.000  H
  C65      1.0000 0.27141  0.81832  0.29199  Biso   1.000  C
  C66      1.0000 0.28201  0.96478  0.34932  Biso   1.000  C
  O21      1.0000 0.21042  0.21534  0.41930  Biso   1.000  O
  N45      1.0000 0.14540  0.24268  0.46931  Biso   1.000  N
  C67      1.0000 0.13573  0.24840  0.53252  Biso   1.000  C
  H65      1.0000 0.18900  0.17060  0.59839  Biso   1.000  H
  C68      1.0000 0.15580  0.38230  0.59932  Biso   1.000  C
  C69      1.0000 0.23899  0.96359  0.43259  Biso   1.000  C
  N46      1.0000 0.22579  0.85719  0.28919  Biso   1.000  N
  O22      1.0000 0.28059  0.74409  0.26372  Biso   1.000  O
  C70      1.0000 0.22650  0.94821  0.32329  Biso   1.000  C
  H66      1.0000 0.29451  0.02526  0.33099  Biso   1.000  H
  C71      1.0000 0.10709  0.25509  0.41398  Biso   1.000  C
  N47      1.0000 0.12172  0.34292  0.55211  Biso   1.000  N
  H67      1.0000 0.11243  0.19520  0.54031  Biso   1.000  H
  O23      1.0000 0.15173  0.45846  0.62783  Biso   1.000  O
  N48      1.0000 0.20543  0.94197  0.37908  Biso   1.000  N
  O24      1.0000 0.23044  0.97340  0.48452  Biso   1.000  O
  C72      1.0000 0.18383  0.82011  0.24692  Biso   1.000  C
  H68      1.0000 0.21203  0.00424  0.29572  Biso   1.000  H
  N49      1.0000 0.09350  0.35711  0.40068  Biso   1.000  N
  H69      1.0000 0.11849  0.22641  0.37759  Biso   1.000  H
  H70      1.0000 0.07763  0.21742  0.41981  Biso   1.000  H
  C73      1.0000 0.07141  0.38230  0.53718  Biso   1.000  C
  C74      1.0000 0.15312  0.94761  0.37871  Biso   1.000  C
  N50      1.0000 0.14961  0.76661  0.27729  Biso   1.000  N
  H71      1.0000 0.19500  0.77523  0.21660  Biso   1.000  H
  H72      1.0000 0.16641  0.87650  0.22322  Biso   1.000  H
  C75      1.0000 0.05131  0.40400  0.41981  Biso   1.000  C
  C76      1.0000 0.10750  0.40808  0.35301  Biso   1.000  C
  N51      1.0000 0.06097  0.44412  0.48232  Biso   1.000  N
  H73      1.0000 0.04820  0.32561  0.53140  Biso   1.000  H
  H74      1.0000 0.06522  0.42131  0.57329  Biso   1.000  H
  N52      1.0000 0.12808  0.85392  0.36658  Biso   1.000  N
  H75      1.0000 0.14832  0.97288  0.41962  Biso   1.000  H
  H76      1.0000 0.13801  0.99599  0.34652  Biso   1.000  H
  C77      1.0000 0.14139  0.66652  0.27062  Biso   1.000  C
  C78      1.0000 0.11200  0.81409  0.30472  Biso   1.000  C
  H77      1.0000 0.02199  0.35941  0.41249  Biso   1.000  H
  C79      1.0000 0.04262  0.49859  0.37829  Biso   1.000  C
  N53      1.0000 0.07765  0.48833  0.33799  Biso   1.000  N
  O25      1.0000 0.14195  0.38453  0.32819  Biso   1.000  O
  C80      1.0000 0.06175  0.54377  0.48340  Biso   1.000  C
  C81      1.0000 0.10410  0.81119  0.40922  Biso   1.000  C
  N54      1.0000 0.10166  0.64200  0.29502  Biso   1.000  N
  O26      1.0000 0.16733  0.60901  0.24669  Biso   1.000  O
  C82      1.0000 0.07741  0.72819  0.31471  Biso   1.000  C
  H78      1.0000 0.09400  0.86551  0.27599  Biso   1.000  H
  N55      1.0000 0.05191  0.57847  0.42401  Biso   1.000  N
  H79      1.0000 0.00820  0.50119  0.35380  Biso   1.000  H
  C83      1.0000 0.07703  0.54748  0.28322  Biso   1.000  C
  O27      1.0000 0.06856  0.59600  0.53079  Biso   1.000  O
  N56      1.0000 0.07747  0.73220  0.38109  Biso   1.000  N
  O28      1.0000 0.10543  0.83868  0.46292  Biso   1.000  O
  H80      1.0000 0.04362  0.73718  0.28919  Biso   1.000  H
  C84      1.0000 0.04121  0.68101  0.40889  Biso   1.000  C
  H81      1.0000 0.04252  0.55959  0.26292  Biso   1.000  H
  H82      1.0000 0.09271  0.50929  0.25369  Biso   1.000  H
  H83      1.0000 0.03772  0.71653  0.44752  Biso   1.000  H
  H84      1.0000 0.00909  0.68480  0.37969  Biso   1.000  H
  C85      1.0000 0.64339  0.36878  0.16720  Biso   1.000  C
  N57      1.0000 0.61619  0.33460  0.10842  Biso   1.000  N
  N58      1.0000 0.69591  0.37643  0.16850  Biso   1.000  N
  H85      1.0000 0.63792  0.32248  0.20041  Biso   1.000  H
  H86      1.0000 0.63080  0.43491  0.17648  Biso   1.000  H
  C86      1.0000 0.59790  0.23882  0.09951  Biso   1.000  C
  C87      1.0000 0.60070  0.39701  0.05561  Biso   1.000  C
  C88      1.0000 0.71800  0.46478  0.15068  Biso   1.000  C
  C89      1.0000 0.72860  0.31832  0.20802  Biso   1.000  C
  N59      1.0000 0.56900  0.23577  0.04091  Biso   1.000  N
  O29      1.0000 0.60504  0.17187  0.13631  Biso   1.000  O
  C90      1.0000 0.56579  0.32992  0.00882  Biso   1.000  C
  N60      1.0000 0.63845  0.42109  0.02062  Biso   1.000  N
  H87      1.0000 0.58360  0.45787  0.06671  Biso   1.000  H
  N61      1.0000 0.71616  0.47622  0.08420  Biso   1.000  N
  H88      1.0000 0.70550  0.52526  0.16902  Biso   1.000  H
  C91      1.0000 0.77351  0.44821  0.17671  Biso   1.000  C
  N62      1.0000 0.77425  0.35719  0.21082  Biso   1.000  N
  O30      1.0000 0.71942  0.24409  0.23629  Biso   1.000  O
  C92      1.0000 0.53661  0.15441  0.01889  Biso   1.000  C
  H89      1.0000 0.53150  0.35622  0.00009  Biso   1.000  H
  N63      1.0000 0.58715  0.33148  0.95400  Biso   1.000  N
  C93      1.0000 0.62838  0.38802  0.96109  Biso   1.000  C
  C94      1.0000 0.67290  0.50386  0.03961  Biso   1.000  C
  C95      1.0000 0.76101  0.46359  0.06741  Biso   1.000  C
  N64      1.0000 0.79461  0.44197  0.12092  Biso   1.000  N
  H90      1.0000 0.78802  0.50424  0.20428  Biso   1.000  H
  C96      1.0000 0.81622  0.32011  0.25308  Biso   1.000  C
  H91      1.0000 0.50331  0.18108  0.00271  Biso   1.000  H
  H92      1.0000 0.53439  0.11049  0.05458  Biso   1.000  H
  N65      1.0000 0.55183  0.09563  0.97052  Biso   1.000  N
  C97      1.0000 0.56029  0.29923  0.89298  Biso   1.000  C
  O31      1.0000 0.65231  0.40608  0.91948  Biso   1.000  O
  H93      1.0000 0.68311  0.53128  0.00201  Biso   1.000  H
  H94      1.0000 0.65559  0.55729  0.05780  Biso   1.000  H
  O32      1.0000 0.76961  0.47340  0.01549  Biso   1.000  O
  C98      1.0000 0.84692  0.44761  0.12129  Biso   1.000  C
  N66      1.0000 0.85039  0.26661  0.22271  Biso   1.000  N
  H95      1.0000 0.80501  0.27523  0.28340  Biso   1.000  H
  H96      1.0000 0.83359  0.37650  0.27678  Biso   1.000  H
  C99      1.0000 0.56310  0.99576  0.98041  Biso   1.000  C
  C100     1.0000 0.53668  0.11889  0.90558  Biso   1.000  C
  N67      1.0000 0.56506  0.19520  0.88179  Biso   1.000  N
  H97      1.0000 0.52511  0.31528  0.88972  Biso   1.000  H
  H98      1.0000 0.57249  0.33697  0.86019  Biso   1.000  H
  N68      1.0000 0.87196  0.35392  0.13342  Biso   1.000  N
  H99      1.0000 0.85169  0.47288  0.08038  Biso   1.000  H
  H100     1.0000 0.86199  0.49599  0.15348  Biso   1.000  H
  C101     1.0000 0.88801  0.31409  0.19528  Biso   1.000  C
  C102     1.0000 0.85861  0.16652  0.22938  Biso   1.000  C
  N69      1.0000 0.56270  0.95594  0.92340  Biso   1.000  N
  O33      1.0000 0.57007  0.95319  0.03000  Biso   1.000  O
  H101     1.0000 0.50069  0.13278  0.89462  Biso   1.000  H
  C103     1.0000 0.55028  0.02430  0.87320  Biso   1.000  C
  C104     1.0000 0.59661  0.15879  0.84741  Biso   1.000  C
  C105     1.0000 0.89591  0.31119  0.09078  Biso   1.000  C
  H102     1.0000 0.90601  0.36551  0.22402  Biso   1.000  H
  C106     1.0000 0.92260  0.22819  0.18530  Biso   1.000  C
  N70      1.0000 0.89835  0.14200  0.20498  Biso   1.000  N
  O34      1.0000 0.83267  0.10901  0.25331  Biso   1.000  O
  C107     1.0000 0.57189  0.85020  0.91491  Biso   1.000  C
  H103     1.0000 0.52230  0.99978  0.84092  Biso   1.000  H
  N71      1.0000 0.59198  0.05781  0.84470  Biso   1.000  N
  O35      1.0000 0.62441  0.20701  0.82179  Biso   1.000  O
  N72      1.0000 0.92253  0.23220  0.11891  Biso   1.000  N
  O36      1.0000 0.89458  0.33868  0.03709  Biso   1.000  O
  H104     1.0000 0.95642  0.23718  0.21082  Biso   1.000  H
  C108     1.0000 0.92302  0.04748  0.21679  Biso   1.000  C
  N73      1.0000 0.62108  0.82650  0.90810  Biso   1.000  N
  H105     1.0000 0.56459  0.81327  0.95130  Biso   1.000  H
  H106     1.0000 0.54881  0.82642  0.87749  Biso   1.000  H
  C109     1.0000 0.61140  0.99874  0.80071  Biso   1.000  C
  C110     1.0000 0.95880  0.18101  0.09111  Biso   1.000  C
  H107     1.0000 0.95752  0.05959  0.23708  Biso   1.000  H
  H108     1.0000 0.90729  0.00929  0.24632  Biso   1.000  H
  N74      1.0000 0.92235  0.98833  0.16202  Biso   1.000  N
  C111     1.0000 0.63701  0.83207  0.84862  Biso   1.000  C
  C112     1.0000 0.65510  0.77991  0.95260  Biso   1.000  C
  N75      1.0000 0.64895  0.93030  0.83038  Biso   1.000  N
  H109     1.0000 0.58441  0.96047  0.77491  Biso   1.000  H
  H110     1.0000 0.62538  0.04310  0.77248  Biso   1.000  H
  N76      1.0000 0.94810  0.07847  0.07599  Biso   1.000  N
  H111     1.0000 0.96229  0.21653  0.05248  Biso   1.000  H
  H112     1.0000 0.99091  0.18480  0.12031  Biso   1.000  H
  C113     1.0000 0.95742  0.99859  0.12171  Biso   1.000  C
  C114     1.0000 0.89251  0.90808  0.14700  Biso   1.000  C
  C115     1.0000 0.68802  0.77820  0.86168  Biso   1.000  C
  H113     1.0000 0.61321  0.79834  0.81470  Biso   1.000  H
  N77      1.0000 0.69582  0.76074  0.92830  Biso   1.000  N
  O37      1.0000 0.64944  0.75851  0.00578  Biso   1.000  O
  C116     1.0000 0.69718  0.93706  0.82058  Biso   1.000  C
  C117     1.0000 0.93826  0.04377  0.01661  Biso   1.000  C
  C118     1.0000 0.94870  0.90400  0.08019  Biso   1.000  C
  H114     1.0000 0.99181  0.00119  0.14620  Biso   1.000  H
  N78      1.0000 0.90654  0.85711  0.09932  Biso   1.000  N
  O38      1.0000 0.85806  0.88453  0.17182  Biso   1.000  O
  N79      1.0000 0.71965  0.84901  0.84129  Biso   1.000  N
  H115     1.0000 0.68701  0.71452  0.83789  Biso   1.000  H
  C119     1.0000 0.73120  0.68688  0.95811  Biso   1.000  C
  O39      1.0000 0.71467  0.00587  0.79810  Biso   1.000  O
  N80      1.0000 0.93904  0.94412  0.01768  Biso   1.000  N
  O40      1.0000 0.93145  0.09600  0.96921  Biso   1.000  O
  H116     1.0000 0.97802  0.85941  0.08752  Biso   1.000  H
  C120     1.0000 0.89291  0.75509  0.08598  Biso   1.000  C
  C121     1.0000 0.76840  0.82382  0.83159  Biso   1.000  C
  N81      1.0000 0.78077  0.72329  0.97262  Biso   1.000  N
  H117     1.0000 0.72161  0.66421  0.99711  Biso   1.000  H
  H118     1.0000 0.72991  0.62870  0.93012  Biso   1.000  H
  C122     1.0000 0.92860  0.88230  0.96282  Biso   1.000  C
  N82      1.0000 0.85461  0.74268  0.03070  Biso   1.000  N
  H119     1.0000 0.88152  0.72641  0.12241  Biso   1.000  H
  H120     1.0000 0.92241  0.71742  0.08019  Biso   1.000  H
  N83      1.0000 0.80476  0.81780  0.88808  Biso   1.000  N
  H121     1.0000 0.76688  0.75903  0.80990  Biso   1.000  H
  H122     1.0000 0.77891  0.87442  0.80402  Biso   1.000  H
  C123     1.0000 0.81209  0.73250  0.92708  Biso   1.000  C
  C124     1.0000 0.80760  0.72619  0.03298  Biso   1.000  C
  N84      1.0000 0.87828  0.84292  0.94789  Biso   1.000  N
  H123     1.0000 0.95181  0.82561  0.96860  Biso   1.000  H
  H124     1.0000 0.93479  0.92131  0.92671  Biso   1.000  H
  C125     1.0000 0.86428  0.74840  0.96748  Biso   1.000  C
  C126     1.0000 0.84421  0.88230  0.90068  Biso   1.000  C
  H125     1.0000 0.81100  0.67060  0.90161  Biso   1.000  H
  O41      1.0000 0.78958  0.71534  0.08071  Biso   1.000  O
  H126     1.0000 0.88761  0.69520  0.95969  Biso   1.000  H
  O42      1.0000 0.84828  0.95846  0.87218  Biso   1.000  O
  C127     1.0000 0.35662  0.63122  0.83281  Biso   1.000  C
  N85      1.0000 0.30414  0.62357  0.83150  Biso   1.000  N
  N86      1.0000 0.38383  0.66540  0.89159  Biso   1.000  N
  H127     1.0000 0.36213  0.67752  0.79960  Biso   1.000  H
  H128     1.0000 0.36921  0.56509  0.82353  Biso   1.000  H
  C128     1.0000 0.27142  0.68168  0.79199  Biso   1.000  C
  C129     1.0000 0.28202  0.53522  0.84933  Biso   1.000  C
  C130     1.0000 0.39932  0.60299  0.94440  Biso   1.000  C
  C131     1.0000 0.40211  0.76118  0.90050  Biso   1.000  C
  N87      1.0000 0.22580  0.64281  0.78919  Biso   1.000  N
  O43      1.0000 0.28060  0.75591  0.76372  Biso   1.000  O
  C132     1.0000 0.22651  0.55179  0.82329  Biso   1.000  C
  N88      1.0000 0.28386  0.52378  0.91580  Biso   1.000  N
  H129     1.0000 0.29452  0.47474  0.83099  Biso   1.000  H
  N89      1.0000 0.36160  0.57891  0.97939  Biso   1.000  N
  H130     1.0000 0.41642  0.54213  0.93330  Biso   1.000  H
  C133     1.0000 0.43423  0.67008  0.99119  Biso   1.000  C
  N90      1.0000 0.43102  0.76423  0.95910  Biso   1.000  N
  O44      1.0000 0.39498  0.82813  0.86369  Biso   1.000  O
  C134     1.0000 0.18383  0.67989  0.74693  Biso   1.000  C
  N91      1.0000 0.20544  0.55803  0.87909  Biso   1.000  N
  H131     1.0000 0.21203  0.49576  0.79572  Biso   1.000  H
  C135     1.0000 0.23904  0.53641  0.93260  Biso   1.000  C
  C136     1.0000 0.32712  0.49614  0.96040  Biso   1.000  C
  C137     1.0000 0.37163  0.61198  0.03891  Biso   1.000  C
  H132     1.0000 0.46851  0.64378  0.99991  Biso   1.000  H
  N92      1.0000 0.41287  0.66852  0.04601  Biso   1.000  N
  C138     1.0000 0.46344  0.84559  0.98111  Biso   1.000  C
  N93      1.0000 0.14962  0.73339  0.77730  Biso   1.000  N
  H133     1.0000 0.19501  0.72477  0.71660  Biso   1.000  H
  H134     1.0000 0.16642  0.62350  0.72323  Biso   1.000  H
  C139     1.0000 0.15313  0.55239  0.87872  Biso   1.000  C
  O45      1.0000 0.23045  0.52660  0.98452  Biso   1.000  O
  H135     1.0000 0.31691  0.46872  0.99800  Biso   1.000  H
  H136     1.0000 0.34443  0.44271  0.94221  Biso   1.000  H
  O46      1.0000 0.34771  0.59392  0.08053  Biso   1.000  O
  C140     1.0000 0.43973  0.70077  0.10702  Biso   1.000  C
  H137     1.0000 0.49674  0.81892  0.99730  Biso   1.000  H
  H138     1.0000 0.46562  0.88951  0.94543  Biso   1.000  H
  N94      1.0000 0.44822  0.90437  0.02949  Biso   1.000  N
  C141     1.0000 0.11201  0.68591  0.80473  Biso   1.000  C
  C142     1.0000 0.14144  0.83348  0.77063  Biso   1.000  C
  N95      1.0000 0.12809  0.64608  0.86659  Biso   1.000  N
  H139     1.0000 0.14833  0.52712  0.91963  Biso   1.000  H
  H140     1.0000 0.13802  0.50401  0.84653  Biso   1.000  H
  N96      1.0000 0.43496  0.80480  0.11822  Biso   1.000  N
  H141     1.0000 0.47494  0.68472  0.11029  Biso   1.000  H
  H142     1.0000 0.42753  0.66303  0.13982  Biso   1.000  H
  C143     1.0000 0.46333  0.88111  0.09443  Biso   1.000  C
  C144     1.0000 0.43692  0.00424  0.01960  Biso   1.000  C
  H143     1.0000 0.09401  0.63449  0.77599  Biso   1.000  H
  C145     1.0000 0.07742  0.77181  0.81471  Biso   1.000  C
  N97      1.0000 0.10167  0.85800  0.79502  Biso   1.000  N
  O47      1.0000 0.16734  0.89099  0.74669  Biso   1.000  O
  C146     1.0000 0.10414  0.68881  0.90923  Biso   1.000  C
  C147     1.0000 0.40345  0.84121  0.15260  Biso   1.000  C
  H144     1.0000 0.49932  0.86722  0.10539  Biso   1.000  H
  C148     1.0000 0.44974  0.97570  0.12680  Biso   1.000  C
  O48      1.0000 0.42995  0.04681  0.97001  Biso   1.000  O
  N98      1.0000 0.43735  0.04406  0.07661  Biso   1.000  N
  N99      1.0000 0.07748  0.76780  0.88109  Biso   1.000  N
  H145     1.0000 0.04363  0.76282  0.78919  Biso   1.000  H
  C149     1.0000 0.07703  0.95252  0.78322  Biso   1.000  C
  O49      1.0000 0.10543  0.66132  0.96292  Biso   1.000  O
  N100     1.0000 0.40804  0.94219  0.15531  Biso   1.000  N
  O50      1.0000 0.37564  0.79299  0.17821  Biso   1.000  O
  H146     1.0000 0.47772  0.00022  0.15909  Biso   1.000  H
  C150     1.0000 0.42813  0.14980  0.08510  Biso   1.000  C
  C151     1.0000 0.04122  0.81899  0.90890  Biso   1.000  C
  H147     1.0000 0.04253  0.94041  0.76293  Biso   1.000  H
  H148     1.0000 0.09272  0.99071  0.75369  Biso   1.000  H
  N101     1.0000 0.07766  0.01167  0.83799  Biso   1.000  N
  C152     1.0000 0.38862  0.00126  0.19930  Biso   1.000  C
  N102     1.0000 0.37894  0.17350  0.09191  Biso   1.000  N
  H149     1.0000 0.43542  0.18673  0.04871  Biso   1.000  H
  H150     1.0000 0.45124  0.17358  0.12251  Biso   1.000  H
  N103     1.0000 0.05192  0.92153  0.92401  Biso   1.000  N
  H151     1.0000 0.03773  0.78347  0.94753  Biso   1.000  H
  H152     1.0000 0.00914  0.81520  0.87970  Biso   1.000  H
  C153     1.0000 0.04263  0.00141  0.87830  Biso   1.000  C
  C154     1.0000 0.10754  0.09192  0.85301  Biso   1.000  C
  H153     1.0000 0.37464  0.95690  0.22752  Biso   1.000  H
  N104     1.0000 0.35106  0.06970  0.16963  Biso   1.000  N
  H154     1.0000 0.41564  0.03953  0.22510  Biso   1.000  H
  C155     1.0000 0.34491  0.22009  0.04741  Biso   1.000  C
  C156     1.0000 0.36304  0.16793  0.15139  Biso   1.000  C
  C157     1.0000 0.06175  0.95623  0.98340  Biso   1.000  C
  H155     1.0000 0.00821  0.99881  0.85380  Biso   1.000  H
  C158     1.0000 0.05132  0.09600  0.91982  Biso   1.000  C
  N105     1.0000 0.09351  0.14289  0.90069  Biso   1.000  N
  O51      1.0000 0.14195  0.11547  0.82819  Biso   1.000  O
  C159     1.0000 0.30283  0.06294  0.17943  Biso   1.000  C
  N106     1.0000 0.30423  0.23926  0.07171  Biso   1.000  N
  O52      1.0000 0.35058  0.24149  0.99422  Biso   1.000  O
  C160     1.0000 0.31200  0.22180  0.13833  Biso   1.000  C
  H156     1.0000 0.38684  0.20166  0.18531  Biso   1.000  H
  O53      1.0000 0.06860  0.90400  0.03080  Biso   1.000  O
  N107     1.0000 0.06098  0.05588  0.98233  Biso   1.000  N
  H157     1.0000 0.02204  0.14059  0.91249  Biso   1.000  H
  C161     1.0000 0.10714  0.24491  0.91398  Biso   1.000  C
  N108     1.0000 0.28037  0.15099  0.15871  Biso   1.000  N
  O54      1.0000 0.28535  0.99413  0.20191  Biso   1.000  O
  C162     1.0000 0.26881  0.31312  0.04190  Biso   1.000  C
  H158     1.0000 0.31304  0.28548  0.16212  Biso   1.000  H
  C163     1.0000 0.07141  0.11770  0.03719  Biso   1.000  C
  N109     1.0000 0.14541  0.25732  0.96931  Biso   1.000  N
  H159     1.0000 0.11854  0.27359  0.87760  Biso   1.000  H
  H160     1.0000 0.07764  0.28258  0.91982  Biso   1.000  H
  C164     1.0000 0.23162  0.17618  0.16842  Biso   1.000  C
  N110     1.0000 0.21928  0.27671  0.02739  Biso   1.000  N
  H161     1.0000 0.27841  0.33579  0.00290  Biso   1.000  H
  H162     1.0000 0.27014  0.37130  0.06989  Biso   1.000  H
  N111     1.0000 0.12177  0.15708  0.05212  Biso   1.000  N
  H163     1.0000 0.04824  0.17439  0.03140  Biso   1.000  H
  H164     1.0000 0.06523  0.07869  0.07330  Biso   1.000  H
  C165     1.0000 0.19245  0.27381  0.96703  Biso   1.000  C
  C166     1.0000 0.13573  0.25160  0.03252  Biso   1.000  C
  N112     1.0000 0.19526  0.18220  0.11192  Biso   1.000  N
  H165     1.0000 0.23313  0.24097  0.19011  Biso   1.000  H
  H166     1.0000 0.22114  0.12558  0.19599  Biso   1.000  H
  C167     1.0000 0.18793  0.26750  0.07292  Biso   1.000  C
  C168     1.0000 0.15585  0.11770  0.09933  Biso   1.000  C
  O55      1.0000 0.21047  0.28466  0.91930  Biso   1.000  O
  H167     1.0000 0.11244  0.30480  0.04031  Biso   1.000  H
  H168     1.0000 0.18901  0.32940  0.09839  Biso   1.000  H
  O56      1.0000 0.15173  0.04154  0.12778  Biso   1.000  O
  Ne1      1.0000 0.25268  0.59423  0.47471  Biso   1.000  Ne
  He1      1.0000 0.22145  0.71984  0.58225  Biso   1.000  He
  He2      1.0000 0.28972  0.45202  0.35335  Biso   1.000  He
  Ar1      1.0000 0.25485  0.59998  0.47221  Biso   1.000  Ar
  Ne2      1.0000 0.74734  0.40577  0.52530  Biso   1.000  Ne
  He3      1.0000 0.71519  0.52450  0.62422  Biso   1.000  He
  He4      1.0000 0.78047  0.27145  0.40984  Biso   1.000  He
  Ar2      1.0000 0.74517  0.40003  0.52780  Biso   1.000  Ar
  Ne3      1.0000 0.74733  0.09423  0.02530  Biso   1.000  Ne
  He5      1.0000 0.71264  0.96333  0.13584  Biso   1.000  He
  He6      1.0000 0.78111  0.23153  0.90713  Biso   1.000  He
  Ar3      1.0000 0.74381  0.09931  0.02882  Biso   1.000  Ar
  Ne4      1.0000 0.25270  0.90577  0.97471  Biso   1.000  Ne
  He7      1.0000 0.22073  0.77681  0.08529  Biso   1.000  He
  He8      1.0000 0.28896  0.04430  0.85688  Biso   1.000  He
  Ar4      1.0000 0.25615  0.90049  0.97154  Biso   1.000  Ar
