data_image0
_cell_length_a       12.17
_cell_length_b       15.994
_cell_length_c       14.416
_cell_angle_alpha    90
_cell_angle_beta     92.46
_cell_angle_gamma    90

_symmetry_space_group_name_H-M    "P 1"
_symmetry_int_tables_number       1

loop_
  _symmetry_equiv_pos_as_xyz
  'x, y, z'

loop_
  _atom_site_label
  _atom_site_occupancy
  _atom_site_fract_x
  _atom_site_fract_y
  _atom_site_fract_z
  _atom_site_thermal_displace_type
  _atom_site_B_iso_or_equiv
  _atom_site_type_symbol
  C1       1.0000 0.39820  0.23421  0.77590  Biso   1.000  C
  N1       1.0000 0.32432  0.16319  0.77888  Biso   1.000  N
  C2       1.0000 0.38024  0.28023  0.86879  Biso   1.000  C
  H1       1.0000 0.38005  0.27091  0.72118  Biso   1.000  H
  N2       1.0000 0.51436  0.21302  0.78180  Biso   1.000  N
  C3       1.0000 0.30274  0.10798  0.70035  Biso   1.000  C
  C4       1.0000 0.26258  0.16300  0.85588  Biso   1.000  C
  N3       1.0000 0.29481  0.23052  0.90962  Biso   1.000  N
  H2       1.0000 0.35647  0.33950  0.85859  Biso   1.000  H
  N4       1.0000 0.48737  0.27504  0.91691  Biso   1.000  N
  C5       1.0000 0.56633  0.24334  0.86178  Biso   1.000  C
  C6       1.0000 0.57394  0.18476  0.70271  Biso   1.000  C
  H3       1.0000 0.22861  0.08322  0.70487  Biso   1.000  H
  H4       1.0000 0.30316  0.14099  0.64238  Biso   1.000  H
  N5       1.0000 0.38361  0.04095  0.69584  Biso   1.000  N
  O1       1.0000 0.19025  0.11386  0.87317  Biso   1.000  O
  C7       1.0000 0.23563  0.25672  0.99016  Biso   1.000  C
  C8       1.0000 0.51275  0.31749  0.00391  Biso   1.000  C
  O2       1.0000 0.66561  0.24172  0.87997  Biso   1.000  O
  N6       1.0000 0.57201  0.09547  0.68897  Biso   1.000  N
  H5       1.0000 0.65142  0.20320  0.71077  Biso   1.000  H
  H6       1.0000 0.54213  0.21208  0.64599  Biso   1.000  H
  C9       1.0000 0.48333  0.04833  0.64342  Biso   1.000  C
  C10      1.0000 0.35433  0.95930  0.70820  Biso   1.000  C
  H7       1.0000 0.22878  0.31843  0.98940  Biso   1.000  H
  H8       1.0000 0.16054  0.23290  0.98551  Biso   1.000  H
  N7       1.0000 0.28816  0.23121  0.07778  Biso   1.000  N
  H9       1.0000 0.47386  0.37189  0.00342  Biso   1.000  H
  H10      1.0000 0.59270  0.32912  0.00863  Biso   1.000  H
  N8       1.0000 0.48264  0.27048  0.08563  Biso   1.000  N
  C11      1.0000 0.65371  0.04483  0.72507  Biso   1.000  C
  H11      1.0000 0.46673  0.06859  0.57871  Biso   1.000  H
  C12      1.0000 0.52825  0.95755  0.64446  Biso   1.000  C
  N9       1.0000 0.43730  0.90959  0.67862  Biso   1.000  N
  O3       1.0000 0.26781  0.93460  0.73896  Biso   1.000  O
  C13      1.0000 0.37572  0.27792  0.12562  Biso   1.000  C
  C14      1.0000 0.25388  0.16362  0.12763  Biso   1.000  C
  C15      1.0000 0.55977  0.23534  0.14645  Biso   1.000  C
  N10      1.0000 0.62477  0.96330  0.70855  Biso   1.000  N
  O4       1.0000 0.73819  0.06934  0.76569  Biso   1.000  O
  H12      1.0000 0.54845  0.93885  0.58128  Biso   1.000  H
  C16      1.0000 0.43646  0.82043  0.69286  Biso   1.000  C
  C17      1.0000 0.39045  0.23096  0.21991  Biso   1.000  C
  H13      1.0000 0.35482  0.33769  0.13472  Biso   1.000  H
  N11      1.0000 0.31425  0.16137  0.20956  Biso   1.000  N
  O5       1.0000 0.17947  0.11567  0.10403  Biso   1.000  O
  N12      1.0000 0.50532  0.20802  0.22296  Biso   1.000  N
  O6       1.0000 0.65802  0.22865  0.13472  Biso   1.000  O
  C18      1.0000 0.70642  0.89684  0.71625  Biso   1.000  C
  H14      1.0000 0.35905  0.80161  0.69438  Biso   1.000  H
  H15      1.0000 0.46930  0.79323  0.63898  Biso   1.000  H
  N13      1.0000 0.49472  0.79198  0.77701  Biso   1.000  N
  H16      1.0000 0.37246  0.26760  0.27330  Biso   1.000  H
  C19      1.0000 0.29362  0.10323  0.28372  Biso   1.000  C
  C20      1.0000 0.56358  0.17957  0.30711  Biso   1.000  C
  H17      1.0000 0.78013  0.92203  0.72750  Biso   1.000  H
  H18      1.0000 0.70685  0.86601  0.65682  Biso   1.000  H
  N14      1.0000 0.68571  0.83869  0.79041  Biso   1.000  N
  C21      1.0000 0.44028  0.76466  0.85359  Biso   1.000  C
  C22      1.0000 0.60950  0.76904  0.78006  Biso   1.000  C
  H19      1.0000 0.21992  0.07803  0.27254  Biso   1.000  H
  H20      1.0000 0.29319  0.13399  0.34322  Biso   1.000  H
  N15      1.0000 0.37527  0.03670  0.29142  Biso   1.000  N
  H21      1.0000 0.64099  0.19839  0.30559  Biso   1.000  H
  H22      1.0000 0.53066  0.20683  0.36099  Biso   1.000  H
  N16      1.0000 0.56266  0.09047  0.32135  Biso   1.000  N
  C23      1.0000 0.74616  0.83644  0.87240  Biso   1.000  C
  N17      1.0000 0.51732  0.72952  0.91434  Biso   1.000  N
  O7       1.0000 0.34202  0.77135  0.86532  Biso   1.000  O
  H23      1.0000 0.62750  0.73240  0.72667  Biso   1.000  H
  C24      1.0000 0.62432  0.72215  0.87435  Biso   1.000  C
  C25      1.0000 0.34625  0.95523  0.27490  Biso   1.000  C
  C26      1.0000 0.47179  0.04245  0.35551  Biso   1.000  C
  C27      1.0000 0.64571  0.04070  0.29184  Biso   1.000  C
  N18      1.0000 0.71180  0.76879  0.92226  Biso   1.000  N
  O8       1.0000 0.82057  0.88439  0.89594  Biso   1.000  O
  C28      1.0000 0.48721  0.68251  0.99606  Biso   1.000  C
  H24      1.0000 0.64522  0.66231  0.86525  Biso   1.000  H
  N19      1.0000 0.42795  0.90453  0.31100  Biso   1.000  N
  O9       1.0000 0.26185  0.93066  0.23435  Biso   1.000  O
  C29      1.0000 0.51672  0.95173  0.35662  Biso   1.000  C
  H25      1.0000 0.45159  0.06121  0.41869  Biso   1.000  H
  N20      1.0000 0.61635  0.95911  0.30413  Biso   1.000  N
  O10      1.0000 0.73223  0.06540  0.26101  Biso   1.000  O
  C30      1.0000 0.76432  0.74334  0.00981  Biso   1.000  C
  H26      1.0000 0.52618  0.62811  0.99655  Biso   1.000  H
  H27      1.0000 0.40735  0.67094  0.99141  Biso   1.000  H
  N21      1.0000 0.51267  0.72496  0.08306  Biso   1.000  N
  C31      1.0000 0.42611  0.81524  0.29732  Biso   1.000  C
  H28      1.0000 0.53332  0.93141  0.42133  Biso   1.000  H
  C32      1.0000 0.69730  0.89208  0.29962  Biso   1.000  C
  H29      1.0000 0.77127  0.68163  0.01064  Biso   1.000  H
  H30      1.0000 0.83950  0.76710  0.01453  Biso   1.000  H
  N22      1.0000 0.70515  0.76954  0.09042  Biso   1.000  N
  C33      1.0000 0.61980  0.71983  0.13125  Biso   1.000  C
  C34      1.0000 0.43371  0.75672  0.13819  Biso   1.000  C
  N23      1.0000 0.48569  0.78698  0.21824  Biso   1.000  N
  H31      1.0000 0.34862  0.79680  0.28920  Biso   1.000  H
  H32      1.0000 0.45791  0.78792  0.35398  Biso   1.000  H
  N24      1.0000 0.67564  0.83681  0.22109  Biso   1.000  N
  H33      1.0000 0.77135  0.91684  0.29510  Biso   1.000  H
  H34      1.0000 0.69688  0.85901  0.35759  Biso   1.000  H
  C35      1.0000 0.73746  0.83706  0.14409  Biso   1.000  C
  H35      1.0000 0.64357  0.66050  0.14145  Biso   1.000  H
  C36      1.0000 0.60176  0.76579  0.22414  Biso   1.000  C
  O11      1.0000 0.33443  0.75835  0.12000  Biso   1.000  O
  O12      1.0000 0.80980  0.88614  0.12687  Biso   1.000  O
  H36      1.0000 0.61999  0.72915  0.27879  Biso   1.000  H
  O13      1.0000 0.15807  0.27135  0.63467  Biso   1.000  O
  C37      1.0000 0.05982  0.26466  0.64641  Biso   1.000  C
  N25      1.0000 0.98269  0.22952  0.58565  Biso   1.000  N
  N26      1.0000 0.00537  0.29198  0.72299  Biso   1.000  N
  C38      1.0000 0.01280  0.18251  0.50386  Biso   1.000  C
  C39      1.0000 0.87568  0.22215  0.62558  Biso   1.000  C
  C40      1.0000 0.89050  0.26904  0.71986  Biso   1.000  C
  C41      1.0000 0.06363  0.32043  0.80707  Biso   1.000  C
  N27      1.0000 0.98726  0.22496  0.41694  Biso   1.000  N
  H37      1.0000 0.09274  0.17088  0.50858  Biso   1.000  H
  H38      1.0000 0.97391  0.12811  0.50338  Biso   1.000  H
  H39      1.0000 0.85478  0.16231  0.63467  Biso   1.000  H
  N28      1.0000 0.78821  0.26879  0.57774  Biso   1.000  N
  H40      1.0000 0.87251  0.23240  0.77326  Biso   1.000  H
  N29      1.0000 0.81430  0.33863  0.70959  Biso   1.000  N
  H41      1.0000 0.14104  0.30161  0.80561  Biso   1.000  H
  H42      1.0000 0.03079  0.29323  0.86102  Biso   1.000  H
  N30      1.0000 0.06271  0.40959  0.82130  Biso   1.000  N
  C42      1.0000 0.06630  0.25672  0.36181  Biso   1.000  C
  C43      1.0000 0.88021  0.21983  0.36882  Biso   1.000  C
  C44      1.0000 0.73560  0.24328  0.49019  Biso   1.000  C
  C45      1.0000 0.75393  0.33644  0.62759  Biso   1.000  C
  C46      1.0000 0.79367  0.39684  0.78367  Biso   1.000  C
  C47      1.0000 0.14576  0.45930  0.79180  Biso   1.000  C
  C48      1.0000 0.97184  0.45755  0.85546  Biso   1.000  C
  O14      1.0000 0.16558  0.25828  0.38000  Biso   1.000  O
  N31      1.0000 0.01433  0.28698  0.28175  Biso   1.000  N
  C49      1.0000 0.89817  0.26579  0.27592  Biso   1.000  C
  H43      1.0000 0.85644  0.16050  0.35861  Biso   1.000  H
  N32      1.0000 0.79478  0.26954  0.40964  Biso   1.000  N
  H44      1.0000 0.72875  0.18163  0.48942  Biso   1.000  H
  H45      1.0000 0.66051  0.26710  0.48546  Biso   1.000  H
  O15      1.0000 0.67952  0.38439  0.60405  Biso   1.000  O
  H46      1.0000 0.71997  0.42203  0.77249  Biso   1.000  H
  H47      1.0000 0.79324  0.36601  0.84317  Biso   1.000  H
  N33      1.0000 0.87532  0.46330  0.79138  Biso   1.000  N
  N34      1.0000 0.11648  0.54095  0.80415  Biso   1.000  N
  O16      1.0000 0.23228  0.43460  0.76097  Biso   1.000  O
  C50      1.0000 0.01676  0.54833  0.85657  Biso   1.000  C
  H48      1.0000 0.95164  0.43879  0.91872  Biso   1.000  H
  C51      1.0000 0.07390  0.31524  0.20267  Biso   1.000  C
  H49      1.0000 0.88002  0.22909  0.22121  Biso   1.000  H
  N35      1.0000 0.82429  0.33681  0.27891  Biso   1.000  N
  C52      1.0000 0.76247  0.33700  0.35591  Biso   1.000  C
  C53      1.0000 0.84630  0.54483  0.77485  Biso   1.000  C
  C54      1.0000 0.19735  0.60798  0.79957  Biso   1.000  C
  H50      1.0000 0.03337  0.56859  0.92128  Biso   1.000  H
  N36      1.0000 0.92801  0.59554  0.81103  Biso   1.000  N
  H51      1.0000 0.15139  0.29680  0.21079  Biso   1.000  H
  H52      1.0000 0.04210  0.28792  0.14601  Biso   1.000  H
  N37      1.0000 0.07198  0.40453  0.18899  Biso   1.000  N
  C55      1.0000 0.80271  0.39208  0.20038  Biso   1.000  C
  O17      1.0000 0.69013  0.38614  0.37312  Biso   1.000  O
  O18      1.0000 0.76182  0.56934  0.73431  Biso   1.000  O
  H53      1.0000 0.27140  0.58322  0.79506  Biso   1.000  H
  H54      1.0000 0.19693  0.64099  0.85762  Biso   1.000  H
  N38      1.0000 0.17577  0.66319  0.72104  Biso   1.000  N
  C56      1.0000 0.92616  0.68476  0.79728  Biso   1.000  C
  C57      1.0000 0.15368  0.45523  0.22510  Biso   1.000  C
  C58      1.0000 0.98330  0.45167  0.14338  Biso   1.000  C
  N39      1.0000 0.88358  0.45905  0.19587  Biso   1.000  N
  H55      1.0000 0.72858  0.41678  0.20489  Biso   1.000  H
  H56      1.0000 0.80305  0.35901  0.14240  Biso   1.000  H
  C59      1.0000 0.23751  0.66300  0.64411  Biso   1.000  C
  C60      1.0000 0.10181  0.73421  0.72410  Biso   1.000  C
  H57      1.0000 0.84859  0.70320  0.78916  Biso   1.000  H
  H58      1.0000 0.95796  0.71214  0.85401  Biso   1.000  H
  N40      1.0000 0.98573  0.71302  0.71820  Biso   1.000  N
  N41      1.0000 0.12474  0.53676  0.20857  Biso   1.000  N
  O19      1.0000 0.23816  0.43066  0.26564  Biso   1.000  O
  C61      1.0000 0.02822  0.54252  0.14449  Biso   1.000  C
  H59      1.0000 0.96669  0.43141  0.07867  Biso   1.000  H
  C62      1.0000 0.85430  0.54070  0.20822  Biso   1.000  C
  N42      1.0000 0.20520  0.73052  0.59037  Biso   1.000  N
  O20      1.0000 0.30985  0.61386  0.62683  Biso   1.000  O
  C63      1.0000 0.11985  0.78023  0.63120  Biso   1.000  C
  H60      1.0000 0.12004  0.77091  0.77881  Biso   1.000  H
  C64      1.0000 0.93368  0.74334  0.63821  Biso   1.000  C
  C65      1.0000 0.20639  0.60323  0.21628  Biso   1.000  C
  H61      1.0000 0.04842  0.56121  0.08130  Biso   1.000  H
  N43      1.0000 0.93727  0.59047  0.17865  Biso   1.000  N
  O21      1.0000 0.76778  0.56546  0.23898  Biso   1.000  O
  C66      1.0000 0.26446  0.75672  0.50977  Biso   1.000  C
  N44      1.0000 0.01272  0.77504  0.58302  Biso   1.000  N
  H62      1.0000 0.14362  0.83950  0.64141  Biso   1.000  H
  O22      1.0000 0.83448  0.74172  0.62002  Biso   1.000  O
  H63      1.0000 0.28010  0.57803  0.22753  Biso   1.000  H
  H64      1.0000 0.20682  0.63399  0.15678  Biso   1.000  H
  N45      1.0000 0.18568  0.66137  0.29043  Biso   1.000  N
  C67      1.0000 0.93635  0.67963  0.19288  Biso   1.000  C
  N46      1.0000 0.21185  0.73121  0.42221  Biso   1.000  N
  H65      1.0000 0.27132  0.81843  0.51060  Biso   1.000  H
  H66      1.0000 0.33955  0.73290  0.51449  Biso   1.000  H
  C68      1.0000 0.98718  0.81749  0.49609  Biso   1.000  C
  C69      1.0000 0.10947  0.73096  0.28009  Biso   1.000  C
  C70      1.0000 0.24613  0.66362  0.37236  Biso   1.000  C
  H67      1.0000 0.85902  0.69839  0.19441  Biso   1.000  H
  H68      1.0000 0.96927  0.70683  0.13900  Biso   1.000  H
  N47      1.0000 0.99469  0.70802  0.27703  Biso   1.000  N
  C71      1.0000 0.12429  0.77792  0.37437  Biso   1.000  C
  N48      1.0000 0.01729  0.77048  0.41437  Biso   1.000  N
  H69      1.0000 0.02615  0.87195  0.49657  Biso   1.000  H
  H70      1.0000 0.90732  0.82912  0.49137  Biso   1.000  H
  H71      1.0000 0.12755  0.76760  0.22669  Biso   1.000  H
  O23      1.0000 0.32054  0.61567  0.39597  Biso   1.000  O
  C72      1.0000 0.94016  0.73534  0.35361  Biso   1.000  C
  H72      1.0000 0.14519  0.83775  0.36528  Biso   1.000  H
  O24      1.0000 0.84191  0.72871  0.36528  Biso   1.000  O
