data_image0
_cell_length_a       14.858
_cell_length_b       34.038
_cell_length_c       9.529
_cell_angle_alpha    90
_cell_angle_beta     90
_cell_angle_gamma    90

_symmetry_space_group_name_H-M    "P 1"
_symmetry_int_tables_number       1

loop_
  _symmetry_equiv_pos_as_xyz
  'x, y, z'

loop_
  _atom_site_label
  _atom_site_occupancy
  _atom_site_fract_x
  _atom_site_fract_y
  _atom_site_fract_z
  _atom_site_thermal_displace_type
  _atom_site_B_iso_or_equiv
  _atom_site_type_symbol
  C1       1.0000 0.53991  0.49480  0.44905  Biso   1.000  C
  C2       1.0000 0.55997  0.45241  0.48505  Biso   1.000  C
  O1       1.0000 0.59773  0.52051  0.52545  Biso   1.000  O
  C3       1.0000 0.44091  0.50470  0.47361  Biso   1.000  C
  H1       1.0000 0.54543  0.49959  0.33865  Biso   1.000  H
  O2       1.0000 0.54570  0.44500  0.62976  Biso   1.000  O
  O3       1.0000 0.50343  0.42890  0.40109  Biso   1.000  O
  H2       1.0000 0.63171  0.44691  0.46721  Biso   1.000  H
  H3       1.0000 0.60479  0.54489  0.47455  Biso   1.000  H
  O4       1.0000 0.42072  0.54360  0.42565  Biso   1.000  O
  C4       1.0000 0.38181  0.47620  0.39249  Biso   1.000  C
  H4       1.0000 0.43162  0.50191  0.59125  Biso   1.000  H
  C5       1.0000 0.59779  0.41451  0.69514  Biso   1.000  C
  C6       1.0000 0.40847  0.43399  0.42617  Biso   1.000  C
  H5       1.0000 0.43512  0.56181  0.49974  Biso   1.000  H
  O5       1.0000 0.28947  0.48270  0.43362  Biso   1.000  O
  H6       1.0000 0.39231  0.48411  0.27894  Biso   1.000  H
  C7       1.0000 0.57827  0.41921  0.84962  Biso   1.000  C
  C8       1.0000 0.57329  0.37250  0.64235  Biso   1.000  C
  H7       1.0000 0.66052  0.42029  0.67961  Biso   1.000  H
  C9       1.0000 0.36492  0.40390  0.33225  Biso   1.000  C
  H8       1.0000 0.38828  0.42820  0.53426  Biso   1.000  H
  C10      1.0000 0.23058  0.49621  0.32826  Biso   1.000  C
  C11      1.0000 0.61543  0.38481  0.93766  Biso   1.000  C
  O6       1.0000 0.61738  0.45479  0.89842  Biso   1.000  O
  H9       1.0000 0.51211  0.42259  0.87953  Biso   1.000  H
  O7       1.0000 0.60822  0.34300  0.73659  Biso   1.000  O
  H10      1.0000 0.49913  0.37141  0.63071  Biso   1.000  H
  C12      1.0000 0.61442  0.36089  0.50215  Biso   1.000  C
  O8       1.0000 0.38410  0.36521  0.38262  Biso   1.000  O
  H11      1.0000 0.39279  0.41010  0.22132  Biso   1.000  H
  H12      1.0000 0.29768  0.40769  0.31829  Biso   1.000  H
  C13      1.0000 0.15850  0.52101  0.39994  Biso   1.000  C
  O9       1.0000 0.19148  0.46460  0.25165  Biso   1.000  O
  H13      1.0000 0.26807  0.51519  0.25648  Biso   1.000  H
  C14      1.0000 0.58177  0.34629  0.87827  Biso   1.000  C
  H14      1.0000 0.68603  0.38601  0.92843  Biso   1.000  H
  O10      1.0000 0.59248  0.38901  0.08081  Biso   1.000  O
  H15      1.0000 0.57397  0.46909  0.94700  Biso   1.000  H
  H16      1.0000 0.58137  0.37799  0.41925  Biso   1.000  H
  H17      1.0000 0.59348  0.33019  0.49596  Biso   1.000  H
  O11      1.0000 0.70878  0.36609  0.50383  Biso   1.000  O
  H18      1.0000 0.33881  0.35710  0.42890  Biso   1.000  H
  O12      1.0000 0.19740  0.55291  0.47539  Biso   1.000  O
  C15      1.0000 0.09887  0.49489  0.49092  Biso   1.000  C
  H19      1.0000 0.11381  0.53431  0.31304  Biso   1.000  H
  C16      1.0000 0.13959  0.43819  0.33970  Biso   1.000  C
  O13      1.0000 0.48741  0.34579  0.89275  Biso   1.000  O
  H20      1.0000 0.61199  0.32061  0.93861  Biso   1.000  H
  H21      1.0000 0.53480  0.37711  0.10337  Biso   1.000  H
  H22      1.0000 0.71820  0.38469  0.43215  Biso   1.000  H
  H23      1.0000 0.24108  0.54131  0.52870  Biso   1.000  H
  C17      1.0000 0.06192  0.46119  0.40371  Biso   1.000  C
  O14      1.0000 0.02847  0.51739  0.55315  Biso   1.000  O
  H24      1.0000 0.14100  0.48431  0.57236  Biso   1.000  H
  C18      1.0000 0.11220  0.40299  0.25375  Biso   1.000  C
  H25      1.0000 0.18132  0.42570  0.42040  Biso   1.000  H
  C19      1.0000 0.44501  0.30960  0.93598  Biso   1.000  C
  O15      1.0000 0.01582  0.43651  0.50121  Biso   1.000  O
  H26      1.0000 0.01588  0.47071  0.33361  Biso   1.000  H
  H27      1.0000 0.98519  0.49850  0.59534  Biso   1.000  H
  O16      1.0000 0.04281  0.41260  0.15720  Biso   1.000  O
  H28      1.0000 0.17122  0.39159  0.19341  Biso   1.000  H
  H29      1.0000 0.08649  0.37781  0.33005  Biso   1.000  H
  C20      1.0000 0.38161  0.29511  0.82149  Biso   1.000  C
  H30      1.0000 0.49771  0.28841  0.96012  Biso   1.000  H
  C21      1.0000 0.39420  0.31841  0.07052  Biso   1.000  C
  C22      1.0000 0.92502  0.42500  0.47508  Biso   1.000  C
  H31      1.0000 0.00370  0.39109  0.14786  Biso   1.000  H
  C23      1.0000 0.42772  0.28280  0.68738  Biso   1.000  C
  O17      1.0000 0.33571  0.26071  0.87438  Biso   1.000  O
  H32      1.0000 0.33430  0.32041  0.79641  Biso   1.000  H
  C24      1.0000 0.33612  0.28339  0.11344  Biso   1.000  C
  O18      1.0000 0.45928  0.32749  0.17557  Biso   1.000  O
  H33      1.0000 0.35617  0.34550  0.06381  Biso   1.000  H
  C25      1.0000 0.87320  0.43181  0.60940  Biso   1.000  C
  O19      1.0000 0.92152  0.38510  0.43467  Biso   1.000  O
  H34      1.0000 0.89507  0.44139  0.39238  Biso   1.000  H
  O20      1.0000 0.36068  0.27610  0.58086  Biso   1.000  O
  H35      1.0000 0.47409  0.30680  0.65190  Biso   1.000  H
  H36      1.0000 0.46191  0.25821  0.70805  Biso   1.000  H
  C26      1.0000 0.27992  0.26849  0.99077  Biso   1.000  C
  O21      1.0000 0.27958  0.29461  0.22678  Biso   1.000  O
  H37      1.0000 0.38397  0.25959  0.15710  Biso   1.000  H
  H38      1.0000 0.43101  0.33530  0.26414  Biso   1.000  H
  C27      1.0000 0.91540  0.40760  0.72453  Biso   1.000  C
  O22      1.0000 0.87858  0.47309  0.64078  Biso   1.000  O
  H39      1.0000 0.80428  0.42071  0.60143  Biso   1.000  H
  C28      1.0000 0.96292  0.35910  0.53605  Biso   1.000  C
  H40      1.0000 0.36108  0.24599  0.56260  Biso   1.000  H
  O23      1.0000 0.21578  0.29749  0.95645  Biso   1.000  O
  H41      1.0000 0.24600  0.23879  0.01532  Biso   1.000  H
  H42      1.0000 0.26632  0.26761  0.28135  Biso   1.000  H
  C29      1.0000 0.92099  0.36439  0.68024  Biso   1.000  C
  O24      1.0000 0.86432  0.41139  0.85214  Biso   1.000  O
  H43      1.0000 0.98089  0.41971  0.74268  Biso   1.000  H
  H44      1.0000 0.82851  0.48311  0.66985  Biso   1.000  H
  H45      1.0000 0.03103  0.36500  0.53542  Biso   1.000  H
  C30      1.0000 0.95497  0.31850  0.47434  Biso   1.000  C
  C31      1.0000 0.12249  0.28639  0.95047  Biso   1.000  C
  O25      1.0000 0.97900  0.34670  0.78308  Biso   1.000  O
  H46      1.0000 0.85698  0.35349  0.66418  Biso   1.000  H
  H47      1.0000 0.89447  0.39021  0.92402  Biso   1.000  H
  O26      1.0000 0.86391  0.30560  0.45923  Biso   1.000  O
  H48      1.0000 0.98540  0.31591  0.37255  Biso   1.000  H
  H49      1.0000 0.98728  0.29840  0.55105  Biso   1.000  H
  C32      1.0000 0.09362  0.28230  0.79725  Biso   1.000  C
  C33      1.0000 0.07309  0.31870  0.02781  Biso   1.000  C
  H50      1.0000 0.11071  0.25560  0.00829  Biso   1.000  H
  C34      1.0000 0.95141  0.31159  0.85046  Biso   1.000  C
  H51      1.0000 0.83692  0.32129  0.37496  Biso   1.000  H
  C35      1.0000 0.13171  0.24649  0.72463  Biso   1.000  C
  H52      1.0000 0.11469  0.30719  0.73880  Biso   1.000  H
  O27      1.0000 0.99657  0.27851  0.79326  Biso   1.000  O
  H53      1.0000 0.10149  0.34761  0.98646  Biso   1.000  H
  C36      1.0000 0.97207  0.31571  0.00525  Biso   1.000  C
  O28      1.0000 0.08999  0.31571  0.17483  Biso   1.000  O
  H54      1.0000 0.87811  0.30630  0.83923  Biso   1.000  H
  O29      1.0000 0.12418  0.21100  0.80376  Biso   1.000  O
  H55      1.0000 0.09429  0.24149  0.62640  Biso   1.000  H
  H56      1.0000 0.19673  0.24969  0.70196  Biso   1.000  H
  O30      1.0000 0.93000  0.35081  0.05887  Biso   1.000  O
  H57      1.0000 0.94131  0.28759  0.06139  Biso   1.000  H
  H58      1.0000 0.14497  0.31039  0.19414  Biso   1.000  H
  H59      1.0000 0.06858  0.20001  0.80239  Biso   1.000  H
  H60      1.0000 0.87710  0.34329  0.10473  Biso   1.000  H
  O31      1.0000 0.63568  0.58861  0.35208  Biso   1.000  O
  C37      1.0000 0.58460  0.59240  0.22447  Biso   1.000  C
  H61      1.0000 0.60553  0.60979  0.42397  Biso   1.000  H
  C38      1.0000 0.62680  0.56819  0.10935  Biso   1.000  C
  C39      1.0000 0.57901  0.63561  0.18019  Biso   1.000  C
  H62      1.0000 0.51911  0.58029  0.24273  Biso   1.000  H
  C40      1.0000 0.57498  0.57500  0.97513  Biso   1.000  C
  O32      1.0000 0.62142  0.52691  0.14083  Biso   1.000  O
  H63      1.0000 0.69572  0.57929  0.10137  Biso   1.000  H
  C41      1.0000 0.53708  0.64090  0.03600  Biso   1.000  C
  O33      1.0000 0.52100  0.65330  0.28314  Biso   1.000  O
  H64      1.0000 0.64302  0.64651  0.16424  Biso   1.000  H
  O34      1.0000 0.48418  0.56349  0.00115  Biso   1.000  O
  O35      1.0000 0.57848  0.61490  0.93473  Biso   1.000  O
  H65      1.0000 0.60493  0.55861  0.89243  Biso   1.000  H
  H66      1.0000 0.67149  0.51689  0.16980  Biso   1.000  H
  H67      1.0000 0.46897  0.63500  0.03537  Biso   1.000  H
  C42      1.0000 0.54503  0.68150  0.97429  Biso   1.000  C
  C43      1.0000 0.54859  0.68841  0.35051  Biso   1.000  C
  C44      1.0000 0.43808  0.53881  0.90366  Biso   1.000  C
  H68      1.0000 0.51272  0.70160  0.05111  Biso   1.000  H
  O36      1.0000 0.63609  0.69440  0.95918  Biso   1.000  O
  H69      1.0000 0.51460  0.68409  0.87249  Biso   1.000  H
  C45      1.0000 0.52793  0.68429  0.50519  Biso   1.000  C
  O37      1.0000 0.50343  0.72149  0.29332  Biso   1.000  O
  H70      1.0000 0.62189  0.69370  0.33918  Biso   1.000  H
  C46      1.0000 0.40113  0.50511  0.99087  Biso   1.000  C
  C47      1.0000 0.36041  0.56181  0.83975  Biso   1.000  C
  H71      1.0000 0.48412  0.52929  0.83356  Biso   1.000  H
  H72      1.0000 0.66308  0.67871  0.87501  Biso   1.000  H
  O38      1.0000 0.57000  0.64919  0.55893  Biso   1.000  O
  C48      1.0000 0.42691  0.68130  0.52776  Biso   1.000  C
  H73      1.0000 0.55869  0.71241  0.56144  Biso   1.000  H
  C49      1.0000 0.40638  0.71770  0.29730  Biso   1.000  C
  O39      1.0000 0.47153  0.48261  0.05321  Biso   1.000  O
  H74      1.0000 0.35900  0.51569  0.07241  Biso   1.000  H
  C50      1.0000 0.34150  0.47899  0.89988  Biso   1.000  C
  O40      1.0000 0.30852  0.53540  0.75171  Biso   1.000  O
  C51      1.0000 0.38780  0.59701  0.75380  Biso   1.000  C
  H75      1.0000 0.31868  0.57430  0.92035  Biso   1.000  H
  H76      1.0000 0.62290  0.65671  0.60468  Biso   1.000  H
  O41      1.0000 0.41001  0.68429  0.67478  Biso   1.000  O
  C52      1.0000 0.37751  0.71361  0.45052  Biso   1.000  C
  H77      1.0000 0.39851  0.65239  0.48651  Biso   1.000  H
  C53      1.0000 0.36829  0.75351  0.22458  Biso   1.000  C
  H78      1.0000 0.38531  0.69281  0.23885  Biso   1.000  H
  H79      1.0000 0.51481  0.50150  0.09529  Biso   1.000  H
  C54      1.0000 0.26942  0.50379  0.82831  Biso   1.000  C
  O42      1.0000 0.30260  0.44709  0.97544  Biso   1.000  O
  H80      1.0000 0.38619  0.46569  0.81299  Biso   1.000  H
  O43      1.0000 0.45719  0.58740  0.65715  Biso   1.000  O
  H81      1.0000 0.32878  0.60841  0.69336  Biso   1.000  H
  H82      1.0000 0.41351  0.62219  0.82999  Biso   1.000  H
  H83      1.0000 0.35503  0.68961  0.69409  Biso   1.000  H
  O44      1.0000 0.28422  0.70251  0.45640  Biso   1.000  O
  H84      1.0000 0.38929  0.74440  0.50834  Biso   1.000  H
  O45      1.0000 0.37582  0.78900  0.30381  Biso   1.000  O
  H85      1.0000 0.40571  0.75851  0.12635  Biso   1.000  H
  H86      1.0000 0.30327  0.75031  0.20201  Biso   1.000  H
  O46      1.0000 0.21053  0.51730  0.93357  Biso   1.000  O
  H87      1.0000 0.23193  0.48481  0.75653  Biso   1.000  H
  H88      1.0000 0.25892  0.45869  0.02865  Biso   1.000  H
  H89      1.0000 0.49630  0.60891  0.64792  Biso   1.000  H
  C55      1.0000 0.22008  0.73151  0.49082  Biso   1.000  C
  H90      1.0000 0.43142  0.79999  0.30245  Biso   1.000  H
  C56      1.0000 0.11819  0.52380  0.89254  Biso   1.000  C
  C57      1.0000 0.16388  0.71661  0.61339  Biso   1.000  C
  O47      1.0000 0.16429  0.73929  0.37444  Biso   1.000  O
  H91      1.0000 0.25400  0.76121  0.51527  Biso   1.000  H
  C58      1.0000 0.05909  0.49530  0.97355  Biso   1.000  C
  C59      1.0000 0.09153  0.56601  0.92623  Biso   1.000  C
  H92      1.0000 0.10769  0.51589  0.77889  Biso   1.000  H
  C60      1.0000 0.10580  0.68159  0.57047  Biso   1.000  C
  O48      1.0000 0.22042  0.70539  0.72683  Biso   1.000  O
  H93      1.0000 0.11603  0.74041  0.65715  Biso   1.000  H
  C61      1.0000 0.11839  0.70489  0.32154  Biso   1.000  C
  H94      1.0000 0.06838  0.49809  0.09120  Biso   1.000  H
  C62      1.0000 0.96009  0.50520  0.94910  Biso   1.000  C
  O49      1.0000 0.07928  0.45640  0.92570  Biso   1.000  O
  H95      1.0000 0.11172  0.57180  0.03432  Biso   1.000  H
  O50      1.0000 0.99657  0.57110  0.90114  Biso   1.000  O
  C63      1.0000 0.13508  0.59610  0.83230  Biso   1.000  C
  C64      1.0000 0.05499  0.69040  0.43604  Biso   1.000  C
  O51      1.0000 0.04072  0.67251  0.67562  Biso   1.000  O
  H96      1.0000 0.14383  0.65450  0.56375  Biso   1.000  H
  H97      1.0000 0.23368  0.73239  0.78130  Biso   1.000  H
  C65      1.0000 0.07228  0.71720  0.18743  Biso   1.000  C
  H98      1.0000 0.16570  0.67959  0.29636  Biso   1.000  H
  C66      1.0000 0.94003  0.54759  0.98499  Biso   1.000  C
  H99      1.0000 0.95457  0.50041  0.83870  Biso   1.000  H
  O52      1.0000 0.90227  0.47949  0.02540  Biso   1.000  O
  H100     1.0000 0.06488  0.43819  0.99969  Biso   1.000  H
  O53      1.0000 0.11590  0.63479  0.88257  Biso   1.000  O
  H101     1.0000 0.10721  0.58990  0.72127  Biso   1.000  H
  H102     1.0000 0.20232  0.59231  0.81834  Biso   1.000  H
  O54      1.0000 0.01259  0.65421  0.39270  Biso   1.000  O
  H103     1.0000 0.00229  0.71159  0.46007  Biso   1.000  H
  H104     1.0000 0.06899  0.66470  0.76409  Biso   1.000  H
  H105     1.0000 0.02591  0.69320  0.15185  Biso   1.000  H
  H106     1.0000 0.03809  0.74179  0.20810  Biso   1.000  H
  O55      1.0000 0.13932  0.72390  0.08091  Biso   1.000  O
  H107     1.0000 0.86829  0.55309  0.96715  Biso   1.000  H
  O56      1.0000 0.95430  0.55500  0.12981  Biso   1.000  O
  H108     1.0000 0.89521  0.45511  0.97460  Biso   1.000  H
  H109     1.0000 0.16119  0.64290  0.92885  Biso   1.000  H
  C67      1.0000 0.91823  0.65371  0.37832  Biso   1.000  C
  H110     1.0000 0.13892  0.75401  0.06265  Biso   1.000  H
  C68      1.0000 0.90221  0.58549  0.19509  Biso   1.000  C
  C69      1.0000 0.88457  0.61519  0.43772  Biso   1.000  C
  O57      1.0000 0.89178  0.65700  0.23665  Biso   1.000  O
  H111     1.0000 0.88801  0.67939  0.43856  Biso   1.000  H
  C70      1.0000 0.92173  0.58079  0.34956  Biso   1.000  C
  H112     1.0000 0.83948  0.57971  0.17956  Biso   1.000  H
  C71      1.0000 0.92671  0.62750  0.14241  Biso   1.000  C
  O58      1.0000 0.90752  0.61099  0.58075  Biso   1.000  O
  H113     1.0000 0.81397  0.61399  0.42838  Biso   1.000  H
  O59      1.0000 0.88262  0.54521  0.39836  Biso   1.000  O
  H114     1.0000 0.98789  0.57741  0.37947  Biso   1.000  H
  H115     1.0000 0.00087  0.62859  0.13065  Biso   1.000  H
  C72      1.0000 0.88558  0.63911  0.00220  Biso   1.000  C
  H116     1.0000 0.96520  0.62289  0.60342  Biso   1.000  H
  H117     1.0000 0.92603  0.53091  0.44695  Biso   1.000  H
  H118     1.0000 0.91863  0.62201  0.91919  Biso   1.000  H
  H119     1.0000 0.90652  0.66981  0.99601  Biso   1.000  H
  O60      1.0000 0.79122  0.63391  0.00378  Biso   1.000  O
  H120     1.0000 0.78180  0.61531  0.93221  Biso   1.000  H
  O61      1.0000 0.62418  0.28900  0.19624  Biso   1.000  O
  C73      1.0000 0.63171  0.25351  0.27537  Biso   1.000  C
  H121     1.0000 0.56858  0.29999  0.19761  Biso   1.000  H
  C74      1.0000 0.59362  0.21770  0.20275  Biso   1.000  C
  H122     1.0000 0.59429  0.25851  0.37360  Biso   1.000  H
  H123     1.0000 0.69673  0.25031  0.29804  Biso   1.000  H
  O62      1.0000 0.49657  0.22149  0.20674  Biso   1.000  O
  C75      1.0000 0.62249  0.21361  0.04953  Biso   1.000  C
  H124     1.0000 0.61469  0.19281  0.26120  Biso   1.000  H
  C76      1.0000 0.45141  0.18841  0.14954  Biso   1.000  C
  C77      1.0000 0.57309  0.18130  0.97219  Biso   1.000  C
  O63      1.0000 0.71578  0.20251  0.04355  Biso   1.000  O
  H125     1.0000 0.61071  0.24440  0.99171  Biso   1.000  H
  O64      1.0000 0.47900  0.15330  0.21692  Biso   1.000  O
  H126     1.0000 0.37811  0.19370  0.16077  Biso   1.000  H
  C78      1.0000 0.47207  0.18429  0.99475  Biso   1.000  C
  H127     1.0000 0.60149  0.15239  0.01354  Biso   1.000  H
  O65      1.0000 0.58999  0.18429  0.82517  Biso   1.000  O
  C79      1.0000 0.77992  0.23151  0.00923  Biso   1.000  C
  C80      1.0000 0.42099  0.13561  0.31976  Biso   1.000  C
  O66      1.0000 0.43000  0.14919  0.94113  Biso   1.000  O
  H128     1.0000 0.44131  0.21241  0.93861  Biso   1.000  H
  H129     1.0000 0.64497  0.18961  0.80586  Biso   1.000  H
  O67      1.0000 0.83571  0.23929  0.12562  Biso   1.000  O
  C81      1.0000 0.83612  0.21661  0.88656  Biso   1.000  C
  H130     1.0000 0.74600  0.26121  0.98468  Biso   1.000  H
  C82      1.0000 0.41540  0.09240  0.27547  Biso   1.000  C
  C83      1.0000 0.46292  0.14090  0.46395  Biso   1.000  C
  H131     1.0000 0.35698  0.14651  0.33582  Biso   1.000  H
  H132     1.0000 0.37710  0.15671  0.89527  Biso   1.000  H
  C84      1.0000 0.88161  0.20489  0.17851  Biso   1.000  C
  O68      1.0000 0.77958  0.20539  0.77322  Biso   1.000  O
  C85      1.0000 0.89420  0.18159  0.92948  Biso   1.000  C
  H133     1.0000 0.88397  0.24041  0.84290  Biso   1.000  H
  C86      1.0000 0.37320  0.06819  0.39060  Biso   1.000  C
  O69      1.0000 0.36432  0.08861  0.14786  Biso   1.000  O
  H134     1.0000 0.48089  0.08029  0.25732  Biso   1.000  H
  O70      1.0000 0.42152  0.11490  0.56533  Biso   1.000  O
  C87      1.0000 0.45497  0.18150  0.52566  Biso   1.000  C
  H135     1.0000 0.53103  0.13500  0.46458  Biso   1.000  H
  C88      1.0000 0.94501  0.19040  0.06402  Biso   1.000  C
  C89      1.0000 0.92772  0.21720  0.31262  Biso   1.000  C
  H136     1.0000 0.83430  0.17959  0.20359  Biso   1.000  H
  H137     1.0000 0.76632  0.23239  0.71865  Biso   1.000  H
  O71      1.0000 0.95928  0.17251  0.82443  Biso   1.000  O
  H138     1.0000 0.85617  0.15450  0.93619  Biso   1.000  H
  C90      1.0000 0.42502  0.07500  0.52492  Biso   1.000  C
  O72      1.0000 0.37858  0.02691  0.35922  Biso   1.000  O
  H139     1.0000 0.30428  0.07929  0.39857  Biso   1.000  H
  H140     1.0000 0.39447  0.10979  0.07598  Biso   1.000  H
  O73      1.0000 0.36391  0.19440  0.54077  Biso   1.000  O
  H141     1.0000 0.48540  0.18409  0.62745  Biso   1.000  H
  H142     1.0000 0.48728  0.20160  0.44895  Biso   1.000  H
  O74      1.0000 0.98741  0.15421  0.10725  Biso   1.000  O
  H143     1.0000 0.99771  0.21159  0.03988  Biso   1.000  H
  H144     1.0000 0.97409  0.19320  0.34810  Biso   1.000  H
  H145     1.0000 0.96191  0.24179  0.29195  Biso   1.000  H
  O75      1.0000 0.86068  0.22390  0.41914  Biso   1.000  O
  H146     1.0000 0.93101  0.16470  0.73586  Biso   1.000  H
  O76      1.0000 0.51582  0.06349  0.49879  Biso   1.000  O
  H147     1.0000 0.39507  0.05861  0.60762  Biso   1.000  H
  H148     1.0000 0.32851  0.01689  0.33015  Biso   1.000  H
  H149     1.0000 0.33692  0.17871  0.62504  Biso   1.000  H
  C91      1.0000 0.08177  0.15371  0.12173  Biso   1.000  C
  H150     1.0000 0.86108  0.25401  0.43740  Biso   1.000  H
  C92      1.0000 0.56192  0.03881  0.59629  Biso   1.000  C
  C93      1.0000 0.11543  0.11519  0.06234  Biso   1.000  C
  H151     1.0000 0.11199  0.17939  0.06139  Biso   1.000  H
  O77      1.0000 0.10822  0.15700  0.26341  Biso   1.000  O
  C94      1.0000 0.59887  0.00511  0.50908  Biso   1.000  C
  C95      1.0000 0.63959  0.06181  0.66030  Biso   1.000  C
  H152     1.0000 0.51588  0.02929  0.66639  Biso   1.000  H
  O78      1.0000 0.09248  0.11099  0.91919  Biso   1.000  O
  C96      1.0000 0.07827  0.08079  0.15038  Biso   1.000  C
  H153     1.0000 0.18603  0.11399  0.07157  Biso   1.000  H
  C97      1.0000 0.07329  0.12750  0.35765  Biso   1.000  C
  H154     1.0000 0.64100  0.01569  0.42764  Biso   1.000  H
  C98      1.0000 0.65850  0.97899  0.60006  Biso   1.000  C
  O79      1.0000 0.52847  0.98261  0.44685  Biso   1.000  O
  O80      1.0000 0.69148  0.03540  0.74835  Biso   1.000  O
  C99      1.0000 0.61220  0.09701  0.74625  Biso   1.000  C
  H155     1.0000 0.68132  0.07430  0.57960  Biso   1.000  H
  H156     1.0000 0.03480  0.12289  0.89663  Biso   1.000  H
  O81      1.0000 0.11738  0.04521  0.10158  Biso   1.000  O
  C100     1.0000 0.09779  0.08549  0.30486  Biso   1.000  C
  H157     1.0000 0.01211  0.07741  0.12047  Biso   1.000  H
  H158     1.0000 0.99913  0.12859  0.36929  Biso   1.000  H
  C101     1.0000 0.11442  0.13911  0.49785  Biso   1.000  C
  C102     1.0000 0.73058  0.00379  0.67174  Biso   1.000  C
  O82      1.0000 0.69740  0.94709  0.52461  Biso   1.000  O
  H159     1.0000 0.61381  0.96569  0.68696  Biso   1.000  H
  H160     1.0000 0.48519  0.00150  0.40466  Biso   1.000  H
  O83      1.0000 0.54281  0.08740  0.84280  Biso   1.000  O
  H161     1.0000 0.67122  0.10841  0.80659  Biso   1.000  H
  H162     1.0000 0.58649  0.12219  0.66995  Biso   1.000  H
  H163     1.0000 0.07397  0.03091  0.05300  Biso   1.000  H
  H164     1.0000 0.16052  0.07971  0.32039  Biso   1.000  H
  O84      1.0000 0.04570  0.05500  0.37024  Biso   1.000  O
  H165     1.0000 0.08137  0.12201  0.58075  Biso   1.000  H
  H166     1.0000 0.09348  0.16981  0.50404  Biso   1.000  H
  O85      1.0000 0.20878  0.13391  0.49617  Biso   1.000  O
  O86      1.0000 0.78947  0.01730  0.56638  Biso   1.000  O
  H167     1.0000 0.76807  0.98481  0.74352  Biso   1.000  H
  H168     1.0000 0.74108  0.95869  0.47130  Biso   1.000  H
  H169     1.0000 0.50370  0.10891  0.85214  Biso   1.000  H
  C103     1.0000 0.05997  0.04759  0.51495  Biso   1.000  C
  H170     1.0000 0.21820  0.11531  0.56785  Biso   1.000  H
  C104     1.0000 0.88181  0.02380  0.60751  Biso   1.000  C
  O87      1.0000 0.00343  0.07110  0.59891  Biso   1.000  O
  C105     1.0000 0.03991  0.00520  0.55095  Biso   1.000  C
  H171     1.0000 0.13171  0.05309  0.53279  Biso   1.000  H
  C106     1.0000 0.90847  0.06601  0.57383  Biso   1.000  C
  H172     1.0000 0.89231  0.01589  0.72106  Biso   1.000  H
  C107     1.0000 0.94091  0.99530  0.52639  Biso   1.000  C
  O88      1.0000 0.09773  0.97949  0.47455  Biso   1.000  O
  H173     1.0000 0.04543  0.00041  0.66135  Biso   1.000  H
  C108     1.0000 0.86492  0.09610  0.66775  Biso   1.000  C
  H174     1.0000 0.88828  0.07180  0.46574  Biso   1.000  H
  O89      1.0000 0.92072  0.95640  0.57435  Biso   1.000  O
  H175     1.0000 0.93162  0.99809  0.40875  Biso   1.000  H
  H176     1.0000 0.10479  0.95511  0.52545  Biso   1.000  H
  O90      1.0000 0.88410  0.13479  0.61738  Biso   1.000  O
  H177     1.0000 0.89279  0.08990  0.77868  Biso   1.000  H
  H178     1.0000 0.79768  0.09231  0.68171  Biso   1.000  H
  H179     1.0000 0.93512  0.93819  0.50026  Biso   1.000  H
  H180     1.0000 0.83881  0.14290  0.57110  Biso   1.000  H
  O91      1.0000 0.66429  0.76071  0.62556  Biso   1.000  O
  C109     1.0000 0.72008  0.76849  0.50918  Biso   1.000  C
  C110     1.0000 0.61839  0.79511  0.67846  Biso   1.000  C
  O92      1.0000 0.78422  0.79749  0.54360  Biso   1.000  O
  C111     1.0000 0.66388  0.78339  0.38661  Biso   1.000  C
  H181     1.0000 0.75400  0.73879  0.48473  Biso   1.000  H
  C112     1.0000 0.55499  0.80960  0.56396  Biso   1.000  C
  C113     1.0000 0.57228  0.78280  0.81257  Biso   1.000  C
  H182     1.0000 0.66570  0.82041  0.70364  Biso   1.000  H
  C114     1.0000 0.87751  0.78639  0.54948  Biso   1.000  C
  O93      1.0000 0.72042  0.79461  0.27317  Biso   1.000  O
  C115     1.0000 0.60580  0.81841  0.42953  Biso   1.000  C
  H183     1.0000 0.61603  0.75959  0.34285  Biso   1.000  H
  O94      1.0000 0.51259  0.84579  0.60730  Biso   1.000  O
  H184     1.0000 0.50229  0.78841  0.53993  Biso   1.000  H
  H185     1.0000 0.52591  0.80680  0.84815  Biso   1.000  H
  H186     1.0000 0.53809  0.75821  0.79190  Biso   1.000  H
  O95      1.0000 0.63932  0.77610  0.91909  Biso   1.000  O
  C116     1.0000 0.90638  0.78230  0.70270  Biso   1.000  C
  C117     1.0000 0.92691  0.81870  0.47224  Biso   1.000  C
  H187     1.0000 0.88929  0.75560  0.49166  Biso   1.000  H
  H188     1.0000 0.73368  0.76761  0.21870  Biso   1.000  H
  O96      1.0000 0.54072  0.82749  0.32438  Biso   1.000  O
  H189     1.0000 0.64383  0.84550  0.43625  Biso   1.000  H
  C118     1.0000 0.41823  0.84629  0.62168  Biso   1.000  C
  H190     1.0000 0.63892  0.74599  0.93735  Biso   1.000  H
  C119     1.0000 0.86829  0.74649  0.77542  Biso   1.000  C
  H191     1.0000 0.88531  0.80719  0.76115  Biso   1.000  H
  O97      1.0000 0.00343  0.77851  0.70668  Biso   1.000  O
  O98      1.0000 0.91001  0.81571  0.32522  Biso   1.000  O
  H192     1.0000 0.89851  0.84761  0.51349  Biso   1.000  H
  C120     1.0000 0.02793  0.81571  0.49481  Biso   1.000  C
  H193     1.0000 0.56899  0.83530  0.23591  Biso   1.000  H
  C121     1.0000 0.38457  0.88481  0.56228  Biso   1.000  C
  H194     1.0000 0.38801  0.82061  0.56144  Biso   1.000  H
  O99      1.0000 0.39178  0.84300  0.76335  Biso   1.000  O
  O100     1.0000 0.87582  0.71100  0.69619  Biso   1.000  O
  H195     1.0000 0.90571  0.74149  0.87365  Biso   1.000  H
  H196     1.0000 0.80327  0.74969  0.79799  Biso   1.000  H
  C122     1.0000 0.04859  0.81159  0.64949  Biso   1.000  C
  H197     1.0000 0.85503  0.81039  0.30591  Biso   1.000  H
  O101     1.0000 0.07000  0.85081  0.44107  Biso   1.000  O
  H198     1.0000 0.05869  0.78759  0.43856  Biso   1.000  H
  O102     1.0000 0.40752  0.88901  0.41925  Biso   1.000  O
  C123     1.0000 0.42173  0.91921  0.65044  Biso   1.000  C
  H199     1.0000 0.31397  0.88601  0.57162  Biso   1.000  H
  C124     1.0000 0.42671  0.87250  0.85759  Biso   1.000  C
  H200     1.0000 0.93142  0.70001  0.69755  Biso   1.000  H
  O103     1.0000 0.02100  0.84670  0.71686  Biso   1.000  O
  H201     1.0000 0.12189  0.80630  0.66082  Biso   1.000  H
  H202     1.0000 0.12290  0.84329  0.39532  Biso   1.000  H
  H203     1.0000 0.46520  0.87711  0.39658  Biso   1.000  H
  O104     1.0000 0.38262  0.95479  0.60164  Biso   1.000  O
  C125     1.0000 0.40221  0.91451  0.80491  Biso   1.000  C
  H204     1.0000 0.48789  0.92259  0.62053  Biso   1.000  H
  H205     1.0000 0.50087  0.87141  0.86935  Biso   1.000  H
  C126     1.0000 0.38558  0.86089  0.99780  Biso   1.000  C
  C127     1.0000 0.07901  0.86439  0.81981  Biso   1.000  C
  H206     1.0000 0.42603  0.96909  0.55305  Biso   1.000  H
  H207     1.0000 0.33948  0.92029  0.82044  Biso   1.000  H
  O105     1.0000 0.45430  0.94500  0.87019  Biso   1.000  O
  O106     1.0000 0.29122  0.86609  0.99622  Biso   1.000  O
  H208     1.0000 0.41863  0.87799  0.08081  Biso   1.000  H
  H209     1.0000 0.40652  0.83019  0.00399  Biso   1.000  H
  C128     1.0000 0.08460  0.90760  0.77553  Biso   1.000  C
  C129     1.0000 0.03708  0.85910  0.96400  Biso   1.000  C
  H210     1.0000 0.14302  0.85349  0.83576  Biso   1.000  H
  C130     1.0000 0.44003  0.95241  0.01501  Biso   1.000  C
  H211     1.0000 0.28180  0.88469  0.06779  Biso   1.000  H
  C131     1.0000 0.12680  0.93181  0.89065  Biso   1.000  C
  O107     1.0000 0.13568  0.91139  0.64792  Biso   1.000  O
  H212     1.0000 0.01911  0.91971  0.75727  Biso   1.000  H
  H213     1.0000 0.96897  0.86500  0.96463  Biso   1.000  H
  O108     1.0000 0.07848  0.88510  0.06527  Biso   1.000  O
  C132     1.0000 0.04503  0.81850  0.02571  Biso   1.000  C
  C133     1.0000 0.46009  0.99480  0.05090  Biso   1.000  C
  O109     1.0000 0.49657  0.92890  0.09886  Biso   1.000  O
  H214     1.0000 0.36829  0.94691  0.03285  Biso   1.000  H
  O110     1.0000 0.12142  0.97309  0.85917  Biso   1.000  O
  H215     1.0000 0.19572  0.92071  0.89863  Biso   1.000  H
  C134     1.0000 0.07498  0.92500  0.02487  Biso   1.000  C
  H216     1.0000 0.10553  0.89021  0.57603  Biso   1.000  H
  H217     1.0000 0.01272  0.79840  0.94889  Biso   1.000  H
  O111     1.0000 0.13609  0.80560  0.04082  Biso   1.000  O
  H218     1.0000 0.01460  0.81591  0.12751  Biso   1.000  H
  H219     1.0000 0.45457  0.99959  0.16130  Biso   1.000  H
  O112     1.0000 0.40227  0.02051  0.97460  Biso   1.000  O
  C135     1.0000 0.55909  0.00470  0.02645  Biso   1.000  C
  C136     1.0000 0.59153  0.93399  0.07377  Biso   1.000  C
  H220     1.0000 0.17149  0.98311  0.83020  Biso   1.000  H
  O113     1.0000 0.98418  0.93651  0.99885  Biso   1.000  O
  H221     1.0000 0.10493  0.94139  0.10757  Biso   1.000  H
  H222     1.0000 0.16308  0.82129  0.12499  Biso   1.000  H
  H223     1.0000 0.39521  0.04489  0.02540  Biso   1.000  H
  C137     1.0000 0.61819  0.97620  0.10746  Biso   1.000  C
  H224     1.0000 0.56838  0.00191  0.90880  Biso   1.000  H
  O114     1.0000 0.57928  0.04360  0.07430  Biso   1.000  O
  H225     1.0000 0.61172  0.92820  0.96568  Biso   1.000  H
  C138     1.0000 0.63508  0.90390  0.16770  Biso   1.000  C
  C139     1.0000 0.93808  0.96119  0.09634  Biso   1.000  C
  O115     1.0000 0.71053  0.98270  0.06643  Biso   1.000  O
  H226     1.0000 0.60769  0.98411  0.22111  Biso   1.000  H
  H227     1.0000 0.56488  0.06181  0.00031  Biso   1.000  H
  O116     1.0000 0.61590  0.86521  0.11743  Biso   1.000  O
  H228     1.0000 0.60721  0.91010  0.27873  Biso   1.000  H
  H229     1.0000 0.70232  0.90769  0.18166  Biso   1.000  H
  C140     1.0000 0.90113  0.99489  0.00913  Biso   1.000  C
  C141     1.0000 0.86041  0.93819  0.16025  Biso   1.000  C
  H230     1.0000 0.98412  0.97071  0.16644  Biso   1.000  H
  C142     1.0000 0.76942  0.99621  0.17169  Biso   1.000  C
  H231     1.0000 0.66119  0.85710  0.07115  Biso   1.000  H
  H232     1.0000 0.85900  0.98431  0.92759  Biso   1.000  H
  O117     1.0000 0.97153  0.01739  0.94679  Biso   1.000  O
  C143     1.0000 0.84150  0.02101  0.10012  Biso   1.000  C
  O118     1.0000 0.80852  0.96460  0.24829  Biso   1.000  O
  C144     1.0000 0.88780  0.90299  0.24620  Biso   1.000  C
  H233     1.0000 0.81868  0.92570  0.07965  Biso   1.000  H
  H234     1.0000 0.73193  0.01519  0.24347  Biso   1.000  H
  H235     1.0000 0.01481  0.99850  0.90471  Biso   1.000  H
  O119     1.0000 0.80260  0.05291  0.02456  Biso   1.000  O
  H236     1.0000 0.88619  0.03431  0.18701  Biso   1.000  H
  O120     1.0000 0.95719  0.91260  0.34285  Biso   1.000  O
  H237     1.0000 0.82878  0.89159  0.30664  Biso   1.000  H
  H238     1.0000 0.91351  0.87781  0.17001  Biso   1.000  H
  H239     1.0000 0.75892  0.04131  0.97135  Biso   1.000  H
  H240     1.0000 0.99630  0.89109  0.35208  Biso   1.000  H
