data_image0
_cell_length_a       15.236
_cell_length_b       14.097
_cell_length_c       24.41
_cell_angle_alpha    90
_cell_angle_beta     90.67
_cell_angle_gamma    90

_symmetry_space_group_name_H-M    "P 1"
_symmetry_int_tables_number       1

loop_
  _symmetry_equiv_pos_as_xyz
  'x, y, z'

loop_
  _atom_site_label
  _atom_site_occupancy
  _atom_site_fract_x
  _atom_site_fract_y
  _atom_site_fract_z
  _atom_site_thermal_displace_type
  _atom_site_B_iso_or_equiv
  _atom_site_type_symbol
  C1       1.0000 0.64582  0.52380  0.42969  Biso   1.000  C
  C2       1.0000 0.58189  0.52820  0.38409  Biso   1.000  C
  O1       1.0000 0.69351  0.60602  0.43198  Biso   1.000  O
  N1       1.0000 0.51950  0.61020  0.38901  Biso   1.000  N
  C3       1.0000 0.74782  0.61588  0.48279  Biso   1.000  C
  C4       1.0000 0.42699  0.59573  0.37028  Biso   1.000  C
  C5       1.0000 0.79938  0.70079  0.48131  Biso   1.000  C
  C6       1.0000 0.37001  0.68100  0.37299  Biso   1.000  C
  N2       1.0000 0.86639  0.68468  0.43919  Biso   1.000  N
  N3       1.0000 0.39682  0.75988  0.33259  Biso   1.000  N
  C7       1.0000 0.94372  0.74129  0.45001  Biso   1.000  C
  C8       1.0000 0.35508  0.85451  0.34681  Biso   1.000  C
  C9       1.0000 0.36739  0.73101  0.27532  Biso   1.000  C
  C10      1.0000 0.01050  0.73108  0.40269  Biso   1.000  C
  C11      1.0000 0.40852  0.90459  0.39298  Biso   1.000  C
  C12      1.0000 0.42652  0.78357  0.23299  Biso   1.000  C
  N4       1.0000 0.97611  0.78322  0.35381  Biso   1.000  N
  N5       1.0000 0.50218  0.92098  0.37930  Biso   1.000  N
  N6       1.0000 0.51763  0.75271  0.23680  Biso   1.000  N
  C13      1.0000 0.00190  0.88799  0.35381  Biso   1.000  C
  C14      1.0000 0.01321  0.73328  0.30219  Biso   1.000  C
  C15      1.0000 0.56053  0.96389  0.42449  Biso   1.000  C
  C16      1.0000 0.57978  0.80663  0.19780  Biso   1.000  C
  C17      1.0000 0.94710  0.94488  0.31911  Biso   1.000  C
  C18      1.0000 0.95670  0.65092  0.28830  Biso   1.000  C
  C19      1.0000 0.62401  0.03618  0.40060  Biso   1.000  C
  C20      1.0000 0.64300  0.73924  0.17428  Biso   1.000  C
  N7       1.0000 0.86000  0.95949  0.34689  Biso   1.000  N
  N8       1.0000 0.87338  0.68383  0.25852  Biso   1.000  N
  O2       1.0000 0.68000  0.98617  0.36979  Biso   1.000  O
  O3       1.0000 0.69699  0.70582  0.21861  Biso   1.000  O
  C21      1.0000 0.79697  0.01773  0.31411  Biso   1.000  C
  C22      1.0000 0.81268  0.60197  0.24541  Biso   1.000  C
  C23      1.0000 0.73049  0.05973  0.34222  Biso   1.000  C
  C24      1.0000 0.74628  0.62843  0.20059  Biso   1.000  C
  C25      1.0000 0.35421  0.47620  0.57030  Biso   1.000  C
  O4       1.0000 0.30652  0.39398  0.56800  Biso   1.000  O
  C26      1.0000 0.41808  0.47180  0.61590  Biso   1.000  C
  C27      1.0000 0.25221  0.38412  0.51720  Biso   1.000  C
  N9       1.0000 0.48047  0.38980  0.61098  Biso   1.000  N
  C28      1.0000 0.20058  0.29921  0.51872  Biso   1.000  C
  C29      1.0000 0.57297  0.40427  0.62970  Biso   1.000  C
  N10      1.0000 0.13357  0.31532  0.56079  Biso   1.000  N
  C30      1.0000 0.63002  0.31900  0.62700  Biso   1.000  C
  C31      1.0000 0.05631  0.25871  0.55002  Biso   1.000  C
  N11      1.0000 0.60321  0.24012  0.66740  Biso   1.000  N
  C32      1.0000 0.98953  0.26892  0.59730  Biso   1.000  C
  C33      1.0000 0.64488  0.14549  0.65322  Biso   1.000  C
  C34      1.0000 0.63257  0.26899  0.72471  Biso   1.000  C
  N12      1.0000 0.02392  0.21678  0.64621  Biso   1.000  N
  C35      1.0000 0.59151  0.09541  0.60701  Biso   1.000  C
  C36      1.0000 0.57351  0.21643  0.76699  Biso   1.000  C
  C37      1.0000 0.99813  0.11201  0.64621  Biso   1.000  C
  C38      1.0000 0.98682  0.26672  0.69779  Biso   1.000  C
  N13      1.0000 0.49778  0.07902  0.62069  Biso   1.000  N
  N14      1.0000 0.48240  0.24729  0.76318  Biso   1.000  N
  C39      1.0000 0.05292  0.05512  0.68092  Biso   1.000  C
  C40      1.0000 0.04333  0.34908  0.71168  Biso   1.000  C
  C41      1.0000 0.43950  0.03611  0.57550  Biso   1.000  C
  C42      1.0000 0.42019  0.19337  0.80219  Biso   1.000  C
  N15      1.0000 0.14002  0.04051  0.65310  Biso   1.000  N
  N16      1.0000 0.12659  0.31617  0.74151  Biso   1.000  N
  C43      1.0000 0.37602  0.96382  0.59939  Biso   1.000  C
  C44      1.0000 0.35703  0.26076  0.82570  Biso   1.000  C
  C45      1.0000 0.20299  0.98227  0.68591  Biso   1.000  C
  C46      1.0000 0.18728  0.39803  0.75462  Biso   1.000  C
  O5       1.0000 0.32002  0.01383  0.63019  Biso   1.000  O
  O6       1.0000 0.30297  0.29418  0.78141  Biso   1.000  O
  C47      1.0000 0.26948  0.94027  0.65781  Biso   1.000  C
  C48      1.0000 0.25369  0.37157  0.79940  Biso   1.000  C
  C49      1.0000 0.57982  0.69341  0.69779  Biso   1.000  C
  C50      1.0000 0.64298  0.76080  0.67432  Biso   1.000  C
  N17      1.0000 0.51761  0.74732  0.73680  Biso   1.000  N
  O7       1.0000 0.69698  0.79421  0.71861  Biso   1.000  O
  C51      1.0000 0.42650  0.71639  0.73299  Biso   1.000  C
  C52      1.0000 0.74632  0.87160  0.70058  Biso   1.000  C
  C53      1.0000 0.36737  0.76903  0.77531  Biso   1.000  C
  C54      1.0000 0.81273  0.89799  0.74540  Biso   1.000  C
  N18      1.0000 0.39680  0.74009  0.83258  Biso   1.000  N
  N19      1.0000 0.87343  0.81620  0.75851  Biso   1.000  N
  C55      1.0000 0.36999  0.81897  0.87298  Biso   1.000  C
  C56      1.0000 0.35513  0.64553  0.84680  Biso   1.000  C
  C57      1.0000 0.95668  0.84912  0.78830  Biso   1.000  C
  C58      1.0000 0.42698  0.90431  0.87032  Biso   1.000  C
  C59      1.0000 0.40850  0.59537  0.89301  Biso   1.000  C
  C60      1.0000 0.01319  0.76669  0.80219  Biso   1.000  C
  N20      1.0000 0.51948  0.88983  0.88900  Biso   1.000  N
  N21      1.0000 0.50223  0.57899  0.87929  Biso   1.000  N
  N22      1.0000 0.97609  0.71682  0.85381  Biso   1.000  N
  C61      1.0000 0.58187  0.97177  0.88408  Biso   1.000  C
  C62      1.0000 0.56051  0.53607  0.92452  Biso   1.000  C
  C63      1.0000 0.01048  0.76889  0.90268  Biso   1.000  C
  C64      1.0000 0.00188  0.61197  0.85381  Biso   1.000  C
  C65      1.0000 0.64580  0.97617  0.92968  Biso   1.000  C
  C66      1.0000 0.62399  0.46379  0.90059  Biso   1.000  C
  C67      1.0000 0.94370  0.75867  0.95000  Biso   1.000  C
  C68      1.0000 0.94709  0.55508  0.81911  Biso   1.000  C
  O8       1.0000 0.69349  0.89402  0.93202  Biso   1.000  O
  O9       1.0000 0.67999  0.51380  0.86978  Biso   1.000  O
  N23      1.0000 0.86637  0.81528  0.93919  Biso   1.000  N
  N24      1.0000 0.85999  0.54047  0.84688  Biso   1.000  N
  C69      1.0000 0.74780  0.88409  0.98282  Biso   1.000  C
  C70      1.0000 0.73053  0.44031  0.84221  Biso   1.000  C
  C71      1.0000 0.79943  0.79918  0.98130  Biso   1.000  C
  C72      1.0000 0.79702  0.48230  0.81411  Biso   1.000  C
  C73      1.0000 0.42021  0.30659  0.30219  Biso   1.000  C
  C74      1.0000 0.35698  0.23920  0.32571  Biso   1.000  C
  N25      1.0000 0.48242  0.25268  0.26319  Biso   1.000  N
  O10      1.0000 0.30299  0.20579  0.28142  Biso   1.000  O
  C75      1.0000 0.57352  0.28361  0.26700  Biso   1.000  C
  C76      1.0000 0.25371  0.12840  0.29941  Biso   1.000  C
  C77      1.0000 0.63259  0.23097  0.22472  Biso   1.000  C
  C78      1.0000 0.18730  0.10201  0.25459  Biso   1.000  C
  N26      1.0000 0.60323  0.25991  0.16740  Biso   1.000  N
  N27      1.0000 0.12660  0.18380  0.24152  Biso   1.000  N
  C79      1.0000 0.62997  0.18103  0.12701  Biso   1.000  C
  C80      1.0000 0.64490  0.35447  0.15319  Biso   1.000  C
  C81      1.0000 0.04328  0.15088  0.21169  Biso   1.000  C
  C82      1.0000 0.57299  0.09569  0.12971  Biso   1.000  C
  C83      1.0000 0.59153  0.40463  0.10701  Biso   1.000  C
  C84      1.0000 0.98677  0.23331  0.19780  Biso   1.000  C
  N28      1.0000 0.48049  0.11017  0.11099  Biso   1.000  N
  N29      1.0000 0.49780  0.42101  0.12070  Biso   1.000  N
  N30      1.0000 0.02387  0.28318  0.14618  Biso   1.000  N
  C85      1.0000 0.41809  0.02823  0.11590  Biso   1.000  C
  C86      1.0000 0.43952  0.46393  0.07551  Biso   1.000  C
  C87      1.0000 0.98948  0.23111  0.09730  Biso   1.000  C
  C88      1.0000 0.99808  0.38803  0.14618  Biso   1.000  C
  C89      1.0000 0.35423  0.02383  0.07030  Biso   1.000  C
  C90      1.0000 0.37598  0.53621  0.09939  Biso   1.000  C
  C91      1.0000 0.05633  0.24133  0.04998  Biso   1.000  C
  C92      1.0000 0.05288  0.44492  0.18088  Biso   1.000  C
  O11      1.0000 0.30647  0.10598  0.06801  Biso   1.000  O
  O12      1.0000 0.31998  0.48620  0.13020  Biso   1.000  O
  N31      1.0000 0.13359  0.18472  0.06080  Biso   1.000  N
  N32      1.0000 0.13998  0.45953  0.15310  Biso   1.000  N
  C93      1.0000 0.25223  0.11591  0.01721  Biso   1.000  C
  C94      1.0000 0.26950  0.55969  0.15781  Biso   1.000  C
  C95      1.0000 0.20060  0.20082  0.01868  Biso   1.000  C
  C96      1.0000 0.20301  0.51770  0.18592  Biso   1.000  C
  Ne1      1.0000 0.31193  0.26895  0.15882  Biso   1.000  Ne
  He1      1.0000 0.20722  0.35073  0.24873  Biso   1.000  He
  He2      1.0000 0.32468  0.13422  0.18737  Biso   1.000  He
  He3      1.0000 0.40953  0.26288  0.05502  Biso   1.000  He
  Ar1      1.0000 0.31199  0.26760  0.15739  Biso   1.000  Ar
  Ne2      1.0000 0.68806  0.76894  0.34118  Biso   1.000  Ne
  He4      1.0000 0.00000  0.00000  0.00000  Biso   1.000  He
  He5      1.0000 0.61730  0.66581  0.30778  Biso   1.000  He
  He6      1.0000 0.69912  0.85757  0.28163  Biso   1.000  He
  Ar2      1.0000 0.68800  0.76760  0.34262  Biso   1.000  Ar
  Ne3      1.0000 0.31194  0.23106  0.65882  Biso   1.000  Ne
  He7      1.0000 0.23120  0.17474  0.71105  Biso   1.000  He
  He8      1.0000 0.38487  0.34053  0.69506  Biso   1.000  He
  He9      1.0000 0.40754  0.23638  0.55827  Biso   1.000  He
  Ar3      1.0000 0.31200  0.23229  0.65747  Biso   1.000  Ar
  Ne4      1.0000 0.68806  0.73105  0.84118  Biso   1.000  Ne
  He10     1.0000 0.66406  0.70663  0.91750  Biso   1.000  He
  He11     1.0000 0.80121  0.89592  0.85516  Biso   1.000  He
  He12     1.0000 0.79224  0.64984  0.75214  Biso   1.000  He
  Ar4      1.0000 0.68800  0.73240  0.84263  Biso   1.000  Ar
