data_image0
_cell_length_a       11.186
_cell_length_b       11.186
_cell_length_c       24.801
_cell_angle_alpha    90
_cell_angle_beta     90
_cell_angle_gamma    120

_symmetry_space_group_name_H-M    "P 1"
_symmetry_int_tables_number       1

loop_
  _symmetry_equiv_pos_as_xyz
  'x, y, z'

loop_
  _atom_site_label
  _atom_site_occupancy
  _atom_site_fract_x
  _atom_site_fract_y
  _atom_site_fract_z
  _atom_site_thermal_displace_type
  _atom_site_B_iso_or_equiv
  _atom_site_type_symbol
  C1       1.0000 0.30078  0.71867  0.72420  Biso   1.000  C
  C2       1.0000 0.40010  0.66468  0.72929  Biso   1.000  C
  N1       1.0000 0.16170  0.61627  0.74509  Biso   1.000  N
  H1       1.0000 0.29501  0.75005  0.68300  Biso   1.000  H
  H2       1.0000 0.32200  0.79599  0.74400  Biso   1.000  H
  N2       1.0000 0.37892  0.55598  0.69009  Biso   1.000  N
  H3       1.0000 0.38104  0.62102  0.76501  Biso   1.000  H
  H4       1.0000 0.48496  0.73498  0.72300  Biso   1.000  H
  C3       1.0000 0.07055  0.67748  0.75719  Biso   1.000  C
  H5       1.0000 0.12499  0.52997  0.71602  Biso   1.000  H
  H6       1.0000 0.15802  0.56796  0.77799  Biso   1.000  H
  C4       1.0000 0.44772  0.62349  0.63832  Biso   1.000  C
  C5       1.0000 0.43813  0.47433  0.71050  Biso   1.000  C
  C6       1.0000 0.04796  0.74798  0.71110  Biso   1.000  C
  H7       1.0000 0.12098  0.74902  0.79299  Biso   1.000  H
  H8       1.0000 0.98597  0.61203  0.77299  Biso   1.000  H
  C7       1.0000 0.40313  0.52574  0.59115  Biso   1.000  C
  H9       1.0000 0.49701  0.69400  0.63135  Biso   1.000  H
  C8       1.0000 0.34295  0.36604  0.75082  Biso   1.000  C
  H10      1.0000 0.44099  0.42499  0.68199  Biso   1.000  H
  H11      1.0000 0.52701  0.52997  0.73299  Biso   1.000  H
  O1       1.0000 0.00001  0.65477  0.66663  Biso   1.000  O
  H12      1.0000 0.14504  0.82200  0.69699  Biso   1.000  H
  H13      1.0000 0.95398  0.75098  0.71199  Biso   1.000  H
  N3       1.0000 0.25871  0.48166  0.57473  Biso   1.000  N
  H14      1.0000 0.45498  0.57704  0.55933  Biso   1.000  H
  H15      1.0000 0.40494  0.44997  0.60534  Biso   1.000  H
  N4       1.0000 0.20962  0.26529  0.72449  Biso   1.000  N
  H16      1.0000 0.33104  0.41301  0.78698  Biso   1.000  H
  H17      1.0000 0.38699  0.31804  0.76699  Biso   1.000  H
  C9       1.0000 0.95199  0.69998  0.62223  Biso   1.000  C
  C10      1.0000 0.21794  0.40083  0.52333  Biso   1.000  C
  H18      1.0000 0.23502  0.55103  0.56933  Biso   1.000  H
  H19      1.0000 0.19897  0.43603  0.60034  Biso   1.000  H
  C11      1.0000 0.11432  0.14586  0.75888  Biso   1.000  C
  H20      1.0000 0.21103  0.23505  0.68501  Biso   1.000  H
  H21      1.0000 0.17203  0.30400  0.71199  Biso   1.000  H
  C12      1.0000 0.92940  0.60687  0.57615  Biso   1.000  C
  H22      1.0000 0.04601  0.79702  0.62135  Biso   1.000  H
  H23      1.0000 0.85502  0.67696  0.63635  Biso   1.000  H
  C13      1.0000 0.07326  0.35964  0.50724  Biso   1.000  C
  H24      1.0000 0.28298  0.47103  0.49732  Biso   1.000  H
  H25      1.0000 0.22904  0.30700  0.53333  Biso   1.000  H
  C14      1.0000 0.07118  0.19242  0.80799  Biso   1.000  C
  H26      1.0000 0.15096  0.10096  0.76799  Biso   1.000  H
  H27      1.0000 0.01998  0.08000  0.73501  Biso   1.000  H
  N5       1.0000 0.83834  0.45461  0.58824  Biso   1.000  N
  H28      1.0000 0.01395  0.62597  0.56034  Biso   1.000  H
  H29      1.0000 0.87901  0.62803  0.54034  Biso   1.000  H
  H30      1.0000 0.05206  0.32403  0.46732  Biso   1.000  H
  H31      1.0000 0.05397  0.41601  0.50635  Biso   1.000  H
  O2       1.0000 0.97768  0.25931  0.54312  Biso   1.000  O
  O3       1.0000 0.02226  0.28160  0.79021  Biso   1.000  O
  H32      1.0000 0.15306  0.25105  0.83601  Biso   1.000  H
  H33      1.0000 0.01003  0.12305  0.83101  Biso   1.000  H
  C15      1.0000 0.69919  0.41786  0.60913  Biso   1.000  C
  H34      1.0000 0.87502  0.40496  0.61731  Biso   1.000  H
  H35      1.0000 0.84197  0.41002  0.55534  Biso   1.000  H
  C16      1.0000 0.92882  0.12119  0.52534  Biso   1.000  C
  C17      1.0000 0.92675  0.28635  0.82610  Biso   1.000  C
  C18      1.0000 0.59992  0.26457  0.60405  Biso   1.000  C
  H36      1.0000 0.70498  0.45503  0.65034  Biso   1.000  H
  H37      1.0000 0.67801  0.47402  0.58933  Biso   1.000  H
  C19      1.0000 0.88572  0.03159  0.57445  Biso   1.000  C
  H38      1.0000 0.84694  0.09796  0.49732  Biso   1.000  H
  H39      1.0000 0.99001  0.11303  0.50232  Biso   1.000  H
  C20      1.0000 0.78214  0.18292  0.81001  Biso   1.000  C
  H40      1.0000 0.94800  0.27200  0.86601  Biso   1.000  H
  H41      1.0000 0.94598  0.36202  0.82698  Biso   1.000  H
  N6       1.0000 0.62111  0.17714  0.64324  Biso   1.000  N
  H42      1.0000 0.61902  0.24000  0.56832  Biso   1.000  H
  H43      1.0000 0.51505  0.25002  0.61034  Biso   1.000  H
  H44      1.0000 0.84906  0.95004  0.56534  Biso   1.000  H
  N7       1.0000 0.79043  0.05574  0.60885  Biso   1.000  N
  H45      1.0000 0.98001  0.05998  0.59832  Biso   1.000  H
  N8       1.0000 0.74129  0.22297  0.75860  Biso   1.000  N
  H46      1.0000 0.71700  0.18798  0.83601  Biso   1.000  H
  H47      1.0000 0.77101  0.07804  0.80001  Biso   1.000  H
  C21      1.0000 0.56192  0.03623  0.62284  Biso   1.000  C
  C22      1.0000 0.55232  0.17580  0.69501  Biso   1.000  C
  C23      1.0000 0.65710  0.02312  0.58252  Biso   1.000  C
  H48      1.0000 0.78902  0.02395  0.64832  Biso   1.000  H
  H49      1.0000 0.82804  0.13203  0.62135  Biso   1.000  H
  C24      1.0000 0.59690  0.12263  0.74219  Biso   1.000  C
  H50      1.0000 0.76500  0.31598  0.76400  Biso   1.000  H
  H51      1.0000 0.80097  0.23701  0.73299  Biso   1.000  H
  H52      1.0000 0.55896  0.98400  0.65134  Biso   1.000  H
  H53      1.0000 0.47298  0.00299  0.60034  Biso   1.000  H
  H54      1.0000 0.50300  0.19696  0.70199  Biso   1.000  H
  H55      1.0000 0.61303  0.93104  0.56635  Biso   1.000  H
  H56      1.0000 0.66900  0.08196  0.54635  Biso   1.000  H
  H57      1.0000 0.54501  0.12201  0.77400  Biso   1.000  H
  H58      1.0000 0.59500  0.04501  0.72799  Biso   1.000  H
  C25      1.0000 0.64037  0.71361  0.84057  Biso   1.000  C
  O4       1.0000 0.74064  0.71836  0.87646  Biso   1.000  O
  C26      1.0000 0.59926  0.81715  0.85666  Biso   1.000  C
  H59      1.0000 0.67598  0.72796  0.80065  Biso   1.000  H
  H60      1.0000 0.58400  0.63805  0.83968  Biso   1.000  H
  C27      1.0000 0.87879  0.80765  0.85868  Biso   1.000  C
  N9       1.0000 0.51830  0.77699  0.90807  Biso   1.000  N
  H61      1.0000 0.52900  0.81199  0.83065  Biso   1.000  H
  H62      1.0000 0.69300  0.92203  0.86666  Biso   1.000  H
  C28      1.0000 0.96844  0.85410  0.90779  Biso   1.000  C
  H63      1.0000 0.90204  0.74902  0.83065  Biso   1.000  H
  H64      1.0000 0.88702  0.87702  0.83565  Biso   1.000  H
  C29      1.0000 0.47430  0.87743  0.92448  Biso   1.000  C
  H65      1.0000 0.44900  0.68398  0.90267  Biso   1.000  H
  H66      1.0000 0.56394  0.76295  0.93367  Biso   1.000  H
  N10      1.0000 0.94431  0.73467  0.94218  Biso   1.000  N
  H67      1.0000 0.93996  0.91996  0.93166  Biso   1.000  H
  H68      1.0000 0.04999  0.89901  0.89867  Biso   1.000  H
  C30      1.0000 0.37650  0.82417  0.97165  Biso   1.000  C
  H69      1.0000 0.42302  0.87805  0.89267  Biso   1.000  H
  H70      1.0000 0.54998  0.95496  0.93867  Biso   1.000  H
  C31      1.0000 0.97694  0.63402  0.91585  Biso   1.000  C
  H71      1.0000 0.97602  0.76502  0.98165  Biso   1.000  H
  H72      1.0000 0.86800  0.69596  0.95468  Biso   1.000  H
  H73      1.0000 0.30603  0.80301  0.96468  Biso   1.000  H
  N11      1.0000 0.44400  0.82293  0.02343  Biso   1.000  N
  C32      1.0000 0.96383  0.52574  0.95617  Biso   1.000  C
  H74      1.0000 0.91801  0.58695  0.87968  Biso   1.000  H
  H75      1.0000 0.06897  0.68202  0.89968  Biso   1.000  H
  C33      1.0000 0.33533  0.73539  0.06262  Biso   1.000  C
  C34      1.0000 0.52572  0.96383  0.04383  Biso   1.000  C
  N12      1.0000 0.82292  0.44398  0.97657  Biso   1.000  N
  H76      1.0000 0.99702  0.46999  0.93367  Biso   1.000  H
  H77      1.0000 0.01599  0.57498  0.98468  Biso   1.000  H
  C35      1.0000 0.28131  0.58210  0.05754  Biso   1.000  C
  H78      1.0000 0.37900  0.75996  0.09834  Biso   1.000  H
  H79      1.0000 0.26507  0.75005  0.05633  Biso   1.000  H
  C36      1.0000 0.63401  0.97694  0.08415  Biso   1.000  C
  H80      1.0000 0.46997  0.99697  0.06633  Biso   1.000  H
  H81      1.0000 0.57494  0.01596  0.01532  Biso   1.000  H
  C37      1.0000 0.73540  0.33528  0.93738  Biso   1.000  C
  C38      1.0000 0.82421  0.37647  0.02835  Biso   1.000  C
  N13      1.0000 0.38371  0.54535  0.07842  Biso   1.000  N
  H82      1.0000 0.24999  0.54504  0.01633  Biso   1.000  H
  H83      1.0000 0.20402  0.52605  0.07734  Biso   1.000  H
  N14      1.0000 0.73472  0.94432  0.05782  Biso   1.000  N
  H84      1.0000 0.58702  0.91800  0.12032  Biso   1.000  H
  H85      1.0000 0.68197  0.06892  0.10032  Biso   1.000  H
  C39      1.0000 0.58209  0.28129  0.94246  Biso   1.000  C
  H86      1.0000 0.76006  0.37905  0.90166  Biso   1.000  H
  H87      1.0000 0.74996  0.26498  0.94367  Biso   1.000  H
  C40      1.0000 0.87743  0.47433  0.07552  Biso   1.000  C
  H88      1.0000 0.80299  0.30597  0.03532  Biso   1.000  H
  C41      1.0000 0.32251  0.39309  0.09052  Biso   1.000  C
  H89      1.0000 0.47004  0.59500  0.04935  Biso   1.000  H
  H90      1.0000 0.43198  0.59005  0.11133  Biso   1.000  H
  C42      1.0000 0.85411  0.96838  0.09221  Biso   1.000  C
  H91      1.0000 0.76505  0.97601  0.01835  Biso   1.000  H
  H92      1.0000 0.69604  0.86804  0.04532  Biso   1.000  H
  N15      1.0000 0.54541  0.38370  0.92158  Biso   1.000  N
  H93      1.0000 0.54500  0.25002  0.98367  Biso   1.000  H
  H94      1.0000 0.52600  0.20398  0.92266  Biso   1.000  H
  N16      1.0000 0.77703  0.51830  0.09193  Biso   1.000  N
  H95      1.0000 0.87797  0.42303  0.10733  Biso   1.000  H
  H96      1.0000 0.95495  0.55000  0.06133  Biso   1.000  H
  C43      1.0000 0.25199  0.29998  0.04443  Biso   1.000  C
  H97      1.0000 0.25101  0.37203  0.12633  Biso   1.000  H
  H98      1.0000 0.38796  0.37399  0.10633  Biso   1.000  H
  C44      1.0000 0.80762  0.87877  0.14132  Biso   1.000  C
  H99      1.0000 0.92002  0.93999  0.06834  Biso   1.000  H
  H100     1.0000 0.89900  0.04992  0.10133  Biso   1.000  H
  C45      1.0000 0.39305  0.32248  0.90948  Biso   1.000  C
  H101     1.0000 0.59500  0.46999  0.95065  Biso   1.000  H
  H102     1.0000 0.59004  0.43201  0.88867  Biso   1.000  H
  C46      1.0000 0.81714  0.59923  0.14334  Biso   1.000  C
  H103     1.0000 0.68402  0.44904  0.09733  Biso   1.000  H
  H104     1.0000 0.76298  0.56403  0.06633  Biso   1.000  H
  O5       1.0000 0.34522  0.34519  0.99996  Biso   1.000  O
  H105     1.0000 0.17804  0.32300  0.03032  Biso   1.000  H
  H106     1.0000 0.24903  0.20305  0.04532  Biso   1.000  H
  O6       1.0000 0.71835  0.74066  0.12354  Biso   1.000  O
  H107     1.0000 0.74896  0.90200  0.16935  Biso   1.000  H
  H108     1.0000 0.87700  0.88703  0.16435  Biso   1.000  H
  C47      1.0000 0.29996  0.25198  0.95557  Biso   1.000  C
  H109     1.0000 0.37199  0.25105  0.87367  Biso   1.000  H
  H110     1.0000 0.37397  0.38803  0.89367  Biso   1.000  H
  C48      1.0000 0.71365  0.64042  0.15943  Biso   1.000  C
  H111     1.0000 0.81199  0.52904  0.16935  Biso   1.000  H
  H112     1.0000 0.92202  0.69296  0.13334  Biso   1.000  H
  H113     1.0000 0.32302  0.17796  0.96968  Biso   1.000  H
  H114     1.0000 0.20298  0.24898  0.95468  Biso   1.000  H
  H115     1.0000 0.72806  0.67604  0.19935  Biso   1.000  H
  H116     1.0000 0.63795  0.58396  0.16032  Biso   1.000  H
  C49      1.0000 0.35957  0.07315  0.49276  Biso   1.000  C
  O7       1.0000 0.25926  0.97767  0.45688  Biso   1.000  O
  C50      1.0000 0.40082  0.21788  0.47667  Biso   1.000  C
  H117     1.0000 0.32396  0.05199  0.53268  Biso   1.000  H
  H118     1.0000 0.41594  0.05395  0.49365  Biso   1.000  H
  C51      1.0000 0.12122  0.92884  0.47466  Biso   1.000  C
  N17      1.0000 0.48164  0.25865  0.42527  Biso   1.000  N
  H119     1.0000 0.47103  0.28301  0.50268  Biso   1.000  H
  H120     1.0000 0.30693  0.22892  0.46667  Biso   1.000  H
  C52      1.0000 0.03162  0.88569  0.42555  Biso   1.000  C
  H121     1.0000 0.09799  0.84698  0.50268  Biso   1.000  H
  H122     1.0000 0.11298  0.98995  0.49768  Biso   1.000  H
  C53      1.0000 0.52569  0.40307  0.40885  Biso   1.000  C
  H123     1.0000 0.55099  0.23501  0.43067  Biso   1.000  H
  H124     1.0000 0.43598  0.19899  0.39966  Biso   1.000  H
  N18      1.0000 0.05567  0.79041  0.39115  Biso   1.000  N
  H125     1.0000 0.06002  0.98004  0.40168  Biso   1.000  H
  H126     1.0000 0.95000  0.84904  0.43466  Biso   1.000  H
  C54      1.0000 0.62344  0.44766  0.36168  Biso   1.000  C
  H127     1.0000 0.57704  0.45499  0.44067  Biso   1.000  H
  H128     1.0000 0.45000  0.40492  0.39466  Biso   1.000  H
  C55      1.0000 0.02310  0.65714  0.41748  Biso   1.000  C
  H129     1.0000 0.02402  0.78897  0.35168  Biso   1.000  H
  H130     1.0000 0.13203  0.82799  0.37865  Biso   1.000  H
  N19      1.0000 0.55598  0.37891  0.30991  Biso   1.000  N
  H131     1.0000 0.69397  0.49700  0.36865  Biso   1.000  H
  C56      1.0000 0.03616  0.56187  0.37716  Biso   1.000  C
  H132     1.0000 0.08205  0.66902  0.45365  Biso   1.000  H
  H133     1.0000 0.93101  0.61296  0.43365  Biso   1.000  H
  C57      1.0000 0.47426  0.43806  0.28950  Biso   1.000  C
  C58      1.0000 0.66472  0.40007  0.27071  Biso   1.000  C
  N20      1.0000 0.17709  0.62112  0.35676  Biso   1.000  N
  H134     1.0000 0.00299  0.47299  0.39966  Biso   1.000  H
  H135     1.0000 0.98403  0.55898  0.34866  Biso   1.000  H
  C59      1.0000 0.36597  0.34288  0.24918  Biso   1.000  C
  H136     1.0000 0.42502  0.44095  0.31801  Biso   1.000  H
  H137     1.0000 0.52996  0.52694  0.26701  Biso   1.000  H
  C60      1.0000 0.71868  0.30077  0.27580  Biso   1.000  C
  H138     1.0000 0.62103  0.38097  0.23499  Biso   1.000  H
  H139     1.0000 0.73495  0.48492  0.27700  Biso   1.000  H
  C61      1.0000 0.17574  0.55227  0.30499  Biso   1.000  C
  C62      1.0000 0.26461  0.59985  0.39595  Biso   1.000  C
  N21      1.0000 0.26523  0.20951  0.27551  Biso   1.000  N
  H140     1.0000 0.41305  0.33101  0.21302  Biso   1.000  H
  H141     1.0000 0.31801  0.38696  0.23301  Biso   1.000  H
  N22      1.0000 0.61630  0.16162  0.25491  Biso   1.000  N
  H142     1.0000 0.75003  0.29499  0.31700  Biso   1.000  H
  H143     1.0000 0.79595  0.32193  0.25600  Biso   1.000  H
  C63      1.0000 0.12259  0.59686  0.25781  Biso   1.000  C
  H144     1.0000 0.19698  0.50303  0.29801  Biso   1.000  H
  C64      1.0000 0.41788  0.69916  0.39087  Biso   1.000  C
  H145     1.0000 0.24001  0.61895  0.43168  Biso   1.000  H
  H146     1.0000 0.24999  0.51500  0.38966  Biso   1.000  H
  C65      1.0000 0.14589  0.11424  0.24112  Biso   1.000  C
  H147     1.0000 0.23502  0.21096  0.31499  Biso   1.000  H
  H148     1.0000 0.30401  0.17194  0.28801  Biso   1.000  H
  C66      1.0000 0.67752  0.07057  0.24281  Biso   1.000  C
  H149     1.0000 0.52994  0.12497  0.28398  Biso   1.000  H
  H150     1.0000 0.56801  0.15800  0.22201  Biso   1.000  H
  N23      1.0000 0.22295  0.74128  0.24140  Biso   1.000  N
  H151     1.0000 0.12206  0.54504  0.22600  Biso   1.000  H
  H152     1.0000 0.04504  0.59500  0.27201  Biso   1.000  H
  N24      1.0000 0.45465  0.83831  0.41176  Biso   1.000  N
  H153     1.0000 0.45506  0.70504  0.34966  Biso   1.000  H
  H154     1.0000 0.47399  0.67800  0.41067  Biso   1.000  H
  C67      1.0000 0.19240  0.07119  0.19201  Biso   1.000  C
  H155     1.0000 0.10097  0.15098  0.23201  Biso   1.000  H
  H156     1.0000 0.07999  0.01999  0.26499  Biso   1.000  H
  C68      1.0000 0.74801  0.04796  0.28890  Biso   1.000  C
  H157     1.0000 0.61200  0.98603  0.22701  Biso   1.000  H
  H158     1.0000 0.74901  0.12095  0.20701  Biso   1.000  H
  C69      1.0000 0.18291  0.78205  0.18999  Biso   1.000  C
  H159     1.0000 0.31600  0.76502  0.23600  Biso   1.000  H
  H160     1.0000 0.23701  0.80104  0.26701  Biso   1.000  H
  C70      1.0000 0.60691  0.92936  0.42385  Biso   1.000  C
  H161     1.0000 0.40494  0.87495  0.38269  Biso   1.000  H
  H162     1.0000 0.41002  0.84203  0.44466  Biso   1.000  H
  O8       1.0000 0.28156  0.02226  0.20979  Biso   1.000  O
  H163     1.0000 0.25098  0.15295  0.16399  Biso   1.000  H
  H164     1.0000 0.12299  0.00998  0.16899  Biso   1.000  H
  O9       1.0000 0.65482  0.99996  0.33329  Biso   1.000  O
  H165     1.0000 0.75102  0.95403  0.28801  Biso   1.000  H
  H166     1.0000 0.82201  0.14500  0.30301  Biso   1.000  H
  C71      1.0000 0.28638  0.92677  0.17390  Biso   1.000  C
  H167     1.0000 0.18803  0.71702  0.16399  Biso   1.000  H
  H168     1.0000 0.07798  0.77100  0.19999  Biso   1.000  H
  C72      1.0000 0.70001  0.95196  0.37777  Biso   1.000  C
  H169     1.0000 0.62803  0.87898  0.45966  Biso   1.000  H
  H170     1.0000 0.62599  0.01400  0.43966  Biso   1.000  H
  H171     1.0000 0.27198  0.94804  0.13399  Biso   1.000  H
  H172     1.0000 0.36196  0.94597  0.17302  Biso   1.000  H
  H173     1.0000 0.67702  0.85503  0.36365  Biso   1.000  H
  H174     1.0000 0.79700  0.04600  0.37865  Biso   1.000  H
  Ne1      1.0000 0.36804  0.99997  0.33333  Biso   1.000  Ne
  He1      1.0000 0.61562  0.17353  0.36975  Biso   1.000  He
  He2      1.0000 0.23757  0.15869  0.39217  Biso   1.000  He
  He3      1.0000 0.44672  0.82444  0.29504  Biso   1.000  He
  Ar1      1.0000 0.32676  0.00393  0.33563  Biso   1.000  Ar
  Ne2      1.0000 0.00001  0.36805  0.66667  Biso   1.000  Ne
  He4      1.0000 0.21062  0.16510  0.60046  Biso   1.000  He
  He5      1.0000 0.93257  0.40447  0.69272  Biso   1.000  He
  He6      1.0000 0.06229  0.45856  0.64260  Biso   1.000  He
  Ar2      1.0000 0.98796  0.31722  0.67366  Biso   1.000  Ar
  Ne3      1.0000 0.63195  0.63194  1.00000  Biso   1.000  Ne
  He7      1.0000 0.50494  0.30581  0.05838  Biso   1.000  He
  He8      1.0000 0.82911  0.03556  0.93437  Biso   1.000  He
  He9      1.0000 0.37844  0.55379  0.96192  Biso   1.000  He
  Ar3      1.0000 0.67351  0.67499  0.99942  Biso   1.000  Ar
