data_image0
_cell_length_a       17.178
_cell_length_b       11.151
_cell_length_c       22.805
_cell_angle_alpha    90
_cell_angle_beta     108.08
_cell_angle_gamma    90

_symmetry_space_group_name_H-M    "P 1"
_symmetry_int_tables_number       1

loop_
  _symmetry_equiv_pos_as_xyz
  'x, y, z'

loop_
  _atom_site_label
  _atom_site_occupancy
  _atom_site_fract_x
  _atom_site_fract_y
  _atom_site_fract_z
  _atom_site_thermal_displace_type
  _atom_site_B_iso_or_equiv
  _atom_site_type_symbol
  C1       1.0000 0.56120  0.57107  0.44781  Biso   1.000  C
  O1       1.0000 0.49155  0.63214  0.41962  Biso   1.000  O
  H1       1.0000 0.54572  0.51170  0.47451  Biso   1.000  H
  H2       1.0000 0.57300  0.52426  0.41469  Biso   1.000  H
  C2       1.0000 0.63265  0.61403  0.48162  Biso   1.000  C
  C3       1.0000 0.50005  0.73993  0.39222  Biso   1.000  C
  O2       1.0000 0.66972  0.70693  0.46732  Biso   1.000  O
  H3       1.0000 0.62684  0.63169  0.52263  Biso   1.000  H
  H4       1.0000 0.67181  0.54650  0.48780  Biso   1.000  H
  C4       1.0000 0.41860  0.77051  0.34642  Biso   1.000  C
  H5       1.0000 0.54223  0.73258  0.37110  Biso   1.000  H
  H6       1.0000 0.51703  0.80369  0.42382  Biso   1.000  H
  C5       1.0000 0.74551  0.71097  0.47479  Biso   1.000  C
  C6       1.0000 0.73701  0.76298  0.50321  Biso   1.000  C
  O3       1.0000 0.43149  0.86593  0.30989  Biso   1.000  O
  H7       1.0000 0.39601  0.70012  0.32013  Biso   1.000  H
  H8       1.0000 0.37933  0.79473  0.36810  Biso   1.000  H
  H9       1.0000 0.75563  0.66738  0.44001  Biso   1.000  H
  H10      1.0000 0.77372  0.66541  0.51289  Biso   1.000  H
  C7       1.0000 0.78350  0.82468  0.47940  Biso   1.000  C
  H11      1.0000 0.77200  0.70101  0.52991  Biso   1.000  H
  H12      1.0000 0.77505  0.86172  0.51640  Biso   1.000  H
  H13      1.0000 0.71910  0.81759  0.53079  Biso   1.000  H
  C8       1.0000 0.36314  0.90162  0.26380  Biso   1.000  C
  O4       1.0000 0.77251  0.91714  0.43803  Biso   1.000  O
  H14      1.0000 0.84283  0.80656  0.49103  Biso   1.000  H
  H15      1.0000 0.81072  0.76244  0.46169  Biso   1.000  H
  H16      1.0000 0.82675  0.85544  0.51598  Biso   1.000  H
  C9       1.0000 0.33891  0.84217  0.20711  Biso   1.000  C
  C10      1.0000 0.31864  0.99991  0.27321  Biso   1.000  C
  C11      1.0000 0.69980  0.92700  0.39029  Biso   1.000  C
  S1       1.0000 0.38210  0.70738  0.19198  Biso   1.000  S
  C12      1.0000 0.27061  0.88342  0.16172  Biso   1.000  C
  C13      1.0000 0.25099  0.03973  0.22529  Biso   1.000  C
  S2       1.0000 0.33678  0.06887  0.34577  Biso   1.000  S
  C14      1.0000 0.71172  0.01794  0.34559  Biso   1.000  C
  H17      1.0000 0.65521  0.95274  0.40652  Biso   1.000  H
  H18      1.0000 0.68471  0.84862  0.36948  Biso   1.000  H
  C15      1.0000 0.48949  0.72218  0.21878  Biso   1.000  C
  C16      1.0000 0.22609  0.98108  0.17178  Biso   1.000  C
  H19      1.0000 0.25382  0.84432  0.12279  Biso   1.000  H
  H20      1.0000 0.22243  0.10950  0.23101  Biso   1.000  H
  C17      1.0000 0.43901  0.11631  0.37179  Biso   1.000  C
  O5       1.0000 0.63301  0.03390  0.30094  Biso   1.000  O
  H21      1.0000 0.75184  0.98870  0.32571  Biso   1.000  H
  H22      1.0000 0.73191  0.09443  0.36690  Biso   1.000  H
  C18      1.0000 0.53060  0.81643  0.20130  Biso   1.000  C
  C19      1.0000 0.53430  0.62828  0.25181  Biso   1.000  C
  H23      1.0000 0.17798  0.00601  0.14050  Biso   1.000  H
  C20      1.0000 0.47670  0.10770  0.43572  Biso   1.000  C
  C21      1.0000 0.48053  0.17227  0.33650  Biso   1.000  C
  C22      1.0000 0.62894  0.10734  0.25292  Biso   1.000  C
  O6       1.0000 0.48851  0.91158  0.17021  Biso   1.000  O
  C23      1.0000 0.61620  0.81392  0.21901  Biso   1.000  C
  C24      1.0000 0.61749  0.62721  0.26920  Biso   1.000  C
  H24      1.0000 0.50628  0.56264  0.26279  Biso   1.000  H
  C25      1.0000 0.55252  0.15452  0.46192  Biso   1.000  C
  H25      1.0000 0.44922  0.06896  0.46072  Biso   1.000  H
  O7       1.0000 0.44531  0.18232  0.27418  Biso   1.000  O
  C26      1.0000 0.55870  0.21666  0.36432  Biso   1.000  C
  C27      1.0000 0.63760  0.06268  0.19890  Biso   1.000  C
  C28      1.0000 0.61139  0.22904  0.25652  Biso   1.000  C
  C29      1.0000 0.46424  0.89911  0.10522  Biso   1.000  C
  S3       1.0000 0.67484  0.91812  0.19221  Biso   1.000  S
  C30      1.0000 0.65840  0.71976  0.25250  Biso   1.000  C
  H26      1.0000 0.64713  0.56237  0.29282  Biso   1.000  H
  C31      1.0000 0.59561  0.20787  0.42719  Biso   1.000  C
  H27      1.0000 0.57644  0.15030  0.50542  Biso   1.000  H
  C32      1.0000 0.39471  0.28536  0.25509  Biso   1.000  C
  S4       1.0000 0.61359  0.30311  0.32543  Biso   1.000  S
  C33      1.0000 0.62729  0.13748  0.14802  Biso   1.000  C
  C34      1.0000 0.60141  0.30257  0.20628  Biso   1.000  C
  H28      1.0000 0.42938  0.82710  0.09198  Biso   1.000  H
  H29      1.0000 0.51268  0.89167  0.09069  Biso   1.000  H
  C35      1.0000 0.41653  0.01184  0.07971  Biso   1.000  C
  H30      1.0000 0.71654  0.71868  0.26431  Biso   1.000  H
  H31      1.0000 0.64933  0.23792  0.44610  Biso   1.000  H
  H32      1.0000 0.42512  0.35934  0.27252  Biso   1.000  H
  H33      1.0000 0.34552  0.27989  0.26879  Biso   1.000  H
  C36      1.0000 0.37092  0.28634  0.18562  Biso   1.000  C
  H34      1.0000 0.63282  0.10609  0.11071  Biso   1.000  H
  C37      1.0000 0.60921  0.25720  0.15190  Biso   1.000  C
  H35      1.0000 0.58902  0.38508  0.20900  Biso   1.000  H
  O8       1.0000 0.38644  0.00152  0.01642  Biso   1.000  O
  H36      1.0000 0.37072  0.02179  0.09710  Biso   1.000  H
  H37      1.0000 0.45258  0.08286  0.09119  Biso   1.000  H
  O9       1.0000 0.35303  0.37198  0.16380  Biso   1.000  O
  H38      1.0000 0.41770  0.25576  0.17339  Biso   1.000  H
  H39      1.0000 0.32490  0.22958  0.16929  Biso   1.000  H
  H40      1.0000 0.60210  0.30840  0.11739  Biso   1.000  H
  C38      1.0000 0.32490  0.07937  0.98081  Biso   1.000  C
  C39      1.0000 0.38340  0.11003  0.98588  Biso   1.000  C
  C40      1.0000 0.33518  0.41449  0.10720  Biso   1.000  C
  C41      1.0000 0.33184  0.19128  0.98902  Biso   1.000  C
  H41      1.0000 0.31909  0.06403  0.93690  Biso   1.000  H
  H42      1.0000 0.27271  0.05506  0.98722  Biso   1.000  H
  H43      1.0000 0.27682  0.15389  0.97601  Biso   1.000  H
  H44      1.0000 0.37968  0.21523  0.97629  Biso   1.000  H
  H45      1.0000 0.37311  0.09111  0.94169  Biso   1.000  H
  H46      1.0000 0.43869  0.14582  0.00111  Biso   1.000  H
  C42      1.0000 0.31309  0.34401  0.05231  Biso   1.000  C
  H47      1.0000 0.38319  0.46256  0.10619  Biso   1.000  H
  H48      1.0000 0.28983  0.47198  0.10240  Biso   1.000  H
  H49      1.0000 0.28332  0.22698  0.95830  Biso   1.000  H
  H50      1.0000 0.33188  0.25271  0.95761  Biso   1.000  H
  O10      1.0000 0.33989  0.24993  0.04248  Biso   1.000  O
  H51      1.0000 0.25349  0.33064  0.04230  Biso   1.000  H
  H52      1.0000 0.31977  0.39826  0.01979  Biso   1.000  H
  C43      1.0000 0.43882  0.42893  0.55219  Biso   1.000  C
  C44      1.0000 0.36745  0.38597  0.51843  Biso   1.000  C
  O11      1.0000 0.50855  0.36786  0.58042  Biso   1.000  O
  H53      1.0000 0.45431  0.48830  0.52549  Biso   1.000  H
  H54      1.0000 0.42703  0.47574  0.58531  Biso   1.000  H
  O12      1.0000 0.33033  0.29307  0.53273  Biso   1.000  O
  H55      1.0000 0.37320  0.36831  0.47742  Biso   1.000  H
  H56      1.0000 0.32821  0.45350  0.51220  Biso   1.000  H
  C45      1.0000 0.50005  0.26007  0.60782  Biso   1.000  C
  C46      1.0000 0.26301  0.23702  0.49679  Biso   1.000  C
  C47      1.0000 0.25452  0.28903  0.52521  Biso   1.000  C
  C48      1.0000 0.58144  0.22949  0.65363  Biso   1.000  C
  H57      1.0000 0.45785  0.26742  0.62890  Biso   1.000  H
  H58      1.0000 0.48301  0.19631  0.57623  Biso   1.000  H
  H59      1.0000 0.22630  0.33459  0.48711  Biso   1.000  H
  C49      1.0000 0.21653  0.17532  0.52060  Biso   1.000  C
  H60      1.0000 0.22503  0.13828  0.48360  Biso   1.000  H
  H61      1.0000 0.28093  0.18241  0.46921  Biso   1.000  H
  H62      1.0000 0.22802  0.29899  0.47009  Biso   1.000  H
  H63      1.0000 0.24440  0.33262  0.55999  Biso   1.000  H
  O13      1.0000 0.56853  0.13407  0.69012  Biso   1.000  O
  H64      1.0000 0.60403  0.29988  0.67992  Biso   1.000  H
  H65      1.0000 0.62075  0.20527  0.63190  Biso   1.000  H
  O14      1.0000 0.22754  0.08286  0.56202  Biso   1.000  O
  H66      1.0000 0.15721  0.19344  0.50902  Biso   1.000  H
  H67      1.0000 0.18930  0.23756  0.53831  Biso   1.000  H
  H68      1.0000 0.17334  0.14456  0.48402  Biso   1.000  H
  C50      1.0000 0.63694  0.09838  0.73620  Biso   1.000  C
  C51      1.0000 0.30022  0.07300  0.60971  Biso   1.000  C
  C52      1.0000 0.68144  0.00009  0.72679  Biso   1.000  C
  C53      1.0000 0.66111  0.15783  0.79289  Biso   1.000  C
  H69      1.0000 0.34484  0.04726  0.59352  Biso   1.000  H
  H70      1.0000 0.31531  0.15138  0.63052  Biso   1.000  H
  C54      1.0000 0.28831  0.98206  0.65441  Biso   1.000  C
  S5       1.0000 0.66325  0.93113  0.65423  Biso   1.000  S
  C55      1.0000 0.74904  0.96027  0.77471  Biso   1.000  C
  S6       1.0000 0.61800  0.29262  0.80806  Biso   1.000  S
  C56      1.0000 0.72943  0.11658  0.83832  Biso   1.000  C
  H71      1.0000 0.24824  0.01130  0.67429  Biso   1.000  H
  O15      1.0000 0.36701  0.96610  0.69906  Biso   1.000  O
  H72      1.0000 0.26812  0.90557  0.63310  Biso   1.000  H
  C57      1.0000 0.56101  0.88369  0.62821  Biso   1.000  C
  C58      1.0000 0.77394  0.01892  0.82822  Biso   1.000  C
  H73      1.0000 0.77765  0.89050  0.76899  Biso   1.000  H
  C59      1.0000 0.51054  0.27782  0.78122  Biso   1.000  C
  H74      1.0000 0.74627  0.15568  0.87721  Biso   1.000  H
  C60      1.0000 0.37116  0.89266  0.74713  Biso   1.000  C
  C61      1.0000 0.51955  0.82773  0.66350  Biso   1.000  C
  C62      1.0000 0.52334  0.89230  0.56433  Biso   1.000  C
  H75      1.0000 0.82204  0.99399  0.85950  Biso   1.000  H
  C63      1.0000 0.46942  0.18357  0.79870  Biso   1.000  C
  C64      1.0000 0.46573  0.37172  0.74819  Biso   1.000  C
  C65      1.0000 0.36242  0.93732  0.80110  Biso   1.000  C
  C66      1.0000 0.38865  0.77096  0.74353  Biso   1.000  C
  C67      1.0000 0.44132  0.78334  0.63568  Biso   1.000  C
  O16      1.0000 0.55472  0.81768  0.72582  Biso   1.000  O
  C68      1.0000 0.44752  0.84548  0.53812  Biso   1.000  C
  H76      1.0000 0.55082  0.93104  0.53932  Biso   1.000  H
  C69      1.0000 0.38383  0.18608  0.78099  Biso   1.000  C
  O17      1.0000 0.51151  0.08842  0.82979  Biso   1.000  O
  C70      1.0000 0.38253  0.37279  0.73080  Biso   1.000  C
  H77      1.0000 0.49374  0.43736  0.73721  Biso   1.000  H
  S7       1.0000 0.32519  0.08188  0.80779  Biso   1.000  S
  C71      1.0000 0.37275  0.86252  0.85202  Biso   1.000  C
  S8       1.0000 0.38646  0.69689  0.67462  Biso   1.000  S
  C72      1.0000 0.39862  0.69743  0.79372  Biso   1.000  C
  C73      1.0000 0.40441  0.79213  0.57281  Biso   1.000  C
  C74      1.0000 0.60531  0.71464  0.74492  Biso   1.000  C
  H78      1.0000 0.42360  0.84970  0.49463  Biso   1.000  H
  C75      1.0000 0.34162  0.28024  0.74750  Biso   1.000  C
  C76      1.0000 0.53586  0.10089  0.89483  Biso   1.000  C
  H79      1.0000 0.35297  0.43763  0.70723  Biso   1.000  H
  H80      1.0000 0.36721  0.89391  0.88929  Biso   1.000  H
  C77      1.0000 0.39081  0.74280  0.84810  Biso   1.000  C
  H81      1.0000 0.41106  0.61492  0.79100  Biso   1.000  H
  H82      1.0000 0.35075  0.76208  0.55390  Biso   1.000  H
  H83      1.0000 0.57492  0.64066  0.72752  Biso   1.000  H
  H84      1.0000 0.65456  0.72011  0.73122  Biso   1.000  H
  C78      1.0000 0.62912  0.71366  0.81443  Biso   1.000  C
  H85      1.0000 0.28355  0.28132  0.73569  Biso   1.000  H
  H86      1.0000 0.57064  0.17290  0.90802  Biso   1.000  H
  H87      1.0000 0.48734  0.10833  0.90931  Biso   1.000  H
  C79      1.0000 0.58355  0.98816  0.92029  Biso   1.000  C
  H88      1.0000 0.39793  0.69160  0.88261  Biso   1.000  H
  O18      1.0000 0.64706  0.62802  0.83620  Biso   1.000  O
  H89      1.0000 0.58233  0.74424  0.82661  Biso   1.000  H
  H90      1.0000 0.67512  0.77042  0.83071  Biso   1.000  H
  O19      1.0000 0.61366  0.99848  0.98363  Biso   1.000  O
  H91      1.0000 0.62936  0.97821  0.90290  Biso   1.000  H
  H92      1.0000 0.54744  0.91714  0.90881  Biso   1.000  H
  C80      1.0000 0.66485  0.58551  0.89280  Biso   1.000  C
  C81      1.0000 0.67512  0.92063  0.01919  Biso   1.000  C
  C82      1.0000 0.61668  0.88997  0.01412  Biso   1.000  C
  H93      1.0000 0.61683  0.53744  0.89381  Biso   1.000  H
  H94      1.0000 0.71025  0.52802  0.89760  Biso   1.000  H
  C83      1.0000 0.68694  0.65599  0.94769  Biso   1.000  C
  C84      1.0000 0.66826  0.80872  0.01103  Biso   1.000  C
  H95      1.0000 0.68093  0.93597  0.06310  Biso   1.000  H
  H96      1.0000 0.72734  0.94494  0.01282  Biso   1.000  H
  H97      1.0000 0.72328  0.84611  0.02403  Biso   1.000  H
  H98      1.0000 0.56133  0.85418  0.99889  Biso   1.000  H
  H99      1.0000 0.62034  0.78477  0.02371  Biso   1.000  H
  H100     1.0000 0.62697  0.90889  0.05831  Biso   1.000  H
  O20      1.0000 0.66013  0.75007  0.95752  Biso   1.000  O
  H101     1.0000 0.74654  0.66936  0.95770  Biso   1.000  H
  H102     1.0000 0.68025  0.60174  0.98021  Biso   1.000  H
  H103     1.0000 0.71676  0.77302  0.04170  Biso   1.000  H
  H104     1.0000 0.66815  0.74729  0.04239  Biso   1.000  H
  S9       1.0000 0.82519  0.41808  0.30776  Biso   1.000  S
  C85      1.0000 0.88379  0.31387  0.28101  Biso   1.000  C
  C86      1.0000 0.86245  0.56273  0.30112  Biso   1.000  C
  C87      1.0000 0.96945  0.31638  0.29872  Biso   1.000  C
  C88      1.0000 0.84165  0.21980  0.24752  Biso   1.000  C
  C89      1.0000 0.87270  0.63752  0.35200  Biso   1.000  C
  C90      1.0000 0.87111  0.60730  0.24711  Biso   1.000  C
  O21      1.0000 0.01154  0.41162  0.32981  Biso   1.000  O
  C91      1.0000 0.01049  0.22222  0.28119  Biso   1.000  C
  H105     1.0000 0.78352  0.21872  0.23571  Biso   1.000  H
  C92      1.0000 0.88250  0.12716  0.23082  Biso   1.000  C
  H106     1.0000 0.86723  0.60613  0.38932  Biso   1.000  H
  C93      1.0000 0.89084  0.75724  0.34813  Biso   1.000  C
  O22      1.0000 0.86702  0.53394  0.19904  Biso   1.000  O
  C94      1.0000 0.88860  0.72899  0.24351  Biso   1.000  C
  C95      1.0000 0.03581  0.39907  0.39481  Biso   1.000  C
  C96      1.0000 0.96569  0.12833  0.24821  Biso   1.000  C
  S10      1.0000 0.11795  0.20734  0.30804  Biso   1.000  S
  H107     1.0000 0.85292  0.06242  0.20721  Biso   1.000  H
  H108     1.0000 0.89793  0.80836  0.38258  Biso   1.000  H
  C97      1.0000 0.89863  0.80262  0.29369  Biso   1.000  C
  C98      1.0000 0.78832  0.51789  0.15439  Biso   1.000  C
  S11      1.0000 0.88646  0.80316  0.17459  Biso   1.000  S
  H109     1.0000 0.98729  0.39171  0.40929  Biso   1.000  H
  C99      1.0000 0.08352  0.51179  0.42031  Biso   1.000  C
  H110     1.0000 0.07059  0.32706  0.40800  Biso   1.000  H
  H111     1.0000 0.99369  0.06260  0.23719  Biso   1.000  H
  C100     1.0000 0.16114  0.34221  0.29291  Biso   1.000  C
  H112     1.0000 0.91103  0.88512  0.29102  Biso   1.000  H
  C101     1.0000 0.80023  0.42696  0.10969  Biso   1.000  C
  H113     1.0000 0.76814  0.59439  0.13312  Biso   1.000  H
  H114     1.0000 0.74821  0.48866  0.17432  Biso   1.000  H
  C102     1.0000 0.94129  0.71671  0.13571  Biso   1.000  C
  O23      1.0000 0.11361  0.50148  0.48360  Biso   1.000  O
  H115     1.0000 0.12933  0.52184  0.40292  Biso   1.000  H
  H116     1.0000 0.04739  0.58291  0.40878  Biso   1.000  H
  C103     1.0000 0.22944  0.38337  0.33830  Biso   1.000  C
  C104     1.0000 0.13691  0.40158  0.23622  Biso   1.000  C
  O24      1.0000 0.72749  0.41709  0.06200  Biso   1.000  O
  H117     1.0000 0.84479  0.45269  0.09350  Biso   1.000  H
  H118     1.0000 0.81532  0.34858  0.13050  Biso   1.000  H
  C105     1.0000 0.90442  0.70792  0.07279  Biso   1.000  C
  C106     1.0000 0.01952  0.67232  0.16352  Biso   1.000  C
  C107     1.0000 0.17515  0.57941  0.51921  Biso   1.000  C
  C108     1.0000 0.11663  0.60999  0.51409  Biso   1.000  C
  C109     1.0000 0.27388  0.48112  0.32820  Biso   1.000  C
  H119     1.0000 0.24622  0.34427  0.37719  Biso   1.000  H
  O25      1.0000 0.06848  0.36589  0.19009  Biso   1.000  O
  C110     1.0000 0.18141  0.49987  0.22681  Biso   1.000  C
  C111     1.0000 0.71649  0.32472  0.02062  Biso   1.000  C
  H120     1.0000 0.85072  0.73787  0.05392  Biso   1.000  H
  C112     1.0000 0.94753  0.65447  0.03810  Biso   1.000  C
  O26      1.0000 0.05472  0.68227  0.22579  Biso   1.000  O
  C113     1.0000 0.06102  0.61627  0.12819  Biso   1.000  C
  C114     1.0000 0.16821  0.69133  0.51100  Biso   1.000  C
  H121     1.0000 0.18096  0.56399  0.56313  Biso   1.000  H
  H122     1.0000 0.22734  0.55511  0.51280  Biso   1.000  H
  H123     1.0000 0.22323  0.65393  0.52401  Biso   1.000  H
  H124     1.0000 0.12029  0.71518  0.52369  Biso   1.000  H
  H125     1.0000 0.06130  0.64577  0.49892  Biso   1.000  H
  H126     1.0000 0.12694  0.59107  0.55833  Biso   1.000  H
  C115     1.0000 0.24899  0.53968  0.27469  Biso   1.000  C
  H127     1.0000 0.32201  0.50596  0.35952  Biso   1.000  H
  C116     1.0000 0.08139  0.27047  0.15360  Biso   1.000  C
  S12      1.0000 0.16321  0.56892  0.15425  Biso   1.000  S
  C117     1.0000 0.75447  0.21101  0.02519  Biso   1.000  C
  H128     1.0000 0.65722  0.30661  0.00899  Biso   1.000  H
  H129     1.0000 0.68931  0.26240  0.03829  Biso   1.000  H
  H130     1.0000 0.72498  0.36167  0.98358  Biso   1.000  H
  C118     1.0000 0.76298  0.26303  0.99682  Biso   1.000  C
  H131     1.0000 0.67329  0.35539  0.98399  Biso   1.000  H
  H132     1.0000 0.92361  0.65026  0.99460  Biso   1.000  H
  C119     1.0000 0.02329  0.60766  0.06430  Biso   1.000  C
  C120     1.0000 0.10532  0.78540  0.24489  Biso   1.000  C
  O27      1.0000 0.16014  0.74989  0.45749  Biso   1.000  O
  H133     1.0000 0.21673  0.72702  0.54172  Biso   1.000  H
  H134     1.0000 0.16812  0.75267  0.54241  Biso   1.000  H
  H135     1.0000 0.27762  0.60954  0.26902  Biso   1.000  H
  C121     1.0000 1.00000  0.23989  0.10780  Biso   1.000  C
  H136     1.0000 0.10398  0.20007  0.17990  Biso   1.000  H
  H137     1.0000 0.12070  0.29468  0.13188  Biso   1.000  H
  O28      1.0000 0.83027  0.20689  0.03270  Biso   1.000  O
  H138     1.0000 0.74442  0.16743  0.06001  Biso   1.000  H
  H139     1.0000 0.72631  0.16537  0.98708  Biso   1.000  H
  H140     1.0000 0.72799  0.20097  0.97011  Biso   1.000  H
  H141     1.0000 0.78088  0.31764  0.96919  Biso   1.000  H
  H142     1.0000 0.05083  0.56901  0.03930  Biso   1.000  H
  H143     1.0000 0.07493  0.85930  0.22750  Biso   1.000  H
  H144     1.0000 0.15451  0.77993  0.23119  Biso   1.000  H
  C122     1.0000 0.12913  0.78630  0.31441  Biso   1.000  C
  C123     1.0000 0.18691  0.84396  0.44771  Biso   1.000  C
  H145     1.0000 0.95780  0.23262  0.12888  Biso   1.000  H
  H146     1.0000 0.98302  0.30374  0.07620  Biso   1.000  H
  O29      1.0000 0.00850  0.13210  0.08040  Biso   1.000  O
  C124     1.0000 0.86740  0.11398  0.01840  Biso   1.000  C
  O30      1.0000 0.14703  0.87203  0.33622  Biso   1.000  O
  H147     1.0000 0.08234  0.75581  0.32658  Biso   1.000  H
  H148     1.0000 0.17513  0.72962  0.33069  Biso   1.000  H
  C125     1.0000 0.16481  0.91454  0.39282  Biso   1.000  C
  H149     1.0000 0.24651  0.83060  0.45772  Biso   1.000  H
  H150     1.0000 0.18020  0.89831  0.48019  Biso   1.000  H
  C126     1.0000 0.93879  0.07111  0.05222  Biso   1.000  C
  H151     1.0000 0.82816  0.04654  0.01218  Biso   1.000  H
  H152     1.0000 0.87321  0.13174  0.97740  Biso   1.000  H
  H153     1.0000 0.11684  0.96260  0.39379  Biso   1.000  H
  H154     1.0000 0.21022  0.97202  0.39762  Biso   1.000  H
  H155     1.0000 0.95433  0.01166  0.02551  Biso   1.000  H
  H156     1.0000 0.92698  0.02430  0.08529  Biso   1.000  H
  S13      1.0000 0.17489  0.58192  0.69224  Biso   1.000  S
  C127     1.0000 0.13765  0.43727  0.69893  Biso   1.000  C
  C128     1.0000 0.11623  0.68613  0.71899  Biso   1.000  C
  C129     1.0000 0.12732  0.36248  0.64800  Biso   1.000  C
  C130     1.0000 0.12892  0.39270  0.75290  Biso   1.000  C
  C131     1.0000 0.03065  0.68362  0.70132  Biso   1.000  C
  C132     1.0000 0.15845  0.78020  0.75253  Biso   1.000  C
  H157     1.0000 0.13287  0.39387  0.61073  Biso   1.000  H
  C133     1.0000 0.10926  0.24276  0.65192  Biso   1.000  C
  O31      1.0000 0.13306  0.46606  0.80096  Biso   1.000  O
  C134     1.0000 0.11142  0.27101  0.75649  Biso   1.000  C
  O32      1.0000 0.98854  0.58838  0.67019  Biso   1.000  O
  C135     1.0000 0.98954  0.77778  0.71881  Biso   1.000  C
  H158     1.0000 0.21651  0.78128  0.76429  Biso   1.000  H
  C136     1.0000 0.11754  0.87284  0.76922  Biso   1.000  C
  H159     1.0000 0.10215  0.19164  0.61742  Biso   1.000  H
  C137     1.0000 0.10146  0.19738  0.70631  Biso   1.000  C
  C138     1.0000 0.21177  0.48211  0.84561  Biso   1.000  C
  S14      1.0000 0.11362  0.19684  0.82541  Biso   1.000  S
  C139     1.0000 0.96421  0.60093  0.60519  Biso   1.000  C
  C140     1.0000 0.03433  0.87167  0.75179  Biso   1.000  C
  S15      1.0000 0.88208  0.79266  0.69196  Biso   1.000  S
  H160     1.0000 0.14716  0.93758  0.79280  Biso   1.000  H
  H161     1.0000 0.08901  0.11488  0.70903  Biso   1.000  H
  C141     1.0000 0.19985  0.57304  0.89031  Biso   1.000  C
  H162     1.0000 0.23196  0.40561  0.86692  Biso   1.000  H
  H163     1.0000 0.25184  0.51134  0.82573  Biso   1.000  H
  C142     1.0000 0.05874  0.28329  0.86429  Biso   1.000  C
  H164     1.0000 0.01273  0.60829  0.59071  Biso   1.000  H
  C143     1.0000 0.91650  0.48821  0.57969  Biso   1.000  C
  H165     1.0000 0.92944  0.67294  0.59200  Biso   1.000  H
  H166     1.0000 0.00633  0.93740  0.76281  Biso   1.000  H
  C144     1.0000 0.83894  0.65779  0.70709  Biso   1.000  C
  O33      1.0000 0.27254  0.58291  0.93801  Biso   1.000  O
  H167     1.0000 0.15524  0.54731  0.90650  Biso   1.000  H
  H168     1.0000 0.18476  0.65142  0.86951  Biso   1.000  H
  C145     1.0000 0.09566  0.29208  0.92721  Biso   1.000  C
  C146     1.0000 0.98052  0.32768  0.83652  Biso   1.000  C
  O34      1.0000 0.88641  0.49852  0.51640  Biso   1.000  O
  H169     1.0000 0.87071  0.47816  0.59712  Biso   1.000  H
  H170     1.0000 0.95263  0.41709  0.59122  Biso   1.000  H
  C147     1.0000 0.77064  0.61663  0.66170  Biso   1.000  C
  C148     1.0000 0.86313  0.59842  0.76383  Biso   1.000  C
  C149     1.0000 0.28355  0.67528  0.97943  Biso   1.000  C
  H171     1.0000 0.14932  0.26213  0.94612  Biso   1.000  H
  C150     1.0000 0.05255  0.34553  0.96190  Biso   1.000  C
  O35      1.0000 0.94536  0.31773  0.77421  Biso   1.000  O
  C151     1.0000 0.93906  0.38373  0.87181  Biso   1.000  C
  C152     1.0000 0.82494  0.42059  0.48079  Biso   1.000  C
  C153     1.0000 0.88340  0.39001  0.48591  Biso   1.000  C
  C154     1.0000 0.72614  0.51888  0.67180  Biso   1.000  C
  H172     1.0000 0.75381  0.65573  0.62282  Biso   1.000  H
  O36      1.0000 0.93154  0.63411  0.80991  Biso   1.000  O
  C155     1.0000 0.81862  0.50013  0.77319  Biso   1.000  C
  C156     1.0000 0.24556  0.78899  0.97482  Biso   1.000  C
  H173     1.0000 0.34287  0.69339  0.99101  Biso   1.000  H
  H174     1.0000 0.31077  0.73760  0.96171  Biso   1.000  H
  H175     1.0000 0.27504  0.63833  0.01642  Biso   1.000  H
  C157     1.0000 0.23706  0.73697  0.00323  Biso   1.000  C
  H176     1.0000 0.32674  0.64461  0.01601  Biso   1.000  H
  C158     1.0000 0.97673  0.39234  0.93570  Biso   1.000  C
  H177     1.0000 0.07647  0.34974  0.00540  Biso   1.000  H
  C159     1.0000 0.89476  0.21460  0.75511  Biso   1.000  C
  S16      1.0000 0.83683  0.43108  0.84580  Biso   1.000  S
  C160     1.0000 0.83181  0.30867  0.48900  Biso   1.000  C
  H178     1.0000 0.81914  0.43601  0.43692  Biso   1.000  H
  H179     1.0000 0.77274  0.44489  0.48720  Biso   1.000  H
  H180     1.0000 0.77679  0.34607  0.47599  Biso   1.000  H
  H181     1.0000 0.87973  0.28482  0.47631  Biso   1.000  H
  H182     1.0000 0.93872  0.35423  0.50108  Biso   1.000  H
  H183     1.0000 0.87311  0.40893  0.44172  Biso   1.000  H
  C161     1.0000 0.75104  0.46032  0.72531  Biso   1.000  C
  H184     1.0000 0.67803  0.49404  0.64053  Biso   1.000  H
  C162     1.0000 0.91863  0.72953  0.84640  Biso   1.000  C
  O37      1.0000 0.16975  0.79311  0.96730  Biso   1.000  O
  H185     1.0000 0.25566  0.83257  0.93999  Biso   1.000  H
  H186     1.0000 0.27377  0.83463  0.01292  Biso   1.000  H
  H187     1.0000 0.27203  0.79903  0.02989  Biso   1.000  H
  H188     1.0000 0.21915  0.68236  0.03081  Biso   1.000  H
  H189     1.0000 0.94925  0.43099  0.96070  Biso   1.000  H
  H190     1.0000 0.92515  0.14070  0.77250  Biso   1.000  H
  H191     1.0000 0.84551  0.22007  0.76881  Biso   1.000  H
  C163     1.0000 0.87095  0.21370  0.68559  Biso   1.000  C
  O38      1.0000 0.83994  0.25011  0.54251  Biso   1.000  O
  H192     1.0000 0.78331  0.27298  0.45832  Biso   1.000  H
  H193     1.0000 0.83191  0.24733  0.45759  Biso   1.000  H
  H194     1.0000 0.72242  0.39046  0.73103  Biso   1.000  H
  H195     1.0000 0.89604  0.79993  0.82010  Biso   1.000  H
  H196     1.0000 0.87933  0.70532  0.86812  Biso   1.000  H
  C164     1.0000 0.00003  0.76011  0.89220  Biso   1.000  C
  C165     1.0000 0.13262  0.88602  0.98160  Biso   1.000  C
  O39      1.0000 0.85302  0.12797  0.66382  Biso   1.000  O
  H197     1.0000 0.91775  0.24419  0.67342  Biso   1.000  H
  H198     1.0000 0.82495  0.27038  0.66931  Biso   1.000  H
  C166     1.0000 0.81312  0.15604  0.55229  Biso   1.000  C
  H199     1.0000 0.04222  0.76738  0.87112  Biso   1.000  H
  H200     1.0000 0.01706  0.69626  0.92380  Biso   1.000  H
  O40      1.0000 0.99152  0.86790  0.91960  Biso   1.000  O
  C167     1.0000 0.06125  0.92889  0.94783  Biso   1.000  C
  H201     1.0000 0.17186  0.95346  0.98782  Biso   1.000  H
  H202     1.0000 0.12687  0.86826  0.02260  Biso   1.000  H
  C168     1.0000 0.83523  0.08546  0.60722  Biso   1.000  C
  H203     1.0000 0.75354  0.16940  0.54232  Biso   1.000  H
  H204     1.0000 0.81982  0.10169  0.51981  Biso   1.000  H
  H205     1.0000 0.04575  0.98834  0.97449  Biso   1.000  H
  H206     1.0000 0.07305  0.97570  0.91471  Biso   1.000  H
  H207     1.0000 0.88325  0.03740  0.60621  Biso   1.000  H
  H208     1.0000 0.78983  0.02798  0.60243  Biso   1.000  H
