data_image0
_cell_length_a       12.009
_cell_length_b       12.737
_cell_length_c       21.51
_cell_angle_alpha    93.68
_cell_angle_beta     90.5
_cell_angle_gamma    108.97

_symmetry_space_group_name_H-M    "P 1"
_symmetry_int_tables_number       1

loop_
  _symmetry_equiv_pos_as_xyz
  'x, y, z'

loop_
  _atom_site_label
  _atom_site_occupancy
  _atom_site_fract_x
  _atom_site_fract_y
  _atom_site_fract_z
  _atom_site_thermal_displace_type
  _atom_site_B_iso_or_equiv
  _atom_site_type_symbol
  C1       1.0000 0.56851  0.37536  0.48501  Biso   1.000  C
  C2       1.0000 0.54438  0.31965  0.42069  Biso   1.000  C
  O1       1.0000 0.68592  0.38804  0.50384  Biso   1.000  O
  H1       1.0000 0.55748  0.44915  0.48548  Biso   1.000  H
  H2       1.0000 0.51293  0.32974  0.51419  Biso   1.000  H
  S1       1.0000 0.39022  0.27672  0.39632  Biso   1.000  S
  H3       1.0000 0.57057  0.25343  0.41892  Biso   1.000  H
  H4       1.0000 0.59142  0.37144  0.39100  Biso   1.000  H
  C3       1.0000 0.72180  0.45479  0.55963  Biso   1.000  C
  C4       1.0000 0.33390  0.14785  0.43482  Biso   1.000  C
  H5       1.0000 0.66480  0.42565  0.59240  Biso   1.000  H
  H6       1.0000 0.72413  0.53187  0.55330  Biso   1.000  H
  C5       1.0000 0.84192  0.45521  0.58000  Biso   1.000  C
  C6       1.0000 0.24631  0.15243  0.48413  Biso   1.000  C
  H7       1.0000 0.29545  0.08631  0.40321  Biso   1.000  H
  H8       1.0000 0.40059  0.13123  0.45439  Biso   1.000  H
  S2       1.0000 0.90385  0.54873  0.64651  Biso   1.000  S
  H9       1.0000 0.89579  0.47584  0.54491  Biso   1.000  H
  H10      1.0000 0.83667  0.37891  0.58979  Biso   1.000  H
  O2       1.0000 0.21475  0.04642  0.51041  Biso   1.000  O
  H11      1.0000 0.28243  0.21346  0.51638  Biso   1.000  H
  H12      1.0000 0.17618  0.16432  0.46530  Biso   1.000  H
  C7       1.0000 0.84400  0.45664  0.71330  Biso   1.000  C
  C8       1.0000 0.80125  0.51955  0.70328  Biso   1.000  C
  C9       1.0000 0.12818  0.02132  0.55418  Biso   1.000  C
  H13      1.0000 0.85536  0.38373  0.70398  Biso   1.000  H
  H14      1.0000 0.89040  0.49141  0.75190  Biso   1.000  H
  C10      1.0000 0.71474  0.43745  0.72500  Biso   1.000  C
  H15      1.0000 0.84275  0.37976  0.72570  Biso   1.000  H
  H16      1.0000 0.69600  0.50734  0.72291  Biso   1.000  H
  H17      1.0000 0.83264  0.56926  0.74122  Biso   1.000  H
  H18      1.0000 0.72915  0.53331  0.68869  Biso   1.000  H
  C11      1.0000 0.77101  0.40022  0.71880  Biso   1.000  C
  C12      1.0000 0.06183  0.08945  0.57101  Biso   1.000  C
  C13      1.0000 0.10940  0.92118  0.58159  Biso   1.000  C
  O3       1.0000 0.70016  0.40122  0.78312  Biso   1.000  O
  H19      1.0000 0.66406  0.38074  0.69410  Biso   1.000  H
  H20      1.0000 0.72042  0.34871  0.68571  Biso   1.000  H
  H21      1.0000 0.07450  0.15679  0.55138  Biso   1.000  H
  C14      1.0000 0.97694  0.06023  0.61626  Biso   1.000  C
  C15      1.0000 0.18603  0.84871  0.56723  Biso   1.000  C
  C16      1.0000 0.02392  0.89102  0.62605  Biso   1.000  C
  C17      1.0000 0.65225  0.29362  0.80014  Biso   1.000  C
  C18      1.0000 0.95967  0.96008  0.64428  Biso   1.000  C
  C19      1.0000 0.90809  0.13716  0.63575  Biso   1.000  C
  C20      1.0000 0.29210  0.88406  0.61170  Biso   1.000  C
  H22      1.0000 0.13995  0.76966  0.57171  Biso   1.000  H
  H23      1.0000 0.21224  0.85640  0.52370  Biso   1.000  H
  H24      1.0000 0.00925  0.82202  0.64432  Biso   1.000  H
  C21      1.0000 0.60347  0.28230  0.85891  Biso   1.000  C
  C22      1.0000 0.64982  0.20081  0.76280  Biso   1.000  C
  O4       1.0000 0.87610  0.93397  0.68991  Biso   1.000  O
  H25      1.0000 0.82917  0.09218  0.64898  Biso   1.000  H
  H26      1.0000 0.89708  0.17740  0.59948  Biso   1.000  H
  C23      1.0000 0.97030  0.22100  0.68879  Biso   1.000  C
  C24      1.0000 0.28760  0.83847  0.66935  Biso   1.000  C
  C25      1.0000 0.39455  0.96667  0.59729  Biso   1.000  C
  C26      1.0000 0.55313  0.17575  0.87835  Biso   1.000  C
  C27      1.0000 0.59785  0.38276  0.89899  Biso   1.000  C
  C28      1.0000 0.59833  0.09338  0.78182  Biso   1.000  C
  H27      1.0000 0.68422  0.21015  0.72309  Biso   1.000  H
  C29      1.0000 0.86767  0.83706  0.72183  Biso   1.000  C
  C30      1.0000 0.05352  0.32213  0.67639  Biso   1.000  C
  C31      1.0000 0.94753  0.19781  0.75022  Biso   1.000  C
  O5       1.0000 0.18307  0.75811  0.68184  Biso   1.000  O
  C32      1.0000 0.38502  0.87378  0.71023  Biso   1.000  C
  C33      1.0000 0.49193  0.00283  0.63836  Biso   1.000  C
  H28      1.0000 0.39844  0.99929  0.55852  Biso   1.000  H
  C34      1.0000 0.54922  0.08233  0.84013  Biso   1.000  C
  H29      1.0000 0.52078  0.16656  0.91852  Biso   1.000  H
  C35      1.0000 0.48444  0.40654  0.88618  Biso   1.000  C
  H30      1.0000 0.60314  0.36905  0.94351  Biso   1.000  H
  H31      1.0000 0.66576  0.44851  0.89042  Biso   1.000  H
  C36      1.0000 0.59363  0.99249  0.74034  Biso   1.000  C
  C37      1.0000 0.78155  0.83007  0.77352  Biso   1.000  C
  H32      1.0000 0.94582  0.84219  0.73940  Biso   1.000  H
  H33      1.0000 0.83963  0.76986  0.69270  Biso   1.000  H
  O6       1.0000 0.07275  0.34183  0.61431  Biso   1.000  O
  C38      1.0000 0.11134  0.39754  0.72519  Biso   1.000  C
  C39      1.0000 0.00595  0.27232  0.79906  Biso   1.000  C
  H34      1.0000 0.89051  0.12936  0.75912  Biso   1.000  H
  C40      1.0000 0.17051  0.71942  0.74281  Biso   1.000  C
  C41      1.0000 0.48826  0.95507  0.69522  Biso   1.000  C
  H35      1.0000 0.38081  0.84169  0.74919  Biso   1.000  H
  O7       1.0000 0.59672  0.08271  0.62601  Biso   1.000  O
  O8       1.0000 0.49535  0.97487  0.85630  Biso   1.000  O
  C42      1.0000 0.38536  0.36276  0.92067  Biso   1.000  C
  C43      1.0000 0.47687  0.47135  0.83738  Biso   1.000  C
  H36      1.0000 0.66664  0.00922  0.71638  Biso   1.000  H
  H37      1.0000 0.59093  0.93081  0.76662  Biso   1.000  H
  S3       1.0000 0.77416  0.71732  0.82200  Biso   1.000  S
  H38      1.0000 0.70234  0.81877  0.75511  Biso   1.000  H
  H39      1.0000 0.80590  0.90120  0.79962  Biso   1.000  H
  C44      1.0000 0.16479  0.44035  0.60032  Biso   1.000  C
  C45      1.0000 0.08899  0.37387  0.78676  Biso   1.000  C
  H40      1.0000 0.16731  0.46656  0.71619  Biso   1.000  H
  O9       1.0000 0.98850  0.25221  0.86124  Biso   1.000  O
  H41      1.0000 0.09303  0.66266  0.74560  Biso   1.000  H
  H42      1.0000 0.17768  0.78182  0.77338  Biso   1.000  H
  H43      1.0000 0.23221  0.68688  0.75138  Biso   1.000  H
  C46      1.0000 0.59759  0.14675  0.57441  Biso   1.000  C
  C47      1.0000 0.49465  0.95542  0.92104  Biso   1.000  C
  C48      1.0000 0.28077  0.38007  0.90594  Biso   1.000  C
  O10      1.0000 0.39249  0.29720  0.96877  Biso   1.000  O
  C49      1.0000 0.37233  0.48975  0.82335  Biso   1.000  C
  H44      1.0000 0.54430  0.50328  0.81351  Biso   1.000  H
  C50      1.0000 0.90846  0.78165  0.86721  Biso   1.000  C
  H45      1.0000 0.16909  0.44450  0.55502  Biso   1.000  H
  H46      1.0000 0.24010  0.43825  0.61720  Biso   1.000  H
  H47      1.0000 0.14849  0.50574  0.61911  Biso   1.000  H
  C51      1.0000 0.15433  0.45666  0.83938  Biso   1.000  C
  C52      1.0000 0.89466  0.15570  0.87536  Biso   1.000  C
  H48      1.0000 0.67652  0.20051  0.57082  Biso   1.000  H
  H49      1.0000 0.54062  0.18654  0.58051  Biso   1.000  H
  H50      1.0000 0.57615  0.09741  0.53619  Biso   1.000  H
  H51      1.0000 0.43817  0.98574  0.94281  Biso   1.000  H
  H52      1.0000 0.57400  0.99217  0.94052  Biso   1.000  H
  C53      1.0000 0.45867  0.83178  0.92547  Biso   1.000  C
  C54      1.0000 0.27119  0.44268  0.85686  Biso   1.000  C
  H53      1.0000 0.21366  0.34833  0.92999  Biso   1.000  H
  C55      1.0000 0.36330  0.32826  0.02661  Biso   1.000  C
  O11      1.0000 0.36054  0.55598  0.77660  Biso   1.000  O
  C56      1.0000 0.94563  0.69790  0.90011  Biso   1.000  C
  H54      1.0000 0.97154  0.82072  0.83938  Biso   1.000  H
  H55      1.0000 0.89705  0.83773  0.89829  Biso   1.000  H
  H56      1.0000 0.10441  0.44690  0.87639  Biso   1.000  H
  H57      1.0000 0.16877  0.53316  0.82661  Biso   1.000  H
  H58      1.0000 0.89135  0.15080  0.92062  Biso   1.000  H
  H59      1.0000 0.90794  0.08931  0.85588  Biso   1.000  H
  H60      1.0000 0.81997  0.16055  0.85928  Biso   1.000  H
  S4       1.0000 0.31174  0.75522  0.90104  Biso   1.000  S
  H61      1.0000 0.47005  0.81715  0.96928  Biso   1.000  H
  H62      1.0000 0.51237  0.80317  0.90011  Biso   1.000  H
  H63      1.0000 0.37104  0.27547  0.05621  Biso   1.000  H
  H64      1.0000 0.28182  0.32844  0.02540  Biso   1.000  H
  H65      1.0000 0.41619  0.40307  0.03980  Biso   1.000  H
  C57      1.0000 0.46336  0.61310  0.74584  Biso   1.000  C
  H66      1.0000 0.88966  0.66642  0.93279  Biso   1.000  H
  H67      1.0000 0.94870  0.63641  0.87019  Biso   1.000  H
  O12      1.0000 0.05844  0.75506  0.92668  Biso   1.000  O
  C58      1.0000 0.23468  0.74921  0.97296  Biso   1.000  C
  H68      1.0000 0.44375  0.65692  0.71419  Biso   1.000  H
  H69      1.0000 0.49684  0.55942  0.72580  Biso   1.000  H
  H70      1.0000 0.52093  0.66302  0.77618  Biso   1.000  H
  C59      1.0000 0.10409  0.68973  0.96280  Biso   1.000  C
  H71      1.0000 0.24755  0.82582  0.99119  Biso   1.000  H
  H72      1.0000 0.26679  0.70984  0.00298  Biso   1.000  H
  H73      1.0000 0.09014  0.61548  0.94090  Biso   1.000  H
  H74      1.0000 0.06475  0.67908  0.00330  Biso   1.000  H
  C60      1.0000 0.43170  0.62473  0.51498  Biso   1.000  C
  O13      1.0000 0.31429  0.61206  0.49620  Biso   1.000  O
  C61      1.0000 0.45583  0.68044  0.57930  Biso   1.000  C
  H75      1.0000 0.44273  0.55095  0.51452  Biso   1.000  H
  H76      1.0000 0.48728  0.67035  0.48581  Biso   1.000  H
  C62      1.0000 0.27838  0.54522  0.44036  Biso   1.000  C
  S5       1.0000 0.60999  0.72338  0.60368  Biso   1.000  S
  H77      1.0000 0.42965  0.74667  0.58112  Biso   1.000  H
  H78      1.0000 0.40880  0.62866  0.60899  Biso   1.000  H
  C63      1.0000 0.15826  0.54480  0.41999  Biso   1.000  C
  H79      1.0000 0.33541  0.57445  0.40760  Biso   1.000  H
  H80      1.0000 0.27609  0.46823  0.44670  Biso   1.000  H
  C64      1.0000 0.66632  0.85225  0.56518  Biso   1.000  C
  S6       1.0000 0.09636  0.45137  0.35348  Biso   1.000  S
  H81      1.0000 0.10443  0.52425  0.45509  Biso   1.000  H
  H82      1.0000 0.16351  0.62110  0.41021  Biso   1.000  H
  C65      1.0000 0.75390  0.84767  0.51587  Biso   1.000  C
  H83      1.0000 0.70476  0.91378  0.59678  Biso   1.000  H
  H84      1.0000 0.59963  0.86887  0.54560  Biso   1.000  H
  C66      1.0000 0.15621  0.54345  0.28669  Biso   1.000  C
  C67      1.0000 0.19897  0.48055  0.29671  Biso   1.000  C
  O14      1.0000 0.78546  0.95368  0.48958  Biso   1.000  O
  H85      1.0000 0.71778  0.78664  0.48361  Biso   1.000  H
  H86      1.0000 0.82404  0.83577  0.53470  Biso   1.000  H
  C68      1.0000 0.28547  0.56265  0.27499  Biso   1.000  C
  H87      1.0000 0.14486  0.61636  0.29601  Biso   1.000  H
  H88      1.0000 0.15746  0.62034  0.27429  Biso   1.000  H
  H89      1.0000 0.10978  0.50860  0.24810  Biso   1.000  H
  C69      1.0000 0.22918  0.59979  0.28119  Biso   1.000  C
  H90      1.0000 0.30421  0.49276  0.27709  Biso   1.000  H
  H91      1.0000 0.16758  0.43084  0.25882  Biso   1.000  H
  H92      1.0000 0.27103  0.46670  0.31130  Biso   1.000  H
  C70      1.0000 0.87203  0.97878  0.44581  Biso   1.000  C
  O15      1.0000 0.30003  0.59880  0.21692  Biso   1.000  O
  H93      1.0000 0.33615  0.61936  0.30589  Biso   1.000  H
  H94      1.0000 0.27976  0.65130  0.31428  Biso   1.000  H
  C71      1.0000 0.93838  0.91065  0.42899  Biso   1.000  C
  C72      1.0000 0.89078  0.07883  0.41841  Biso   1.000  C
  C73      1.0000 0.34793  0.70639  0.19986  Biso   1.000  C
  C74      1.0000 0.02328  0.93987  0.38373  Biso   1.000  C
  H95      1.0000 0.92568  0.84323  0.44861  Biso   1.000  H
  C75      1.0000 0.97629  0.10907  0.37394  Biso   1.000  C
  C76      1.0000 0.81418  0.15139  0.43276  Biso   1.000  C
  C77      1.0000 0.39672  0.71772  0.14109  Biso   1.000  C
  C78      1.0000 0.35037  0.79920  0.23719  Biso   1.000  C
  C79      1.0000 0.09212  0.86294  0.36425  Biso   1.000  C
  C80      1.0000 0.04052  0.03993  0.35572  Biso   1.000  C
  H96      1.0000 0.99097  0.17808  0.35572  Biso   1.000  H
  C81      1.0000 0.70809  0.11595  0.38830  Biso   1.000  C
  H97      1.0000 0.86024  0.23035  0.42829  Biso   1.000  H
  H98      1.0000 0.78798  0.14369  0.47630  Biso   1.000  H
  C82      1.0000 0.40237  0.61734  0.10100  Biso   1.000  C
  C83      1.0000 0.44708  0.82435  0.12165  Biso   1.000  C
  H99      1.0000 0.31599  0.78995  0.27690  Biso   1.000  H
  C84      1.0000 0.40185  0.90663  0.21818  Biso   1.000  C
  C85      1.0000 0.02988  0.77901  0.31121  Biso   1.000  C
  H100     1.0000 0.17102  0.90783  0.35101  Biso   1.000  H
  H101     1.0000 0.10310  0.82261  0.40051  Biso   1.000  H
  O16      1.0000 0.12408  0.06604  0.31009  Biso   1.000  O
  C86      1.0000 0.60564  0.03335  0.40275  Biso   1.000  C
  C87      1.0000 0.71258  0.16154  0.33064  Biso   1.000  C
  C88      1.0000 0.51578  0.59355  0.11382  Biso   1.000  C
  H102     1.0000 0.39707  0.63105  0.05649  Biso   1.000  H
  H103     1.0000 0.33442  0.55151  0.10958  Biso   1.000  H
  H104     1.0000 0.47944  0.83355  0.08152  Biso   1.000  H
  C89      1.0000 0.45099  0.91777  0.15987  Biso   1.000  C
  C90      1.0000 0.40658  0.00760  0.25966  Biso   1.000  C
  C91      1.0000 0.05266  0.80221  0.24978  Biso   1.000  C
  C92      1.0000 0.94669  0.67797  0.32361  Biso   1.000  C
  C93      1.0000 0.13251  0.16295  0.27816  Biso   1.000  C
  C94      1.0000 0.50829  0.99726  0.36164  Biso   1.000  C
  H105     1.0000 0.60174  0.00073  0.44148  Biso   1.000  H
  C95      1.0000 0.61516  0.12623  0.28977  Biso   1.000  C
  O17      1.0000 0.81715  0.24198  0.31815  Biso   1.000  O
  C96      1.0000 0.52334  0.52875  0.16262  Biso   1.000  C
  C97      1.0000 0.61485  0.63734  0.07933  Biso   1.000  C
  O18      1.0000 0.50486  0.02522  0.14370  Biso   1.000  O
  H106     1.0000 0.33358  0.99088  0.28362  Biso   1.000  H
  H107     1.0000 0.40929  0.06929  0.23342  Biso   1.000  H
  C98      1.0000 0.51193  0.04494  0.30478  Biso   1.000  C
  C99      1.0000 0.99423  0.72770  0.20093  Biso   1.000  C
  H108     1.0000 0.10971  0.87074  0.24092  Biso   1.000  H
  C100     1.0000 0.88887  0.60255  0.27481  Biso   1.000  C
  O19      1.0000 0.92746  0.65826  0.38569  Biso   1.000  O
  C101     1.0000 0.21864  0.16995  0.22652  Biso   1.000  C
  H109     1.0000 0.05439  0.15791  0.26059  Biso   1.000  H
  H110     1.0000 0.16055  0.23015  0.30729  Biso   1.000  H
  O20      1.0000 0.40347  0.91730  0.37399  Biso   1.000  O
  H111     1.0000 0.61940  0.15841  0.25080  Biso   1.000  H
  C102     1.0000 0.82970  0.28068  0.25719  Biso   1.000  C
  C103     1.0000 0.62788  0.51035  0.17665  Biso   1.000  C
  H112     1.0000 0.45591  0.49682  0.18648  Biso   1.000  H
  C104     1.0000 0.71945  0.62003  0.09406  Biso   1.000  C
  O21      1.0000 0.60770  0.70282  0.03123  Biso   1.000  O
  C105     1.0000 0.50556  0.04467  0.07896  Biso   1.000  C
  C106     1.0000 0.91123  0.62623  0.21328  Biso   1.000  C
  O22      1.0000 0.01171  0.74789  0.13875  Biso   1.000  O
  H113     1.0000 0.83291  0.53354  0.28380  Biso   1.000  H
  C107     1.0000 0.83543  0.55975  0.39967  Biso   1.000  C
  S7       1.0000 0.22603  0.28269  0.17800  Biso   1.000  S
  H114     1.0000 0.29785  0.18124  0.24488  Biso   1.000  H
  H115     1.0000 0.19432  0.09890  0.20042  Biso   1.000  H
  C108     1.0000 0.40263  0.85335  0.42559  Biso   1.000  C
  H116     1.0000 0.90715  0.33736  0.25439  Biso   1.000  H
  H117     1.0000 0.82253  0.21828  0.22661  Biso   1.000  H
  H118     1.0000 0.76801  0.31321  0.24861  Biso   1.000  H
  O23      1.0000 0.63967  0.44412  0.22340  Biso   1.000  O
  C109     1.0000 0.72902  0.55742  0.14314  Biso   1.000  C
  H119     1.0000 0.78656  0.65177  0.07001  Biso   1.000  H
  C110     1.0000 0.63692  0.67184  0.97339  Biso   1.000  C
  H120     1.0000 0.56205  0.01436  0.05719  Biso   1.000  H
  H121     1.0000 0.42619  0.00784  0.05952  Biso   1.000  H
  C111     1.0000 0.54151  0.16823  0.07453  Biso   1.000  C
  C112     1.0000 0.84589  0.54344  0.16066  Biso   1.000  C
  C113     1.0000 0.10552  0.84432  0.12463  Biso   1.000  C
  H122     1.0000 0.83110  0.55552  0.44502  Biso   1.000  H
  H123     1.0000 0.76011  0.56184  0.38280  Biso   1.000  H
  H124     1.0000 0.85172  0.49436  0.38089  Biso   1.000  H
  C114     1.0000 0.09172  0.21836  0.13279  Biso   1.000  C
  H125     1.0000 0.32367  0.79951  0.42922  Biso   1.000  H
  H126     1.0000 0.45959  0.81355  0.41948  Biso   1.000  H
  H127     1.0000 0.42406  0.90268  0.46381  Biso   1.000  H
  C115     1.0000 0.53682  0.38691  0.25416  Biso   1.000  C
  H128     1.0000 0.62917  0.72463  0.94379  Biso   1.000  H
  H129     1.0000 0.71839  0.67166  0.97460  Biso   1.000  H
  H130     1.0000 0.58402  0.59703  0.96020  Biso   1.000  H
  S8       1.0000 0.68845  0.24480  0.09900  Biso   1.000  S
  H131     1.0000 0.53013  0.18286  0.03072  Biso   1.000  H
  H132     1.0000 0.48782  0.19684  0.09988  Biso   1.000  H
  H133     1.0000 0.89577  0.55312  0.12361  Biso   1.000  H
  H134     1.0000 0.83145  0.46693  0.17339  Biso   1.000  H
  H135     1.0000 0.10884  0.84922  0.07942  Biso   1.000  H
  H136     1.0000 0.09225  0.91071  0.14411  Biso   1.000  H
  H137     1.0000 0.18024  0.83954  0.14071  Biso   1.000  H
  C116     1.0000 0.05458  0.30220  0.09988  Biso   1.000  C
  H138     1.0000 0.02867  0.17937  0.16061  Biso   1.000  H
  H139     1.0000 0.10316  0.16237  0.10170  Biso   1.000  H
  H140     1.0000 0.55643  0.34310  0.28581  Biso   1.000  H
  H141     1.0000 0.50335  0.44059  0.27420  Biso   1.000  H
  H142     1.0000 0.47925  0.33700  0.22382  Biso   1.000  H
  C117     1.0000 0.76553  0.25088  0.02703  Biso   1.000  C
  O24      1.0000 0.94175  0.24495  0.07332  Biso   1.000  O
  H143     1.0000 0.11055  0.33368  0.06721  Biso   1.000  H
  H144     1.0000 0.05151  0.36368  0.12981  Biso   1.000  H
  H145     1.0000 0.73342  0.29026  0.99702  Biso   1.000  H
  H146     1.0000 0.75266  0.17428  0.00881  Biso   1.000  H
  C118     1.0000 0.89612  0.31037  0.03724  Biso   1.000  C
  H147     1.0000 0.93544  0.32093  0.99669  Biso   1.000  H
  H148     1.0000 0.91004  0.38454  0.05910  Biso   1.000  H
