data_image0
_cell_length_a       11.665
_cell_length_b       15.707
_cell_length_c       14.472
_cell_angle_alpha    90
_cell_angle_beta     92.51
_cell_angle_gamma    90

_symmetry_space_group_name_H-M    "P 1"
_symmetry_int_tables_number       1

loop_
  _symmetry_equiv_pos_as_xyz
  'x, y, z'

loop_
  _atom_site_label
  _atom_site_occupancy
  _atom_site_fract_x
  _atom_site_fract_y
  _atom_site_fract_z
  _atom_site_thermal_displace_type
  _atom_site_B_iso_or_equiv
  _atom_site_type_symbol
  N1       1.0000 0.80323  0.35029  0.70798  Biso   1.000  N
  C1       1.0000 0.74307  0.34800  0.62477  Biso   1.000  C
  C2       1.0000 0.87898  0.27746  0.72146  Biso   1.000  C
  C3       1.0000 0.78228  0.41192  0.77991  Biso   1.000  C
  N2       1.0000 0.77329  0.27555  0.57974  Biso   1.000  N
  O1       1.0000 0.67210  0.40052  0.59648  Biso   1.000  O
  C4       1.0000 0.86221  0.22729  0.62899  Biso   1.000  C
  N3       1.0000 0.99953  0.29910  0.72347  Biso   1.000  N
  H1       1.0000 0.85880  0.24250  0.77617  Biso   1.000  H
  N4       1.0000 0.86894  0.47711  0.78925  Biso   1.000  N
  H2       1.0000 0.70687  0.43929  0.76628  Biso   1.000  H
  H3       1.0000 0.77789  0.38161  0.83960  Biso   1.000  H
  C5       1.0000 0.71637  0.24728  0.49460  Biso   1.000  C
  N5       1.0000 0.97352  0.23238  0.58867  Biso   1.000  N
  H4       1.0000 0.83843  0.16700  0.63950  Biso   1.000  H
  C6       1.0000 0.05380  0.27204  0.64628  Biso   1.000  C
  C7       1.0000 0.06076  0.32858  0.80591  Biso   1.000  C
  C8       1.0000 0.96809  0.46909  0.85322  Biso   1.000  C
  C9       1.0000 0.84210  0.56102  0.77334  Biso   1.000  C
  N6       1.0000 0.77908  0.26765  0.41333  Biso   1.000  N
  H5       1.0000 0.63950  0.27389  0.48879  Biso   1.000  H
  H6       1.0000 0.70547  0.18482  0.49751  Biso   1.000  H
  C10      1.0000 0.00479  0.18030  0.51106  Biso   1.000  C
  O2       1.0000 0.15538  0.28115  0.63189  Biso   1.000  O
  N7       1.0000 0.06089  0.41930  0.81940  Biso   1.000  N
  H7       1.0000 0.02693  0.30152  0.86007  Biso   1.000  H
  H8       1.0000 0.14142  0.30897  0.80412  Biso   1.000  H
  H9       1.0000 0.94576  0.44942  0.91568  Biso   1.000  H
  C11      1.0000 0.01868  0.56083  0.85661  Biso   1.000  C
  O3       1.0000 0.75537  0.58764  0.73108  Biso   1.000  O
  N8       1.0000 0.92738  0.61062  0.81235  Biso   1.000  N
  C12      1.0000 0.74811  0.33380  0.35613  Biso   1.000  C
  C13      1.0000 0.86498  0.21296  0.37557  Biso   1.000  C
  N9       1.0000 0.97727  0.21933  0.42260  Biso   1.000  N
  H10      1.0000 0.96441  0.12498  0.51411  Biso   1.000  H
  H11      1.0000 0.08831  0.16878  0.51618  Biso   1.000  H
  C14      1.0000 0.14803  0.46896  0.78855  Biso   1.000  C
  N10      1.0000 0.12117  0.55243  0.80391  Biso   1.000  N
  H12      1.0000 0.03703  0.58012  0.92142  Biso   1.000  H
  C15      1.0000 0.93259  0.70122  0.79623  Biso   1.000  C
  O4       1.0000 0.67703  0.38887  0.37163  Biso   1.000  O
  N11      1.0000 0.80772  0.32622  0.27777  Biso   1.000  N
  C16      1.0000 0.88332  0.25320  0.27915  Biso   1.000  C
  H13      1.0000 0.83829  0.15261  0.37031  Biso   1.000  H
  C17      1.0000 0.05910  0.24842  0.36512  Biso   1.000  C
  O5       1.0000 0.23502  0.44273  0.75349  Biso   1.000  O
  C18      1.0000 0.20880  0.61781  0.80093  Biso   1.000  C
  N12      1.0000 0.99535  0.72605  0.71600  Biso   1.000  N
  H14      1.0000 0.96877  0.72872  0.85163  Biso   1.000  H
  H15      1.0000 0.85331  0.72331  0.78862  Biso   1.000  H
  C19      1.0000 0.79118  0.38219  0.19906  Biso   1.000  C
  H16      1.0000 0.86329  0.21258  0.22769  Biso   1.000  H
  N13      1.0000 0.00471  0.27395  0.28399  Biso   1.000  N
  O6       1.0000 0.16321  0.25091  0.38318  Biso   1.000  O
  N14      1.0000 0.19235  0.67378  0.72222  Biso   1.000  N
  H17      1.0000 0.20798  0.65187  0.85841  Biso   1.000  H
  H18      1.0000 0.28497  0.59031  0.79858  Biso   1.000  H
  C20      1.0000 0.94088  0.75158  0.63487  Biso   1.000  C
  C21      1.0000 0.11666  0.74680  0.72084  Biso   1.000  C
  N15      1.0000 0.87881  0.44757  0.19608  Biso   1.000  N
  H19      1.0000 0.79200  0.34813  0.14158  Biso   1.000  H
  H20      1.0000 0.71501  0.40969  0.20141  Biso   1.000  H
  C22      1.0000 0.06740  0.29878  0.20383  Biso   1.000  C
  C23      1.0000 0.25187  0.66620  0.64386  Biso   1.000  C
  N16      1.0000 0.02271  0.78067  0.57739  Biso   1.000  N
  O7       1.0000 0.83677  0.74909  0.61682  Biso   1.000  O
  C24      1.0000 0.13500  0.78704  0.62449  Biso   1.000  C
  H21      1.0000 0.13669  0.78742  0.77230  Biso   1.000  H
  C25      1.0000 0.85204  0.53104  0.21144  Biso   1.000  C
  C26      1.0000 0.98130  0.43917  0.14338  Biso   1.000  C
  N17      1.0000 0.07260  0.38938  0.18765  Biso   1.000  N
  H22      1.0000 0.03121  0.27128  0.14843  Biso   1.000  H
  H23      1.0000 0.14667  0.27669  0.21137  Biso   1.000  H
  N18      1.0000 0.22099  0.73235  0.58666  Biso   1.000  N
  O8       1.0000 0.32295  0.61113  0.62837  Biso   1.000  O
  C27      1.0000 0.99519  0.81970  0.48900  Biso   1.000  C
  H24      1.0000 0.16169  0.84739  0.62968  Biso   1.000  H
  O9       1.0000 0.76504  0.55727  0.24651  Biso   1.000  O
  N19      1.0000 0.93909  0.58070  0.18066  Biso   1.000  N
  H25      1.0000 0.96303  0.41988  0.07857  Biso   1.000  H
  C28      1.0000 0.03189  0.53091  0.14677  Biso   1.000  C
  C29      1.0000 0.15788  0.43898  0.22665  Biso   1.000  C
  C30      1.0000 0.28361  0.75272  0.50539  Biso   1.000  C
  N20      1.0000 0.02655  0.76762  0.41133  Biso   1.000  N
  H26      1.0000 0.91167  0.83122  0.48381  Biso   1.000  H
  H27      1.0000 0.03557  0.87502  0.48589  Biso   1.000  H
  C31      1.0000 0.93922  0.67142  0.19408  Biso   1.000  C
  N21      1.0000 0.13104  0.52289  0.21075  Biso   1.000  N
  H28      1.0000 0.05422  0.55058  0.08431  Biso   1.000  H
  O10      1.0000 0.24470  0.41236  0.26891  Biso   1.000  O
  N22      1.0000 0.22669  0.72445  0.42025  Biso   1.000  N
  H29      1.0000 0.36048  0.72611  0.51120  Biso   1.000  H
  H30      1.0000 0.29451  0.81518  0.50249  Biso   1.000  H
  C32      1.0000 0.94618  0.72796  0.35371  Biso   1.000  C
  C33      1.0000 0.13777  0.77271  0.37100  Biso   1.000  C
  H31      1.0000 0.97314  0.69848  0.13992  Biso   1.000  H
  H32      1.0000 0.85856  0.69103  0.19588  Biso   1.000  H
  N23      1.0000 0.00045  0.70090  0.27659  Biso   1.000  N
  C34      1.0000 0.21770  0.58808  0.22008  Biso   1.000  C
  C35      1.0000 0.25691  0.65200  0.37529  Biso   1.000  C
  O11      1.0000 0.84460  0.71885  0.36810  Biso   1.000  O
  C36      1.0000 0.12101  0.72254  0.27853  Biso   1.000  C
  H33      1.0000 0.16163  0.83300  0.36049  Biso   1.000  H
  N24      1.0000 0.19675  0.64971  0.29202  Biso   1.000  N
  H34      1.0000 0.29311  0.56071  0.23371  Biso   1.000  H
  H35      1.0000 0.22209  0.61839  0.16039  Biso   1.000  H
  O12      1.0000 0.32788  0.59948  0.40351  Biso   1.000  O
  H36      1.0000 0.14118  0.75750  0.22382  Biso   1.000  H
  C37      1.0000 0.56743  0.20125  0.70383  Biso   1.000  C
  N25      1.0000 0.57264  0.11059  0.68764  Biso   1.000  N
  N26      1.0000 0.50466  0.22608  0.78399  Biso   1.000  N
  H37      1.0000 0.53124  0.22869  0.64842  Biso   1.000  H
  H38      1.0000 0.64671  0.22328  0.71143  Biso   1.000  H
  C38      1.0000 0.48133  0.06080  0.64338  Biso   1.000  C
  C39      1.0000 0.65791  0.06106  0.72665  Biso   1.000  C
  C40      1.0000 0.38327  0.24683  0.77915  Biso   1.000  C
  C41      1.0000 0.55913  0.25154  0.86512  Biso   1.000  C
  N27      1.0000 0.37884  0.05240  0.69608  Biso   1.000  N
  H39      1.0000 0.46298  0.08009  0.57857  Biso   1.000  H
  C42      1.0000 0.53193  0.96906  0.64676  Biso   1.000  C
  N28      1.0000 0.63107  0.97708  0.71074  Biso   1.000  N
  O13      1.0000 0.74465  0.08767  0.76891  Biso   1.000  O
  N29      1.0000 0.30767  0.17381  0.77776  Biso   1.000  N
  C43      1.0000 0.36502  0.28701  0.87556  Biso   1.000  C
  H40      1.0000 0.36333  0.28739  0.72769  Biso   1.000  H
  N30      1.0000 0.47730  0.28070  0.92260  Biso   1.000  N
  O14      1.0000 0.66316  0.24906  0.88317  Biso   1.000  O
  C44      1.0000 0.29122  0.11778  0.69905  Biso   1.000  C
  C45      1.0000 0.35198  0.96899  0.71143  Biso   1.000  C
  N31      1.0000 0.43912  0.91927  0.68066  Biso   1.000  N
  H41      1.0000 0.55416  0.94939  0.58431  Biso   1.000  H
  C46      1.0000 0.71773  0.91189  0.72008  Biso   1.000  C
  C47      1.0000 0.24806  0.16623  0.85613  Biso   1.000  C
  N32      1.0000 0.27903  0.23232  0.91333  Biso   1.000  N
  H42      1.0000 0.33833  0.34742  0.87031  Biso   1.000  H
  C48      1.0000 0.50482  0.31967  0.01099  Biso   1.000  C
  H43      1.0000 0.29204  0.15191  0.64158  Biso   1.000  H
  H44      1.0000 0.21496  0.09028  0.70141  Biso   1.000  H
  O15      1.0000 0.26499  0.94270  0.74650  Biso   1.000  O
  C49      1.0000 0.43917  0.82855  0.69407  Biso   1.000  C
  N33      1.0000 0.69679  0.85032  0.79208  Biso   1.000  N
  H45      1.0000 0.79314  0.93933  0.73371  Biso   1.000  H
  H46      1.0000 0.72212  0.88158  0.66039  Biso   1.000  H
  O16      1.0000 0.17706  0.11116  0.87162  Biso   1.000  O
  C50      1.0000 0.21640  0.25275  0.99460  Biso   1.000  C
  N34      1.0000 0.47347  0.26759  0.08866  Biso   1.000  N
  H47      1.0000 0.58826  0.33119  0.01618  Biso   1.000  H
  H48      1.0000 0.46436  0.37499  0.01410  Biso   1.000  H
  N35      1.0000 0.50049  0.79907  0.77659  Biso   1.000  N
  H49      1.0000 0.47309  0.80149  0.63992  Biso   1.000  H
  H50      1.0000 0.35860  0.80900  0.69587  Biso   1.000  H
  C51      1.0000 0.62104  0.77749  0.77852  Biso   1.000  C
  C52      1.0000 0.75694  0.84797  0.87529  Biso   1.000  C
  H51      1.0000 0.13954  0.22608  0.98879  Biso   1.000  H
  H52      1.0000 0.20550  0.31521  0.99750  Biso   1.000  H
  N36      1.0000 0.27324  0.22442  0.07974  Biso   1.000  N
  C53      1.0000 0.36215  0.27274  0.12899  Biso   1.000  C
  C54      1.0000 0.55375  0.22799  0.14628  Biso   1.000  C
  C55      1.0000 0.44621  0.77201  0.85371  Biso   1.000  C
  H53      1.0000 0.64121  0.74247  0.72381  Biso   1.000  H
  C56      1.0000 0.63781  0.72726  0.87100  Biso   1.000  C
  O17      1.0000 0.82791  0.90055  0.90351  Biso   1.000  O
  N37      1.0000 0.72672  0.77558  0.92024  Biso   1.000  N
  C57      1.0000 0.24311  0.15203  0.12477  Biso   1.000  C
  C58      1.0000 0.37901  0.22251  0.22146  Biso   1.000  C
  H54      1.0000 0.33838  0.33297  0.13950  Biso   1.000  H
  O18      1.0000 0.65533  0.21888  0.13189  Biso   1.000  O
  N38      1.0000 0.49948  0.20093  0.22347  Biso   1.000  N
  O19      1.0000 0.34464  0.78112  0.86809  Biso   1.000  O
  N39      1.0000 0.52650  0.73241  0.91132  Biso   1.000  N
  H55      1.0000 0.66158  0.66703  0.86049  Biso   1.000  H
  C59      1.0000 0.78356  0.74725  0.00539  Biso   1.000  C
  O20      1.0000 0.17205  0.09945  0.09648  Biso   1.000  O
  N40      1.0000 0.30327  0.14968  0.20797  Biso   1.000  N
  H56      1.0000 0.35875  0.25753  0.27617  Biso   1.000  H
  C60      1.0000 0.56079  0.17145  0.30591  Biso   1.000  C
  C61      1.0000 0.49523  0.68033  0.98899  Biso   1.000  C
  N41      1.0000 0.72093  0.76768  0.08666  Biso   1.000  N
  H57      1.0000 0.86051  0.77392  0.01120  Biso   1.000  H
  H58      1.0000 0.79446  0.68479  0.00248  Biso   1.000  H
  C62      1.0000 0.28231  0.08811  0.27990  Biso   1.000  C
  N42      1.0000 0.56084  0.08073  0.31933  Biso   1.000  N
  H59      1.0000 0.52687  0.19851  0.36007  Biso   1.000  H
  H60      1.0000 0.64137  0.19100  0.30411  Biso   1.000  H
  H61      1.0000 0.41170  0.66881  0.98381  Biso   1.000  H
  H62      1.0000 0.53561  0.62501  0.98588  Biso   1.000  H
  N43      1.0000 0.52266  0.71930  0.07739  Biso   1.000  N
  C63      1.0000 0.63495  0.71299  0.12442  Biso   1.000  C
  C64      1.0000 0.75190  0.83377  0.14386  Biso   1.000  C
  N44      1.0000 0.36889  0.02292  0.28924  Biso   1.000  N
  H63      1.0000 0.20690  0.06067  0.26628  Biso   1.000  H
  H64      1.0000 0.27784  0.11842  0.33959  Biso   1.000  H
  C65      1.0000 0.46812  0.03094  0.35322  Biso   1.000  C
  C66      1.0000 0.64798  0.03101  0.28855  Biso   1.000  C
  C67      1.0000 0.44091  0.74846  0.13486  Biso   1.000  C
  H65      1.0000 0.66172  0.65258  0.12968  Biso   1.000  H
  C68      1.0000 0.61669  0.75317  0.22084  Biso   1.000  C
  O21      1.0000 0.82290  0.88884  0.12836  Biso   1.000  O
  N45      1.0000 0.69230  0.82619  0.22222  Biso   1.000  N
  C69      1.0000 0.34205  0.93894  0.27333  Biso   1.000  C
  C70      1.0000 0.51871  0.93920  0.35661  Biso   1.000  C
  H66      1.0000 0.44580  0.05061  0.41568  Biso   1.000  H
  N46      1.0000 0.62112  0.94760  0.30390  Biso   1.000  N
  O22      1.0000 0.73497  0.05730  0.25348  Biso   1.000  O
  O23      1.0000 0.33680  0.75094  0.11681  Biso   1.000  O
  N47      1.0000 0.49530  0.77392  0.21600  Biso   1.000  N
  H67      1.0000 0.63672  0.71261  0.27230  Biso   1.000  H
  C71      1.0000 0.70874  0.88222  0.30093  Biso   1.000  C
  O24      1.0000 0.25531  0.91233  0.23107  Biso   1.000  O
  N48      1.0000 0.42732  0.88941  0.31234  Biso   1.000  N
  H68      1.0000 0.53698  0.91991  0.42142  Biso   1.000  H
  C72      1.0000 0.43262  0.79875  0.29616  Biso   1.000  C
  H69      1.0000 0.70801  0.84809  0.35841  Biso   1.000  H
  H70      1.0000 0.78500  0.90972  0.29858  Biso   1.000  H
  H71      1.0000 0.46880  0.77131  0.35156  Biso   1.000  H
  H72      1.0000 0.35325  0.77672  0.28862  Biso   1.000  H
  Ne1      1.0000 1.00000  0.50000  0.50000  Biso   1.000  Ne
  He1      1.0000 0.25205  0.42071  0.49170  Biso   1.000  He
  He2      1.0000 0.70598  0.57179  0.47481  Biso   1.000  He
  Ar1      1.0000 1.00000  0.50000  0.50000  Biso   1.000  Ar
  Ne2      1.0000 0.49999  0.00000  0.99999  Biso   1.000  Ne
  He3      1.0000 0.74937  0.07859  0.99149  Biso   1.000  He
  He4      1.0000 0.26319  0.92482  0.00950  Biso   1.000  He
  Ar2      1.0000 0.49999  1.00000  0.99999  Biso   1.000  Ar
