data_image0
_cell_length_a       12.681
_cell_length_b       9.781
_cell_length_c       29.935
_cell_angle_alpha    90
_cell_angle_beta     94.81
_cell_angle_gamma    90

_symmetry_space_group_name_H-M    "P 1"
_symmetry_int_tables_number       1

loop_
  _symmetry_equiv_pos_as_xyz
  'x, y, z'

loop_
  _atom_site_label
  _atom_site_occupancy
  _atom_site_fract_x
  _atom_site_fract_y
  _atom_site_fract_z
  _atom_site_thermal_displace_type
  _atom_site_B_iso_or_equiv
  _atom_site_type_symbol
  C1       1.0000 0.57646  0.61589  0.46853  Biso   1.000  C
  C2       1.0000 0.49822  0.69727  0.44496  Biso   1.000  C
  C3       1.0000 0.66672  0.69236  0.47553  Biso   1.000  C
  H1       1.0000 0.56789  0.52398  0.47781  Biso   1.000  H
  C4       1.0000 0.54142  0.82231  0.43732  Biso   1.000  C
  H2       1.0000 0.42768  0.66997  0.43601  Biso   1.000  H
  N1       1.0000 0.64476  0.81853  0.45626  Biso   1.000  N
  C5       1.0000 0.77413  0.65290  0.49826  Biso   1.000  C
  C6       1.0000 0.49062  0.94469  0.41258  Biso   1.000  C
  H3       1.0000 0.68909  0.89193  0.45669  Biso   1.000  H
  C7       1.0000 0.85410  0.62662  0.46444  Biso   1.000  C
  C8       1.0000 0.81608  0.76199  0.53216  Biso   1.000  C
  C9       1.0000 0.76013  0.51937  0.52435  Biso   1.000  C
  C10      1.0000 0.43962  0.88897  0.36722  Biso   1.000  C
  C11      1.0000 0.57047  0.05470  0.40440  Biso   1.000  C
  C12      1.0000 0.40485  0.00491  0.44017  Biso   1.000  C
  N2       1.0000 0.89374  0.72825  0.43842  Biso   1.000  N
  C13      1.0000 0.89992  0.50690  0.45254  Biso   1.000  C
  H4       1.0000 0.82204  0.84971  0.51680  Biso   1.000  H
  H5       1.0000 0.88581  0.73438  0.54580  Biso   1.000  H
  H6       1.0000 0.76702  0.77139  0.55559  Biso   1.000  H
  H7       1.0000 0.70913  0.53410  0.54681  Biso   1.000  H
  H8       1.0000 0.82832  0.49157  0.53940  Biso   1.000  H
  H9       1.0000 0.73384  0.44750  0.50349  Biso   1.000  H
  C14      1.0000 0.37691  0.98947  0.33648  Biso   1.000  C
  H10      1.0000 0.49679  0.85012  0.35049  Biso   1.000  H
  H11      1.0000 0.39200  0.81260  0.37369  Biso   1.000  H
  N3       1.0000 0.64141  0.03967  0.37238  Biso   1.000  N
  C15      1.0000 0.58768  0.18178  0.42284  Biso   1.000  C
  H12      1.0000 0.35212  0.93446  0.44510  Biso   1.000  H
  H13      1.0000 0.43731  0.03681  0.46910  Biso   1.000  H
  H14      1.0000 0.37030  0.08189  0.42381  Biso   1.000  H
  C16      1.0000 0.96324  0.67345  0.41030  Biso   1.000  C
  H15      1.0000 0.87921  0.81740  0.44070  Biso   1.000  H
  C17      1.0000 0.96756  0.53614  0.41895  Biso   1.000  C
  H16      1.0000 0.88800  0.41918  0.46481  Biso   1.000  H
  C18      1.0000 0.33588  0.92690  0.29172  Biso   1.000  C
  H17      1.0000 0.31609  0.02372  0.35190  Biso   1.000  H
  H18      1.0000 0.42255  0.06850  0.33081  Biso   1.000  H
  H19      1.0000 0.64858  0.96708  0.35679  Biso   1.000  H
  C19      1.0000 0.70280  0.15510  0.36980  Biso   1.000  C
  C20      1.0000 0.67057  0.24466  0.40138  Biso   1.000  C
  H20      1.0000 0.55055  0.22094  0.44600  Biso   1.000  H
  C21      1.0000 0.01547  0.75074  0.37416  Biso   1.000  C
  H21      1.0000 0.00927  0.47142  0.40460  Biso   1.000  H
  O1       1.0000 0.41586  0.92884  0.25954  Biso   1.000  O
  H22      1.0000 0.31389  0.83131  0.29658  Biso   1.000  H
  H23      1.0000 0.27293  0.97853  0.27929  Biso   1.000  H
  C22      1.0000 0.78843  0.16512  0.33745  Biso   1.000  C
  H24      1.0000 0.69895  0.33309  0.40772  Biso   1.000  H
  C23      1.0000 0.97523  0.68020  0.32940  Biso   1.000  C
  C24      1.0000 0.98812  0.90113  0.37265  Biso   1.000  C
  C25      1.0000 0.13658  0.73530  0.38204  Biso   1.000  C
  C26      1.0000 0.48004  0.82118  0.25713  Biso   1.000  C
  C27      1.0000 0.88623  0.08782  0.35549  Biso   1.000  C
  C28      1.0000 0.74740  0.10776  0.29115  Biso   1.000  C
  C29      1.0000 0.81693  0.31643  0.33165  Biso   1.000  C
  C30      1.0000 0.01867  0.73234  0.28676  Biso   1.000  C
  H25      1.0000 0.99178  0.58143  0.33219  Biso   1.000  H
  H26      1.0000 0.89723  0.68878  0.32582  Biso   1.000  H
  N4       1.0000 0.89007  0.94663  0.35535  Biso   1.000  N
  C31      1.0000 0.04686  0.01513  0.38412  Biso   1.000  C
  H27      1.0000 0.17048  0.78581  0.35891  Biso   1.000  H
  H28      1.0000 0.15546  0.63828  0.38060  Biso   1.000  H
  H29      1.0000 0.16073  0.77170  0.41160  Biso   1.000  H
  O2       1.0000 0.47967  0.71987  0.27992  Biso   1.000  O
  C32      1.0000 0.55290  0.84317  0.22082  Biso   1.000  C
  C33      1.0000 0.98342  0.13179  0.37359  Biso   1.000  C
  H30      1.0000 0.80191  0.11921  0.27010  Biso   1.000  H
  H31      1.0000 0.68337  0.15724  0.27999  Biso   1.000  H
  H32      1.0000 0.73101  0.01043  0.29400  Biso   1.000  H
  H33      1.0000 0.83899  0.35620  0.36102  Biso   1.000  H
  H34      1.0000 0.75503  0.36581  0.31811  Biso   1.000  H
  H35      1.0000 0.87496  0.32379  0.31211  Biso   1.000  H
  C34      1.0000 0.96637  0.65791  0.24640  Biso   1.000  C
  H36      1.0000 0.00520  0.83171  0.28361  Biso   1.000  H
  H37      1.0000 0.09620  0.71762  0.28841  Biso   1.000  H
  H38      1.0000 0.83430  0.89234  0.34650  Biso   1.000  H
  H39      1.0000 0.11799  0.01595  0.39689  Biso   1.000  H
  N5       1.0000 0.65474  0.80820  0.23095  Biso   1.000  N
  C35      1.0000 0.51505  0.89469  0.17942  Biso   1.000  C
  H40      1.0000 0.00437  0.22421  0.37822  Biso   1.000  H
  O3       1.0000 0.85498  0.69768  0.23782  Biso   1.000  O
  H41      1.0000 0.97088  0.55802  0.25170  Biso   1.000  H
  H42      1.0000 0.00453  0.67907  0.21971  Biso   1.000  H
  C36      1.0000 0.72170  0.83284  0.19953  Biso   1.000  C
  C37      1.0000 0.58450  0.91422  0.14700  Biso   1.000  C
  H43      1.0000 0.44212  0.91627  0.17349  Biso   1.000  H
  C38      1.0000 0.83714  0.80421  0.21026  Biso   1.000  C
  C39      1.0000 0.69037  0.88590  0.15760  Biso   1.000  C
  H44      1.0000 0.56015  0.94643  0.11800  Biso   1.000  H
  O4       1.0000 0.90463  0.87005  0.19424  Biso   1.000  O
  H45      1.0000 0.74077  0.90257  0.13651  Biso   1.000  H
  C40      1.0000 0.42379  0.38411  0.53149  Biso   1.000  C
  C41      1.0000 0.33352  0.30764  0.52445  Biso   1.000  C
  C42      1.0000 0.50202  0.30273  0.55502  Biso   1.000  C
  H46      1.0000 0.43236  0.47602  0.52220  Biso   1.000  H
  C43      1.0000 0.22612  0.34710  0.50175  Biso   1.000  C
  N6       1.0000 0.35548  0.18147  0.54376  Biso   1.000  N
  C44      1.0000 0.45882  0.17769  0.56266  Biso   1.000  C
  H47      1.0000 0.57257  0.33013  0.56400  Biso   1.000  H
  C45      1.0000 0.18416  0.23801  0.46782  Biso   1.000  C
  C46      1.0000 0.14615  0.37338  0.53558  Biso   1.000  C
  C47      1.0000 0.24012  0.48063  0.47567  Biso   1.000  C
  H48      1.0000 0.31115  0.10807  0.54329  Biso   1.000  H
  C48      1.0000 0.50962  0.05531  0.58744  Biso   1.000  C
  H49      1.0000 0.17821  0.15029  0.48321  Biso   1.000  H
  H50      1.0000 0.11443  0.26562  0.45421  Biso   1.000  H
  H51      1.0000 0.23322  0.22861  0.44439  Biso   1.000  H
  N7       1.0000 0.10650  0.27175  0.56156  Biso   1.000  N
  C49      1.0000 0.10033  0.49320  0.54748  Biso   1.000  C
  H52      1.0000 0.29111  0.46590  0.45321  Biso   1.000  H
  H53      1.0000 0.17193  0.50854  0.46062  Biso   1.000  H
  H54      1.0000 0.26640  0.55250  0.49649  Biso   1.000  H
  C50      1.0000 0.56063  0.11113  0.63279  Biso   1.000  C
  C51      1.0000 0.42978  0.94540  0.59562  Biso   1.000  C
  C52      1.0000 0.59540  0.99509  0.55985  Biso   1.000  C
  C53      1.0000 0.03700  0.32655  0.58968  Biso   1.000  C
  H55      1.0000 0.12104  0.18260  0.55931  Biso   1.000  H
  H56      1.0000 0.11225  0.58082  0.53521  Biso   1.000  H
  C54      1.0000 0.03269  0.46396  0.58107  Biso   1.000  C
  C55      1.0000 0.62334  0.01063  0.66354  Biso   1.000  C
  H57      1.0000 0.50345  0.14988  0.64949  Biso   1.000  H
  H58      1.0000 0.60824  0.18740  0.62629  Biso   1.000  H
  N8       1.0000 0.35884  0.96043  0.62763  Biso   1.000  N
  C56      1.0000 0.41257  0.81832  0.57718  Biso   1.000  C
  H59      1.0000 0.64812  0.06564  0.55489  Biso   1.000  H
  H60      1.0000 0.56294  0.96319  0.53092  Biso   1.000  H
  H61      1.0000 0.62995  0.91811  0.57621  Biso   1.000  H
  C57      1.0000 0.98477  0.24926  0.62582  Biso   1.000  C
  H62      1.0000 0.99098  0.52858  0.59542  Biso   1.000  H
  C58      1.0000 0.66437  0.07310  0.70829  Biso   1.000  C
  H63      1.0000 0.68416  0.97638  0.64812  Biso   1.000  H
  H64      1.0000 0.57770  0.93150  0.66920  Biso   1.000  H
  H65      1.0000 0.35167  0.03302  0.64319  Biso   1.000  H
  C59      1.0000 0.29745  0.84501  0.63021  Biso   1.000  C
  C60      1.0000 0.32967  0.75534  0.59860  Biso   1.000  C
  H66      1.0000 0.44970  0.77916  0.55401  Biso   1.000  H
  C61      1.0000 0.01212  0.09897  0.62733  Biso   1.000  C
  C62      1.0000 0.02501  0.31991  0.67058  Biso   1.000  C
  C63      1.0000 0.86367  0.26480  0.61798  Biso   1.000  C
  O5       1.0000 0.58438  0.07116  0.74044  Biso   1.000  O
  H67      1.0000 0.68635  0.16869  0.70340  Biso   1.000  H
  H68      1.0000 0.72731  0.02147  0.72069  Biso   1.000  H
  C64      1.0000 0.21182  0.83488  0.66256  Biso   1.000  C
  H69      1.0000 0.30130  0.66691  0.59230  Biso   1.000  H
  N9       1.0000 0.11018  0.05347  0.64466  Biso   1.000  N
  C65      1.0000 0.95339  0.98497  0.61590  Biso   1.000  C
  H70      1.0000 0.00846  0.41857  0.66779  Biso   1.000  H
  H71      1.0000 0.10301  0.31122  0.67420  Biso   1.000  H
  C66      1.0000 0.98157  0.26766  0.71325  Biso   1.000  C
  H72      1.0000 0.82976  0.21419  0.64111  Biso   1.000  H
  H73      1.0000 0.84479  0.36172  0.61942  Biso   1.000  H
  H74      1.0000 0.83952  0.22830  0.58841  Biso   1.000  H
  C67      1.0000 0.52021  0.17882  0.74289  Biso   1.000  C
  C68      1.0000 0.11402  0.91228  0.64453  Biso   1.000  C
  C69      1.0000 0.25284  0.89224  0.70886  Biso   1.000  C
  C70      1.0000 0.18332  0.68357  0.66836  Biso   1.000  C
  H75      1.0000 0.16595  0.10766  0.65351  Biso   1.000  H
  H76      1.0000 0.88225  0.98415  0.60309  Biso   1.000  H
  C71      1.0000 0.01683  0.86832  0.62643  Biso   1.000  C
  C72      1.0000 0.03387  0.34219  0.75358  Biso   1.000  C
  H77      1.0000 0.99505  0.16829  0.71640  Biso   1.000  H
  H78      1.0000 0.90405  0.28238  0.71161  Biso   1.000  H
  O6       1.0000 0.52058  0.28013  0.72009  Biso   1.000  O
  C73      1.0000 0.44735  0.15683  0.77919  Biso   1.000  C
  H79      1.0000 0.19834  0.88079  0.72991  Biso   1.000  H
  H80      1.0000 0.31687  0.84286  0.71999  Biso   1.000  H
  H81      1.0000 0.26923  0.98967  0.70601  Biso   1.000  H
  H82      1.0000 0.16126  0.64380  0.63900  Biso   1.000  H
  H83      1.0000 0.24522  0.63419  0.68191  Biso   1.000  H
  H84      1.0000 0.12528  0.67621  0.68791  Biso   1.000  H
  H85      1.0000 0.99588  0.77579  0.62180  Biso   1.000  H
  O7       1.0000 0.14527  0.30232  0.76220  Biso   1.000  O
  H86      1.0000 0.02936  0.44198  0.74832  Biso   1.000  H
  H87      1.0000 0.99571  0.32103  0.78030  Biso   1.000  H
  N10      1.0000 0.34551  0.19190  0.76907  Biso   1.000  N
  C74      1.0000 0.48520  0.10541  0.82059  Biso   1.000  C
  C75      1.0000 0.16311  0.19579  0.78975  Biso   1.000  C
  C76      1.0000 0.27855  0.16716  0.80048  Biso   1.000  C
  C77      1.0000 0.41575  0.08578  0.85298  Biso   1.000  C
  H88      1.0000 0.55813  0.08384  0.82650  Biso   1.000  H
  O8       1.0000 0.09562  0.12995  0.80578  Biso   1.000  O
  C78      1.0000 0.30988  0.11410  0.84242  Biso   1.000  C
  H89      1.0000 0.44010  0.05357  0.88201  Biso   1.000  H
  H90      1.0000 0.25948  0.09754  0.86351  Biso   1.000  H
  C79      1.0000 0.58458  0.58583  0.64701  Biso   1.000  C
  C80      1.0000 0.69045  0.61415  0.65757  Biso   1.000  C
  H91      1.0000 0.56023  0.55362  0.61801  Biso   1.000  H
  C81      1.0000 0.51514  0.60536  0.67943  Biso   1.000  C
  C82      1.0000 0.72178  0.66721  0.69951  Biso   1.000  C
  H92      1.0000 0.74085  0.59748  0.63652  Biso   1.000  H
  H93      1.0000 0.44228  0.58378  0.67349  Biso   1.000  H
  C83      1.0000 0.55306  0.65689  0.72083  Biso   1.000  C
  N11      1.0000 0.65481  0.69185  0.73092  Biso   1.000  N
  C84      1.0000 0.83722  0.69584  0.71027  Biso   1.000  C
  C85      1.0000 0.48013  0.67887  0.75713  Biso   1.000  C
  O9       1.0000 0.85505  0.80237  0.73779  Biso   1.000  O
  O10      1.0000 0.90471  0.63000  0.69424  Biso   1.000  O
  O11      1.0000 0.47975  0.78019  0.77993  Biso   1.000  O
  O12      1.0000 0.41594  0.57121  0.75955  Biso   1.000  O
  C86      1.0000 0.96645  0.84214  0.74641  Biso   1.000  C
  C87      1.0000 0.33604  0.57315  0.79173  Biso   1.000  C
  H94      1.0000 0.97097  0.94203  0.75170  Biso   1.000  H
  C88      1.0000 0.01876  0.76771  0.78677  Biso   1.000  C
  H95      1.0000 0.00461  0.82108  0.71969  Biso   1.000  H
  H96      1.0000 0.31398  0.66875  0.79659  Biso   1.000  H
  H97      1.0000 0.27309  0.52152  0.77929  Biso   1.000  H
  C89      1.0000 0.37699  0.51058  0.83649  Biso   1.000  C
  C90      1.0000 0.97539  0.81985  0.82941  Biso   1.000  C
  H98      1.0000 0.00528  0.66834  0.78362  Biso   1.000  H
  H99      1.0000 0.09629  0.78244  0.78841  Biso   1.000  H
  H100     1.0000 0.31617  0.47633  0.85191  Biso   1.000  H
  H101     1.0000 0.42271  0.43155  0.83082  Biso   1.000  H
  C91      1.0000 0.43978  0.61108  0.86723  Biso   1.000  C
  H102     1.0000 0.99195  0.91862  0.83219  Biso   1.000  H
  H103     1.0000 0.89731  0.81127  0.82579  Biso   1.000  H
  C92      1.0000 0.01555  0.74931  0.87417  Biso   1.000  C
  C93      1.0000 0.49070  0.55536  0.91255  Biso   1.000  C
  H104     1.0000 0.49687  0.64993  0.85050  Biso   1.000  H
  H105     1.0000 0.39209  0.68746  0.87370  Biso   1.000  H
  C94      1.0000 0.96341  0.82660  0.91030  Biso   1.000  C
  C95      1.0000 0.98821  0.59892  0.87266  Biso   1.000  C
  C96      1.0000 0.13666  0.76485  0.88204  Biso   1.000  C
  C97      1.0000 0.57063  0.44535  0.90440  Biso   1.000  C
  C98      1.0000 0.54150  0.67774  0.93732  Biso   1.000  C
  C99      1.0000 0.40492  0.49514  0.94014  Biso   1.000  C
  N12      1.0000 0.89382  0.77180  0.93843  Biso   1.000  N
  C100     1.0000 0.96771  0.96391  0.91892  Biso   1.000  C
  N13      1.0000 0.89015  0.55342  0.85536  Biso   1.000  N
  C101     1.0000 0.04693  0.48492  0.88409  Biso   1.000  C
  H106     1.0000 0.17057  0.71424  0.85891  Biso   1.000  H
  H107     1.0000 0.15562  0.86177  0.88060  Biso   1.000  H
  H108     1.0000 0.16081  0.72835  0.91161  Biso   1.000  H
  N14      1.0000 0.64149  0.46038  0.87239  Biso   1.000  N
  C102     1.0000 0.58776  0.31827  0.92284  Biso   1.000  C
  N15      1.0000 0.64485  0.68153  0.95627  Biso   1.000  N
  C103     1.0000 0.49830  0.80278  0.94497  Biso   1.000  C
  H109     1.0000 0.43739  0.46325  0.96911  Biso   1.000  H
  H110     1.0000 0.35220  0.56559  0.94510  Biso   1.000  H
  H111     1.0000 0.37039  0.41816  0.92381  Biso   1.000  H
  C104     1.0000 0.85417  0.87343  0.96441  Biso   1.000  C
  H112     1.0000 0.87937  0.68265  0.94071  Biso   1.000  H
  C105     1.0000 0.90001  0.99315  0.95254  Biso   1.000  C
  H113     1.0000 0.00936  0.02863  0.90461  Biso   1.000  H
  C106     1.0000 0.88640  0.41223  0.85549  Biso   1.000  C
  H114     1.0000 0.83438  0.60771  0.84651  Biso   1.000  H
  C107     1.0000 0.98350  0.36827  0.87360  Biso   1.000  C
  H115     1.0000 0.11807  0.48410  0.89690  Biso   1.000  H
  C108     1.0000 0.70297  0.34495  0.86981  Biso   1.000  C
  H116     1.0000 0.64874  0.53297  0.85680  Biso   1.000  H
  C109     1.0000 0.67065  0.25539  0.90139  Biso   1.000  C
  H117     1.0000 0.55063  0.27911  0.94601  Biso   1.000  H
  C110     1.0000 0.66680  0.80769  0.97554  Biso   1.000  C
  H118     1.0000 0.68925  0.60812  0.95670  Biso   1.000  H
  H119     1.0000 0.42784  0.83018  0.93602  Biso   1.000  H
  C111     1.0000 0.57661  0.88416  0.96850  Biso   1.000  C
  C112     1.0000 0.77428  0.84715  0.99824  Biso   1.000  C
  H120     1.0000 0.88816  0.08077  0.96481  Biso   1.000  H
  C113     1.0000 0.78851  0.33483  0.83746  Biso   1.000  C
  H121     1.0000 0.00444  0.27584  0.87819  Biso   1.000  H
  H122     1.0000 0.69903  0.16696  0.90769  Biso   1.000  H
  H123     1.0000 0.56804  0.97608  0.97779  Biso   1.000  H
  C114     1.0000 0.81594  0.73806  0.03220  Biso   1.000  C
  C115     1.0000 0.75997  0.98068  0.02435  Biso   1.000  C
  C116     1.0000 0.74749  0.39229  0.79116  Biso   1.000  C
  C117     1.0000 0.81701  0.18362  0.83166  Biso   1.000  C
  H124     1.0000 0.82196  0.65034  0.01681  Biso   1.000  H
  H125     1.0000 0.88574  0.76567  0.04581  Biso   1.000  H
  H126     1.0000 0.76695  0.72866  0.05563  Biso   1.000  H
  H127     1.0000 0.70906  0.96595  0.04681  Biso   1.000  H
  H128     1.0000 0.82825  0.00849  0.03940  Biso   1.000  H
  H129     1.0000 0.73377  0.05255  0.00350  Biso   1.000  H
  H130     1.0000 0.80199  0.38084  0.77011  Biso   1.000  H
  H131     1.0000 0.68345  0.34281  0.78000  Biso   1.000  H
  H132     1.0000 0.73110  0.48962  0.79401  Biso   1.000  H
  H133     1.0000 0.83914  0.14385  0.86099  Biso   1.000  H
  H134     1.0000 0.75511  0.13424  0.81811  Biso   1.000  H
  H135     1.0000 0.87513  0.17616  0.81211  Biso   1.000  H
  C118     1.0000 0.41567  0.41417  0.35301  Biso   1.000  C
  C119     1.0000 0.30979  0.38585  0.34241  Biso   1.000  C
  C120     1.0000 0.48511  0.39464  0.32059  Biso   1.000  C
  H136     1.0000 0.44002  0.44638  0.38200  Biso   1.000  H
  C121     1.0000 0.27847  0.33279  0.30047  Biso   1.000  C
  H137     1.0000 0.25940  0.40252  0.36350  Biso   1.000  H
  C122     1.0000 0.44719  0.34322  0.27919  Biso   1.000  C
  H138     1.0000 0.55796  0.41622  0.32649  Biso   1.000  H
  N16      1.0000 0.34543  0.30815  0.26906  Biso   1.000  N
  C123     1.0000 0.16302  0.30426  0.28975  Biso   1.000  C
  C124     1.0000 0.52012  0.32113  0.24288  Biso   1.000  C
  O13      1.0000 0.14519  0.19763  0.26219  Biso   1.000  O
  O14      1.0000 0.09554  0.37000  0.30577  Biso   1.000  O
  O15      1.0000 0.52050  0.21992  0.22008  Biso   1.000  O
  O16      1.0000 0.58431  0.42879  0.24047  Biso   1.000  O
  C125     1.0000 0.03380  0.15786  0.25361  Biso   1.000  C
  C126     1.0000 0.66421  0.42685  0.20828  Biso   1.000  C
  H139     1.0000 0.02928  0.05797  0.24831  Biso   1.000  H
  C127     1.0000 0.98149  0.23239  0.21324  Biso   1.000  C
  H140     1.0000 0.99563  0.17902  0.28029  Biso   1.000  H
  H141     1.0000 0.68627  0.33136  0.20339  Biso   1.000  H
  H142     1.0000 0.72715  0.47848  0.22069  Biso   1.000  H
  C128     1.0000 0.62325  0.48942  0.16353  Biso   1.000  C
  C129     1.0000 0.02485  0.18015  0.17057  Biso   1.000  C
  H143     1.0000 0.99497  0.33166  0.21640  Biso   1.000  H
  H144     1.0000 0.90396  0.21756  0.21160  Biso   1.000  H
  H145     1.0000 0.68408  0.52377  0.14811  Biso   1.000  H
  H146     1.0000 0.57753  0.56855  0.16919  Biso   1.000  H
  C130     1.0000 0.56047  0.38892  0.13279  Biso   1.000  C
  H147     1.0000 0.00829  0.08138  0.16779  Biso   1.000  H
  H148     1.0000 0.10293  0.18884  0.17419  Biso   1.000  H
  C131     1.0000 0.98469  0.25069  0.12581  Biso   1.000  C
  C132     1.0000 0.50954  0.44464  0.08743  Biso   1.000  C
  H149     1.0000 0.50338  0.35007  0.14952  Biso   1.000  H
  H150     1.0000 0.60815  0.31265  0.12628  Biso   1.000  H
  C133     1.0000 0.03683  0.17350  0.08968  Biso   1.000  C
  C134     1.0000 0.01204  0.40108  0.12736  Biso   1.000  C
  C135     1.0000 0.86358  0.23525  0.11797  Biso   1.000  C
  C136     1.0000 0.42962  0.55465  0.09561  Biso   1.000  C
  C137     1.0000 0.45874  0.32226  0.06266  Biso   1.000  C
  C138     1.0000 0.59532  0.50496  0.05984  Biso   1.000  C
  N17      1.0000 0.10643  0.22830  0.06158  Biso   1.000  N
  C139     1.0000 0.03261  0.03609  0.08106  Biso   1.000  C
  N18      1.0000 0.11009  0.44658  0.14466  Biso   1.000  N
  C140     1.0000 0.95331  0.51508  0.11589  Biso   1.000  C
  H151     1.0000 0.82968  0.28586  0.14110  Biso   1.000  H
  H152     1.0000 0.84463  0.13833  0.11941  Biso   1.000  H
  H153     1.0000 0.83944  0.27175  0.08840  Biso   1.000  H
  N19      1.0000 0.35875  0.53972  0.12763  Biso   1.000  N
  C141     1.0000 0.41248  0.68173  0.07717  Biso   1.000  C
  N20      1.0000 0.35540  0.31858  0.04375  Biso   1.000  N
  C142     1.0000 0.50195  0.19732  0.05505  Biso   1.000  C
  H154     1.0000 0.56286  0.53686  0.03091  Biso   1.000  H
  H155     1.0000 0.64804  0.43441  0.05491  Biso   1.000  H
  H156     1.0000 0.62986  0.58194  0.07620  Biso   1.000  H
  C143     1.0000 0.14607  0.12667  0.03557  Biso   1.000  C
  H157     1.0000 0.12088  0.31745  0.05930  Biso   1.000  H
  C144     1.0000 0.10024  0.00685  0.04747  Biso   1.000  C
  H158     1.0000 0.99089  0.97148  0.09541  Biso   1.000  H
  C145     1.0000 0.11385  0.58777  0.14452  Biso   1.000  C
  H159     1.0000 0.16586  0.39229  0.15351  Biso   1.000  H
  C146     1.0000 0.01674  0.63173  0.12642  Biso   1.000  C
  H160     1.0000 0.88217  0.51590  0.10309  Biso   1.000  H
  C147     1.0000 0.29728  0.65505  0.13021  Biso   1.000  C
  H161     1.0000 0.35151  0.46703  0.14321  Biso   1.000  H
  C148     1.0000 0.32959  0.74471  0.09863  Biso   1.000  C
  H162     1.0000 0.44961  0.72089  0.05401  Biso   1.000  H
  C149     1.0000 0.33345  0.19241  0.02447  Biso   1.000  C
  H163     1.0000 0.31099  0.39188  0.04331  Biso   1.000  H
  H164     1.0000 0.57240  0.16992  0.06400  Biso   1.000  H
  C150     1.0000 0.42363  0.11584  0.03148  Biso   1.000  C
  C151     1.0000 0.22604  0.15285  0.00174  Biso   1.000  C
  H165     1.0000 0.11209  0.91923  0.03520  Biso   1.000  H
  C152     1.0000 0.21174  0.66517  0.16256  Biso   1.000  C
  H166     1.0000 0.99580  0.72426  0.12179  Biso   1.000  H
  H167     1.0000 0.30121  0.83315  0.09229  Biso   1.000  H
  H168     1.0000 0.43220  0.02403  0.02219  Biso   1.000  H
  C153     1.0000 0.18431  0.26204  0.96782  Biso   1.000  C
  C154     1.0000 0.24027  0.01932  0.97566  Biso   1.000  C
  C155     1.0000 0.25276  0.60781  0.20885  Biso   1.000  C
  C156     1.0000 0.18323  0.81648  0.16836  Biso   1.000  C
  H169     1.0000 0.17829  0.34976  0.98320  Biso   1.000  H
  H170     1.0000 0.11450  0.23443  0.95417  Biso   1.000  H
  H171     1.0000 0.23329  0.27144  0.94438  Biso   1.000  H
  H172     1.0000 0.17199  0.99151  0.96058  Biso   1.000  H
  H173     1.0000 0.26647  0.94755  0.99648  Biso   1.000  H
  H174     1.0000 0.29119  0.03415  0.95320  Biso   1.000  H
  H175     1.0000 0.19826  0.61926  0.22991  Biso   1.000  H
  H176     1.0000 0.31679  0.65719  0.22002  Biso   1.000  H
  H177     1.0000 0.26915  0.51038  0.20600  Biso   1.000  H
  H178     1.0000 0.16110  0.85625  0.13899  Biso   1.000  H
  H179     1.0000 0.24514  0.86586  0.18190  Biso   1.000  H
  H180     1.0000 0.12512  0.82384  0.18790  Biso   1.000  H
