data_image0
_cell_length_a       12.873
_cell_length_b       9.691
_cell_length_c       30.04
_cell_angle_alpha    90
_cell_angle_beta     94.73
_cell_angle_gamma    90

_symmetry_space_group_name_H-M    "P 1"
_symmetry_int_tables_number       1

loop_
  _symmetry_equiv_pos_as_xyz
  'x, y, z'

loop_
  _atom_site_label
  _atom_site_occupancy
  _atom_site_fract_x
  _atom_site_fract_y
  _atom_site_fract_z
  _atom_site_thermal_displace_type
  _atom_site_B_iso_or_equiv
  _atom_site_type_symbol
  C1       1.0000 0.59161  0.50212  0.55983  Biso   1.000  C
  C2       1.0000 0.50556  0.44103  0.58702  Biso   1.000  C
  H1       1.0000 0.56025  0.53472  0.53090  Biso   1.000  H
  H2       1.0000 0.64344  0.43081  0.55509  Biso   1.000  H
  H3       1.0000 0.62530  0.57951  0.57630  Biso   1.000  H
  C3       1.0000 0.45498  0.31937  0.56150  Biso   1.000  C
  C4       1.0000 0.42824  0.55361  0.59534  Biso   1.000  C
  C5       1.0000 0.55528  0.38355  0.63225  Biso   1.000  C
  N1       1.0000 0.35242  0.31700  0.54366  Biso   1.000  N
  C6       1.0000 0.49685  0.19451  0.55265  Biso   1.000  C
  N2       1.0000 0.35853  0.53978  0.62750  Biso   1.000  N
  C7       1.0000 0.41285  0.68290  0.57753  Biso   1.000  C
  H4       1.0000 0.49869  0.34568  0.64898  Biso   1.000  H
  H5       1.0000 0.60149  0.30575  0.62570  Biso   1.000  H
  C8       1.0000 0.61808  0.48457  0.66268  Biso   1.000  C
  C9       1.0000 0.33017  0.19069  0.52372  Biso   1.000  C
  H6       1.0000 0.30797  0.38562  0.54480  Biso   1.000  H
  C10      1.0000 0.41890  0.11402  0.52943  Biso   1.000  C
  H7       1.0000 0.56668  0.16644  0.56070  Biso   1.000  H
  H8       1.0000 0.35270  0.46559  0.64400  Biso   1.000  H
  C11      1.0000 0.29953  0.65710  0.63051  Biso   1.000  C
  C12      1.0000 0.33239  0.74719  0.59941  Biso   1.000  C
  H9       1.0000 0.44968  0.72253  0.55459  Biso   1.000  H
  H10      1.0000 0.57642  0.56929  0.66618  Biso   1.000  H
  H11      1.0000 0.68211  0.51089  0.64868  Biso   1.000  H
  C13      1.0000 0.64750  0.42173  0.70861  Biso   1.000  C
  C14      1.0000 0.22359  0.15251  0.50151  Biso   1.000  C
  H12      1.0000 0.42691  0.02188  0.51941  Biso   1.000  H
  C15      1.0000 0.21613  0.66742  0.66294  Biso   1.000  C
  H13      1.0000 0.30569  0.83737  0.59350  Biso   1.000  H
  N3       1.0000 0.56367  0.42514  0.73843  Biso   1.000  N
  H14      1.0000 0.66904  0.32463  0.70470  Biso   1.000  H
  H15      1.0000 0.70836  0.47219  0.72290  Biso   1.000  H
  C16      1.0000 0.18342  0.26251  0.46797  Biso   1.000  C
  C17      1.0000 0.14521  0.12723  0.53541  Biso   1.000  C
  C18      1.0000 0.23543  0.01713  0.47545  Biso   1.000  C
  C19      1.0000 0.11827  0.59220  0.64447  Biso   1.000  C
  C20      1.0000 0.18955  0.82014  0.66936  Biso   1.000  C
  C21      1.0000 0.25543  0.60726  0.70897  Biso   1.000  C
  H16      1.0000 0.55203  0.50377  0.75179  Biso   1.000  H
  C22      1.0000 0.50303  0.31772  0.74705  Biso   1.000  C
  H17      1.0000 0.17746  0.35084  0.48340  Biso   1.000  H
  H18      1.0000 0.11482  0.23506  0.45421  Biso   1.000  H
  H19      1.0000 0.23218  0.27200  0.44479  Biso   1.000  H
  N4       1.0000 0.10537  0.23073  0.56093  Biso   1.000  N
  C23      1.0000 0.10125  0.00640  0.54837  Biso   1.000  C
  H20      1.0000 0.28481  0.03096  0.45271  Biso   1.000  H
  H21      1.0000 0.16748  0.98978  0.46099  Biso   1.000  H
  H22      1.0000 0.26139  0.94428  0.49610  Biso   1.000  H
  N5       1.0000 0.11225  0.44918  0.64430  Biso   1.000  N
  C24      1.0000 0.02460  0.63956  0.62600  Biso   1.000  C
  H23      1.0000 0.16850  0.86183  0.64030  Biso   1.000  H
  H24      1.0000 0.25092  0.86843  0.68309  Biso   1.000  H
  H25      1.0000 0.13239  0.82778  0.68880  Biso   1.000  H
  H26      1.0000 0.20232  0.62099  0.73008  Biso   1.000  H
  H27      1.0000 0.31988  0.65432  0.72010  Biso   1.000  H
  H28      1.0000 0.26916  0.50841  0.70600  Biso   1.000  H
  O1       1.0000 0.50503  0.20359  0.72835  Biso   1.000  O
  C25      1.0000 0.43204  0.34341  0.78343  Biso   1.000  C
  H29      1.0000 0.12085  0.31875  0.55899  Biso   1.000  H
  C26      1.0000 0.03819  0.17614  0.58966  Biso   1.000  C
  C27      1.0000 0.03476  0.03663  0.58191  Biso   1.000  C
  H30      1.0000 0.11368  0.91735  0.53668  Biso   1.000  H
  C28      1.0000 0.01534  0.40698  0.62630  Biso   1.000  C
  H31      1.0000 0.16294  0.39335  0.65419  Biso   1.000  H
  C29      1.0000 0.96002  0.52409  0.61494  Biso   1.000  C
  H32      1.0000 0.00590  0.73357  0.62129  Biso   1.000  H
  N6       1.0000 0.33154  0.30905  0.77387  Biso   1.000  N
  C30      1.0000 0.47036  0.39645  0.82431  Biso   1.000  C
  C31      1.0000 0.98510  0.25642  0.62460  Biso   1.000  C
  H33      1.0000 0.99434  0.97152  0.59671  Biso   1.000  H
  H34      1.0000 0.89039  0.52740  0.60188  Biso   1.000  H
  C32      1.0000 0.26615  0.33753  0.80501  Biso   1.000  C
  H35      1.0000 0.54243  0.41709  0.82989  Biso   1.000  H
  C33      1.0000 0.40273  0.41905  0.85678  Biso   1.000  C
  C34      1.0000 0.01864  0.18502  0.66969  Biso   1.000  C
  C35      1.0000 0.86559  0.24487  0.61471  Biso   1.000  C
  C36      1.0000 0.15191  0.30812  0.79468  Biso   1.000  C
  C37      1.0000 0.29838  0.39243  0.84659  Biso   1.000  C
  H36      1.0000 0.42744  0.45228  0.88551  Biso   1.000  H
  H37      1.0000 0.00157  0.08565  0.66658  Biso   1.000  H
  H38      1.0000 0.09538  0.19234  0.67490  Biso   1.000  H
  C38      1.0000 0.97112  0.23888  0.71101  Biso   1.000  C
  H39      1.0000 0.83082  0.29760  0.63709  Biso   1.000  H
  H40      1.0000 0.84476  0.14777  0.61588  Biso   1.000  H
  H41      1.0000 0.84548  0.28201  0.58488  Biso   1.000  H
  N7       1.0000 0.12773  0.21081  0.76432  Biso   1.000  N
  O2       1.0000 0.08751  0.37024  0.81486  Biso   1.000  O
  H42      1.0000 0.24923  0.41121  0.86770  Biso   1.000  H
  C39      1.0000 0.02034  0.16665  0.75243  Biso   1.000  C
  H43      1.0000 0.98282  0.33959  0.71368  Biso   1.000  H
  H44      1.0000 0.89507  0.22216  0.70820  Biso   1.000  H
  H45      1.0000 0.17821  0.17140  0.75089  Biso   1.000  H
  H46      1.0000 0.01933  0.06583  0.74719  Biso   1.000  H
  H47      1.0000 0.97799  0.18584  0.77778  Biso   1.000  H
  C40      1.0000 0.40817  0.49788  0.44018  Biso   1.000  C
  C41      1.0000 0.49421  0.55897  0.41296  Biso   1.000  C
  H48      1.0000 0.43953  0.46528  0.46911  Biso   1.000  H
  H49      1.0000 0.35633  0.56919  0.44489  Biso   1.000  H
  H50      1.0000 0.37447  0.42049  0.42371  Biso   1.000  H
  C42      1.0000 0.44450  0.61635  0.36776  Biso   1.000  C
  C43      1.0000 0.57153  0.44639  0.40464  Biso   1.000  C
  C44      1.0000 0.54480  0.68053  0.43848  Biso   1.000  C
  C45      1.0000 0.38170  0.51543  0.33733  Biso   1.000  C
  H51      1.0000 0.50108  0.65432  0.35100  Biso   1.000  H
  H52      1.0000 0.39829  0.69415  0.37431  Biso   1.000  H
  N8       1.0000 0.64124  0.46022  0.37247  Biso   1.000  N
  C46      1.0000 0.58692  0.31710  0.42244  Biso   1.000  C
  N9       1.0000 0.64736  0.68300  0.45635  Biso   1.000  N
  C47      1.0000 0.50293  0.80549  0.44736  Biso   1.000  C
  C48      1.0000 0.35227  0.57827  0.29137  Biso   1.000  C
  H53      1.0000 0.42335  0.43071  0.33379  Biso   1.000  H
  H54      1.0000 0.31766  0.48911  0.35130  Biso   1.000  H
  H55      1.0000 0.64708  0.53441  0.35601  Biso   1.000  H
  C49      1.0000 0.70024  0.34290  0.36947  Biso   1.000  C
  C50      1.0000 0.66738  0.25281  0.40057  Biso   1.000  C
  H56      1.0000 0.55009  0.27747  0.44539  Biso   1.000  H
  H57      1.0000 0.69181  0.61438  0.45521  Biso   1.000  H
  C51      1.0000 0.66960  0.80931  0.47626  Biso   1.000  C
  H58      1.0000 0.43309  0.83356  0.43931  Biso   1.000  H
  C52      1.0000 0.58088  0.88598  0.47058  Biso   1.000  C
  N10      1.0000 0.43610  0.57486  0.26158  Biso   1.000  N
  H59      1.0000 0.33073  0.67537  0.29531  Biso   1.000  H
  H60      1.0000 0.29142  0.52781  0.27711  Biso   1.000  H
  C53      1.0000 0.78365  0.33258  0.33703  Biso   1.000  C
  H61      1.0000 0.69409  0.16263  0.40651  Biso   1.000  H
  C54      1.0000 0.77619  0.84749  0.49850  Biso   1.000  C
  H62      1.0000 0.57287  0.97802  0.48060  Biso   1.000  H
  H63      1.0000 0.44774  0.49623  0.24818  Biso   1.000  H
  C55      1.0000 0.49675  0.68228  0.25296  Biso   1.000  C
  C56      1.0000 0.88151  0.40780  0.35554  Biso   1.000  C
  C57      1.0000 0.81022  0.17975  0.33062  Biso   1.000  C
  C58      1.0000 0.74434  0.39274  0.29100  Biso   1.000  C
  C59      1.0000 0.85456  0.87277  0.46456  Biso   1.000  C
  C60      1.0000 0.76434  0.98287  0.52452  Biso   1.000  C
  C61      1.0000 0.81635  0.73749  0.53204  Biso   1.000  C
  O3       1.0000 0.49475  0.79641  0.27166  Biso   1.000  O
  C62      1.0000 0.56774  0.65659  0.21658  Biso   1.000  C
  N11      1.0000 0.88753  0.55082  0.35571  Biso   1.000  N
  C63      1.0000 0.97518  0.36044  0.37401  Biso   1.000  C
  H64      1.0000 0.83128  0.13807  0.35971  Biso   1.000  H
  H65      1.0000 0.74885  0.13146  0.31689  Biso   1.000  H
  H66      1.0000 0.86739  0.17222  0.31121  Biso   1.000  H
  H67      1.0000 0.79745  0.37901  0.26989  Biso   1.000  H
  H68      1.0000 0.67990  0.34568  0.27991  Biso   1.000  H
  H69      1.0000 0.73062  0.49159  0.29401  Biso   1.000  H
  N12      1.0000 0.89440  0.76927  0.43908  Biso   1.000  N
  C64      1.0000 0.89852  0.99360  0.45160  Biso   1.000  C
  H70      1.0000 0.71496  0.96894  0.54730  Biso   1.000  H
  H71      1.0000 0.83229  0.01022  0.53899  Biso   1.000  H
  H72      1.0000 0.73838  0.05572  0.50388  Biso   1.000  H
  H73      1.0000 0.82224  0.64906  0.51661  Biso   1.000  H
  H74      1.0000 0.88495  0.76483  0.54580  Biso   1.000  H
  H75      1.0000 0.76760  0.72800  0.55519  Biso   1.000  H
  N13      1.0000 0.66823  0.69085  0.22610  Biso   1.000  N
  C65      1.0000 0.52942  0.60345  0.17570  Biso   1.000  C
  H76      1.0000 0.83683  0.60654  0.34578  Biso   1.000  H
  C66      1.0000 0.98444  0.59302  0.37368  Biso   1.000  C
  H77      1.0000 0.99387  0.26643  0.37869  Biso   1.000  H
  C67      1.0000 0.03976  0.47591  0.38503  Biso   1.000  C
  H78      1.0000 0.87892  0.68115  0.44098  Biso   1.000  H
  C68      1.0000 0.96159  0.82386  0.41035  Biso   1.000  C
  C69      1.0000 0.96502  0.96337  0.41810  Biso   1.000  C
  H79      1.0000 0.88609  0.08255  0.46330  Biso   1.000  H
  C70      1.0000 0.73363  0.66247  0.19500  Biso   1.000  C
  H80      1.0000 0.45734  0.58291  0.17009  Biso   1.000  H
  C71      1.0000 0.59704  0.58085  0.14320  Biso   1.000  C
  C72      1.0000 0.01467  0.74358  0.37538  Biso   1.000  C
  H81      1.0000 0.10939  0.47260  0.39809  Biso   1.000  H
  H82      1.0000 0.00544  0.02838  0.40330  Biso   1.000  H
  C73      1.0000 0.70139  0.60757  0.15339  Biso   1.000  C
  C74      1.0000 0.84786  0.69188  0.20529  Biso   1.000  C
  H83      1.0000 0.57233  0.54772  0.11450  Biso   1.000  H
  C75      1.0000 0.98114  0.81498  0.33029  Biso   1.000  C
  C76      1.0000 0.13418  0.75503  0.38527  Biso   1.000  C
  H84      1.0000 0.75054  0.58879  0.13231  Biso   1.000  H
  O4       1.0000 0.91226  0.62966  0.18512  Biso   1.000  O
  N14      1.0000 0.87204  0.78919  0.23569  Biso   1.000  N
  C77      1.0000 0.02866  0.76112  0.28900  Biso   1.000  C
  H85      1.0000 0.99820  0.91425  0.33339  Biso   1.000  H
  H86      1.0000 0.90440  0.80755  0.32511  Biso   1.000  H
  H87      1.0000 0.16895  0.70240  0.36289  Biso   1.000  H
  H88      1.0000 0.15501  0.85213  0.38410  Biso   1.000  H
  H89      1.0000 0.15429  0.71799  0.41510  Biso   1.000  H
  H90      1.0000 0.82157  0.82860  0.24908  Biso   1.000  H
  C78      1.0000 0.97943  0.83325  0.24755  Biso   1.000  C
  H91      1.0000 0.01695  0.66041  0.28629  Biso   1.000  H
  H92      1.0000 0.10470  0.77773  0.29181  Biso   1.000  H
  H93      1.0000 0.98044  0.93417  0.25279  Biso   1.000  H
  H94      1.0000 0.02178  0.81416  0.22219  Biso   1.000  H
  C79      1.0000 0.59693  0.91910  0.64320  Biso   1.000  C
  C80      1.0000 0.52938  0.89650  0.67567  Biso   1.000  C
  H95      1.0000 0.57230  0.95222  0.61451  Biso   1.000  H
  C81      1.0000 0.70128  0.89237  0.65339  Biso   1.000  C
  C82      1.0000 0.56762  0.84336  0.71655  Biso   1.000  C
  H96      1.0000 0.45723  0.91704  0.67009  Biso   1.000  H
  H97      1.0000 0.75043  0.91115  0.63228  Biso   1.000  H
  C83      1.0000 0.73351  0.83748  0.69498  Biso   1.000  C
  N15      1.0000 0.66812  0.80910  0.72611  Biso   1.000  N
  C84      1.0000 0.49663  0.81767  0.75293  Biso   1.000  C
  C85      1.0000 0.84775  0.80807  0.70530  Biso   1.000  C
  O5       1.0000 0.49463  0.70354  0.77164  Biso   1.000  O
  N16      1.0000 0.43599  0.92509  0.76155  Biso   1.000  N
  O6       1.0000 0.91215  0.87029  0.68512  Biso   1.000  O
  N17      1.0000 0.87200  0.71076  0.73566  Biso   1.000  N
  C86      1.0000 0.35216  0.92168  0.79138  Biso   1.000  C
  H98      1.0000 0.44763  0.00382  0.74819  Biso   1.000  H
  H99      1.0000 0.82145  0.67134  0.74909  Biso   1.000  H
  C87      1.0000 0.97932  0.66670  0.74755  Biso   1.000  C
  C88      1.0000 0.38159  0.98452  0.83734  Biso   1.000  C
  H100     1.0000 0.33062  0.82458  0.79529  Biso   1.000  H
  H101     1.0000 0.29130  0.97214  0.77708  Biso   1.000  H
  H102     1.0000 0.98033  0.56578  0.75280  Biso   1.000  H
  H103     1.0000 0.02167  0.68579  0.72220  Biso   1.000  H
  C89      1.0000 0.02854  0.73883  0.78897  Biso   1.000  C
  C90      1.0000 0.44438  0.88360  0.86774  Biso   1.000  C
  H104     1.0000 0.42324  0.06934  0.83380  Biso   1.000  H
  H105     1.0000 0.31755  0.01094  0.85130  Biso   1.000  H
  C91      1.0000 0.98102  0.68497  0.83029  Biso   1.000  C
  H106     1.0000 0.01684  0.83954  0.78630  Biso   1.000  H
  H107     1.0000 0.10466  0.72222  0.79178  Biso   1.000  H
  C92      1.0000 0.49410  0.94098  0.91296  Biso   1.000  C
  H108     1.0000 0.50105  0.84563  0.85100  Biso   1.000  H
  H109     1.0000 0.39817  0.80580  0.87428  Biso   1.000  H
  H110     1.0000 0.99809  0.58570  0.83340  Biso   1.000  H
  H111     1.0000 0.90428  0.69240  0.82508  Biso   1.000  H
  C93      1.0000 0.01464  0.75637  0.87538  Biso   1.000  C
  C94      1.0000 0.54468  0.81942  0.93848  Biso   1.000  C
  C95      1.0000 0.57142  0.05355  0.90465  Biso   1.000  C
  C96      1.0000 0.40814  0.00206  0.94019  Biso   1.000  C
  C97      1.0000 0.98432  0.90692  0.87368  Biso   1.000  C
  C98      1.0000 0.96147  0.67609  0.91032  Biso   1.000  C
  C99      1.0000 0.13415  0.74492  0.88527  Biso   1.000  C
  N18      1.0000 0.64725  0.81694  0.95635  Biso   1.000  N
  C100     1.0000 0.50281  0.69446  0.94733  Biso   1.000  C
  N19      1.0000 0.64113  0.03983  0.87248  Biso   1.000  N
  C101     1.0000 0.58681  0.18285  0.92245  Biso   1.000  C
  H112     1.0000 0.35622  0.93076  0.94490  Biso   1.000  H
  H113     1.0000 0.43941  0.03467  0.96908  Biso   1.000  H
  H114     1.0000 0.37443  0.07946  0.92369  Biso   1.000  H
  N20      1.0000 0.88741  0.94913  0.85568  Biso   1.000  N
  C102     1.0000 0.03964  0.02415  0.88504  Biso   1.000  C
  N21      1.0000 0.89428  0.73068  0.93905  Biso   1.000  N
  C103     1.0000 0.96490  0.53658  0.91807  Biso   1.000  C
  H115     1.0000 0.16884  0.79754  0.86289  Biso   1.000  H
  H116     1.0000 0.15490  0.64782  0.88410  Biso   1.000  H
  H117     1.0000 0.15418  0.78196  0.91510  Biso   1.000  H
  H118     1.0000 0.69169  0.88556  0.95518  Biso   1.000  H
  C104     1.0000 0.66949  0.69064  0.97626  Biso   1.000  C
  H119     1.0000 0.43298  0.66639  0.93928  Biso   1.000  H
  C105     1.0000 0.58076  0.61397  0.97055  Biso   1.000  C
  H120     1.0000 0.64704  0.96554  0.85598  Biso   1.000  H
  C106     1.0000 0.70013  0.15705  0.86947  Biso   1.000  C
  C107     1.0000 0.66727  0.24724  0.90057  Biso   1.000  C
  H121     1.0000 0.54998  0.22247  0.94540  Biso   1.000  H
  H122     1.0000 0.83672  0.89341  0.84579  Biso   1.000  H
  C108     1.0000 0.88139  0.09215  0.85551  Biso   1.000  C
  C109     1.0000 0.97507  0.13961  0.87402  Biso   1.000  C
  H123     1.0000 0.10935  0.02745  0.89810  Biso   1.000  H
  H124     1.0000 0.87881  0.81880  0.94099  Biso   1.000  H
  C110     1.0000 0.85445  0.62718  0.96457  Biso   1.000  C
  C111     1.0000 0.89841  0.50635  0.95161  Biso   1.000  C
  H125     1.0000 0.00533  0.47157  0.90331  Biso   1.000  H
  C112     1.0000 0.77607  0.65246  0.99847  Biso   1.000  C
  H126     1.0000 0.57275  0.52193  0.98060  Biso   1.000  H
  C113     1.0000 0.78353  0.16737  0.83704  Biso   1.000  C
  H127     1.0000 0.69397  0.33743  0.90648  Biso   1.000  H
  H128     1.0000 0.99383  0.23362  0.87869  Biso   1.000  H
  H129     1.0000 0.88598  0.41740  0.96330  Biso   1.000  H
  C114     1.0000 0.76446  0.51708  0.02456  Biso   1.000  C
  C115     1.0000 0.81648  0.76246  0.03204  Biso   1.000  C
  C116     1.0000 0.81011  0.32019  0.83063  Biso   1.000  C
  C117     1.0000 0.74423  0.10732  0.79101  Biso   1.000  C
  H130     1.0000 0.71509  0.53101  0.04731  Biso   1.000  H
  H131     1.0000 0.83242  0.48984  0.03902  Biso   1.000  H
  H132     1.0000 0.73851  0.44433  0.00392  Biso   1.000  H
  H133     1.0000 0.82236  0.85089  0.01661  Biso   1.000  H
  H134     1.0000 0.88508  0.73512  0.04581  Biso   1.000  H
  H135     1.0000 0.76765  0.77195  0.05522  Biso   1.000  H
  H136     1.0000 0.83124  0.36188  0.85969  Biso   1.000  H
  H137     1.0000 0.74874  0.36849  0.81690  Biso   1.000  H
  H138     1.0000 0.86735  0.32783  0.81118  Biso   1.000  H
  H139     1.0000 0.79734  0.12104  0.76990  Biso   1.000  H
  H140     1.0000 0.67986  0.15427  0.77989  Biso   1.000  H
  H141     1.0000 0.73050  0.00836  0.79398  Biso   1.000  H
  C118     1.0000 0.40284  0.08090  0.35677  Biso   1.000  C
  C119     1.0000 0.47039  0.10350  0.32431  Biso   1.000  C
  C120     1.0000 0.29850  0.10763  0.34659  Biso   1.000  C
  H142     1.0000 0.42748  0.04767  0.38550  Biso   1.000  H
  C121     1.0000 0.43215  0.15664  0.28342  Biso   1.000  C
  H143     1.0000 0.54254  0.08286  0.32989  Biso   1.000  H
  C122     1.0000 0.26626  0.16252  0.30500  Biso   1.000  C
  H144     1.0000 0.24935  0.08885  0.36770  Biso   1.000  H
  N22      1.0000 0.33166  0.19090  0.27390  Biso   1.000  N
  C123     1.0000 0.50314  0.18233  0.24705  Biso   1.000  C
  C124     1.0000 0.15202  0.19193  0.29468  Biso   1.000  C
  O7       1.0000 0.50514  0.29636  0.22834  Biso   1.000  O
  N23      1.0000 0.56379  0.07491  0.23843  Biso   1.000  N
  O8       1.0000 0.08763  0.12971  0.31489  Biso   1.000  O
  N24      1.0000 0.12777  0.28924  0.26432  Biso   1.000  N
  C125     1.0000 0.64762  0.07832  0.20863  Biso   1.000  C
  H145     1.0000 0.55214  0.99618  0.25179  Biso   1.000  H
  H146     1.0000 0.17832  0.32855  0.25089  Biso   1.000  H
  C126     1.0000 0.02045  0.33330  0.25242  Biso   1.000  C
  C127     1.0000 0.61819  0.01538  0.16267  Biso   1.000  C
  H147     1.0000 0.66916  0.17542  0.20469  Biso   1.000  H
  H148     1.0000 0.70847  0.02776  0.22290  Biso   1.000  H
  H149     1.0000 0.01945  0.43422  0.24721  Biso   1.000  H
  H150     1.0000 0.97811  0.31421  0.27781  Biso   1.000  H
  C128     1.0000 0.97123  0.26107  0.21100  Biso   1.000  C
  C129     1.0000 0.55539  0.11640  0.13224  Biso   1.000  C
  H151     1.0000 0.57653  0.93066  0.16621  Biso   1.000  H
  H152     1.0000 0.68223  0.98906  0.14871  Biso   1.000  H
  C130     1.0000 0.01875  0.31503  0.16972  Biso   1.000  C
  H153     1.0000 0.98294  0.16035  0.21371  Biso   1.000  H
  H154     1.0000 0.89511  0.27778  0.20820  Biso   1.000  H
  C131     1.0000 0.50567  0.05902  0.08701  Biso   1.000  C
  H155     1.0000 0.49873  0.15427  0.14901  Biso   1.000  H
  H156     1.0000 0.60160  0.19420  0.12569  Biso   1.000  H
  H157     1.0000 0.00169  0.41430  0.16661  Biso   1.000  H
  H158     1.0000 0.09549  0.30760  0.17490  Biso   1.000  H
  C132     1.0000 0.98514  0.24363  0.12463  Biso   1.000  C
  C133     1.0000 0.45509  0.18058  0.06149  Biso   1.000  C
  C134     1.0000 0.42835  0.94634  0.09533  Biso   1.000  C
  C135     1.0000 0.59164  0.99783  0.05982  Biso   1.000  C
  C136     1.0000 0.01545  0.09297  0.12630  Biso   1.000  C
  C137     1.0000 0.03830  0.32391  0.08965  Biso   1.000  C
  C138     1.0000 0.86562  0.25508  0.11470  Biso   1.000  C
  N25      1.0000 0.35253  0.18295  0.04366  Biso   1.000  N
  C139     1.0000 0.49696  0.30554  0.05264  Biso   1.000  C
  N26      1.0000 0.35864  0.96017  0.12750  Biso   1.000  N
  C140     1.0000 0.41297  0.81705  0.07756  Biso   1.000  C
  H159     1.0000 0.64356  0.06924  0.05511  Biso   1.000  H
  H160     1.0000 0.56036  0.96523  0.03090  Biso   1.000  H
  H161     1.0000 0.62534  0.92044  0.07629  Biso   1.000  H
  N27      1.0000 0.11236  0.05077  0.14430  Biso   1.000  N
  C141     1.0000 0.96013  0.97585  0.11494  Biso   1.000  C
  N28      1.0000 0.10549  0.26932  0.06093  Biso   1.000  N
  C142     1.0000 0.03487  0.46342  0.08190  Biso   1.000  C
  H162     1.0000 0.83093  0.20235  0.13708  Biso   1.000  H
  H163     1.0000 0.84488  0.35218  0.11591  Biso   1.000  H
  H164     1.0000 0.84559  0.21804  0.08491  Biso   1.000  H
  H165     1.0000 0.30808  0.11444  0.04479  Biso   1.000  H
  C143     1.0000 0.33029  0.30926  0.02375  Biso   1.000  C
  H166     1.0000 0.56679  0.33361  0.06069  Biso   1.000  H
  C144     1.0000 0.41901  0.38603  0.02943  Biso   1.000  C
  H167     1.0000 0.35273  0.03436  0.14400  Biso   1.000  H
  C145     1.0000 0.29964  0.84284  0.13050  Biso   1.000  C
  C146     1.0000 0.33250  0.75276  0.09941  Biso   1.000  C
  H168     1.0000 0.44980  0.77753  0.05461  Biso   1.000  H
  H169     1.0000 0.16305  0.10659  0.15419  Biso   1.000  H
  C147     1.0000 0.11838  0.90775  0.14447  Biso   1.000  C
  H170     1.0000 0.89043  0.97255  0.10191  Biso   1.000  H
  C148     1.0000 0.02471  0.86039  0.12600  Biso   1.000  C
  H171     1.0000 0.12096  0.18120  0.05899  Biso   1.000  H
  C149     1.0000 0.14532  0.37282  0.03541  Biso   1.000  C
  C150     1.0000 0.10136  0.49355  0.04837  Biso   1.000  C
  H172     1.0000 0.99445  0.52843  0.09670  Biso   1.000  H
  C151     1.0000 0.22370  0.34754  0.00150  Biso   1.000  C
  H173     1.0000 0.42702  0.47807  0.01941  Biso   1.000  H
  C152     1.0000 0.21624  0.83253  0.16294  Biso   1.000  C
  H174     1.0000 0.30580  0.66257  0.09349  Biso   1.000  H
  H175     1.0000 0.00594  0.76638  0.12129  Biso   1.000  H
  H176     1.0000 0.11380  0.58260  0.03671  Biso   1.000  H
  C153     1.0000 0.23531  0.48292  0.97545  Biso   1.000  C
  C154     1.0000 0.18330  0.23754  0.96797  Biso   1.000  C
  C155     1.0000 0.18967  0.67981  0.16939  Biso   1.000  C
  C156     1.0000 0.25555  0.89268  0.20900  Biso   1.000  C
  H177     1.0000 0.28469  0.46899  0.95267  Biso   1.000  H
  H178     1.0000 0.16735  0.51016  0.96099  Biso   1.000  H
  H179     1.0000 0.26127  0.55567  0.99609  Biso   1.000  H
  H180     1.0000 0.17742  0.14911  0.98340  Biso   1.000  H
  H181     1.0000 0.11470  0.26488  0.95417  Biso   1.000  H
  H182     1.0000 0.23205  0.22794  0.94479  Biso   1.000  H
  H183     1.0000 0.16853  0.63812  0.14029  Biso   1.000  H
  H184     1.0000 0.25104  0.63151  0.18311  Biso   1.000  H
  H185     1.0000 0.13242  0.67217  0.18879  Biso   1.000  H
  H186     1.0000 0.20244  0.87896  0.23011  Biso   1.000  H
  H187     1.0000 0.31991  0.84563  0.22009  Biso   1.000  H
  H188     1.0000 0.26927  0.99154  0.20599  Biso   1.000  H
  Ne1      1.0000 0.26631  0.13809  0.15072  Biso   1.000  Ne
  He1      1.0000 0.27446  0.25464  0.12282  Biso   1.000  He
  He2      1.0000 0.19799  0.00407  0.07221  Biso   1.000  He
  Ar1      1.0000 0.27760  0.16761  0.14693  Biso   1.000  Ar
  Ne2      1.0000 0.73356  0.63808  0.34928  Biso   1.000  Ne
  He3      1.0000 0.80137  0.50520  0.42734  Biso   1.000  He
  He4      1.0000 0.69123  0.73554  0.31858  Biso   1.000  He
  Ar2      1.0000 0.72229  0.66764  0.35309  Biso   1.000  Ar
  Ne3      1.0000 0.26621  0.36190  0.65071  Biso   1.000  Ne
  He5      1.0000 0.27593  0.24015  0.62383  Biso   1.000  He
  He6      1.0000 0.26918  0.26233  0.61954  Biso   1.000  He
  Ar3      1.0000 0.27751  0.33236  0.64692  Biso   1.000  Ar
  Ne4      1.0000 0.73347  0.86188  0.84927  Biso   1.000  Ne
  He7      1.0000 0.73491  0.77714  0.88322  Biso   1.000  He
  He8      1.0000 0.69107  0.76377  0.81867  Biso   1.000  He
  Ar4      1.0000 0.72221  0.83235  0.85307  Biso   1.000  Ar
