data_image0
_cell_length_a       13.83
_cell_length_b       13.88
_cell_length_c       15.69
_cell_angle_alpha    94.1
_cell_angle_beta     87.8
_cell_angle_gamma    120

_symmetry_space_group_name_H-M    "P 1"
_symmetry_int_tables_number       1

loop_
  _symmetry_equiv_pos_as_xyz
  'x, y, z'

loop_
  _atom_site_label
  _atom_site_occupancy
  _atom_site_fract_x
  _atom_site_fract_y
  _atom_site_fract_z
  _atom_site_thermal_displace_type
  _atom_site_B_iso_or_equiv
  _atom_site_type_symbol
  O1       1.0000 0.29989  0.01273  0.56927  Biso   1.000  O
  C1       1.0000 0.27729  0.90075  0.54180  Biso   1.000  C
  C2       1.0000 0.41869  0.10048  0.55432  Biso   1.000  C
  C3       1.0000 0.20638  0.86276  0.45873  Biso   1.000  C
  C4       1.0000 0.20257  0.82927  0.61860  Biso   1.000  C
  O2       1.0000 0.42675  0.16313  0.48998  Biso   1.000  O
  C5       1.0000 0.44690  0.17069  0.64078  Biso   1.000  C
  O3       1.0000 0.15878  0.74557  0.44231  Biso   1.000  O
  C6       1.0000 0.28471  0.91598  0.38569  Biso   1.000  C
  C7       1.0000 0.15695  0.70697  0.58889  Biso   1.000  C
  O4       1.0000 0.28360  0.85599  0.68640  Biso   1.000  O
  C8       1.0000 0.35846  0.21863  0.49432  Biso   1.000  C
  O5       1.0000 0.43466  0.10706  0.71158  Biso   1.000  O
  C9       1.0000 0.37040  0.22348  0.65292  Biso   1.000  C
  C10      1.0000 0.08520  0.68267  0.50870  Biso   1.000  C
  O6       1.0000 0.37309  0.89238  0.38390  Biso   1.000  O
  O7       1.0000 0.08091  0.64166  0.65432  Biso   1.000  O
  C11      1.0000 0.39074  0.29713  0.57630  Biso   1.000  C
  C12      1.0000 0.37840  0.27876  0.41400  Biso   1.000  C
  Li1      1.0000 0.48306  0.23723  0.80627  Biso   1.000  Li
  O8       1.0000 0.41415  0.29766  0.73068  Biso   1.000  O
  O9       1.0000 0.00202  0.70968  0.52831  Biso   1.000  O
  O10      1.0000 0.30946  0.33258  0.59330  Biso   1.000  O
  O11      1.0000 0.49067  0.36557  0.41029  Biso   1.000  O
  O12      1.0000 0.64568  0.31944  0.78218  Biso   1.000  O
  O13      1.0000 0.48137  0.33820  0.90941  Biso   1.000  O
  O14      1.0000 0.46691  0.13119  0.89842  Biso   1.000  O
  C13      1.0000 0.88745  0.62924  0.50729  Biso   1.000  C
  C14      1.0000 0.34627  0.44634  0.57892  Biso   1.000  C
  C15      1.0000 0.47054  0.27834  0.98481  Biso   1.000  C
  C16      1.0000 0.40807  0.15525  0.96091  Biso   1.000  C
  C17      1.0000 0.82369  0.63245  0.58710  Biso   1.000  C
  C18      1.0000 0.85521  0.67885  0.43279  Biso   1.000  C
  O15      1.0000 0.30019  0.45260  0.50218  Biso   1.000  O
  C19      1.0000 0.30820  0.49659  0.65081  Biso   1.000  C
  C20      1.0000 0.41543  0.31176  0.05631  Biso   1.000  C
  C21      1.0000 0.39501  0.09442  0.04302  Biso   1.000  C
  O16      1.0000 0.84601  0.57480  0.65049  Biso   1.000  O
  C22      1.0000 0.69635  0.55798  0.56582  Biso   1.000  C
  O17      1.0000 0.73434  0.60676  0.42160  Biso   1.000  O
  C23      1.0000 0.90418  0.66245  0.34288  Biso   1.000  C
  C24      1.0000 0.17799  0.38299  0.50033  Biso   1.000  C
  O18      1.0000 0.34777  0.48117  0.73170  Biso   1.000  O
  C25      1.0000 0.17880  0.43189  0.66167  Biso   1.000  C
  O19      1.0000 0.40799  0.25405  0.12832  Biso   1.000  O
  O20      1.0000 0.30949  0.28256  0.02564  Biso   1.000  O
  O21      1.0000 0.31594  0.98135  0.01970  Biso   1.000  O
  C26      1.0000 0.34380  0.13356  0.11433  Biso   1.000  C
  O22      1.0000 0.63010  0.55843  0.63803  Biso   1.000  O
  C27      1.0000 0.66888  0.60537  0.49260  Biso   1.000  C
  O23      1.0000 0.87011  0.55137  0.32371  Biso   1.000  O
  C28      1.0000 0.12680  0.41999  0.57298  Biso   1.000  C
  C29      1.0000 0.14035  0.38915  0.41279  Biso   1.000  C
  O24      1.0000 0.14608  0.49755  0.71682  Biso   1.000  O
  C30      1.0000 0.27291  0.36198  0.03899  Biso   1.000  C
  C31      1.0000 0.34124  0.89475  0.02819  Biso   1.000  C
  C32      1.0000 0.34600  0.08813  0.20283  Biso   1.000  C
  O25      1.0000 0.69738  0.71587  0.52039  Biso   1.000  O
  O26      1.0000 0.01020  0.33736  0.58320  Biso   1.000  O
  O27      1.0000 0.15310  0.49857  0.40461  Biso   1.000  O
  C33      1.0000 0.23258  0.37298  0.95279  Biso   1.000  C
  C34      1.0000 0.17729  0.31854  0.10532  Biso   1.000  C
  C35      1.0000 0.32004  0.82919  0.94052  Biso   1.000  C
  O28      1.0000 0.27505  0.82617  0.08692  Biso   1.000  O
  O29      1.0000 0.45777  0.12986  0.22564  Biso   1.000  O
  C36      1.0000 0.61684  0.75404  0.50320  Biso   1.000  C
  C37      1.0000 0.92471  0.36208  0.55809  Biso   1.000  C
  O30      1.0000 0.32615  0.42049  0.89899  Biso   1.000  O
  C38      1.0000 0.17658  0.44018  0.96410  Biso   1.000  C
  O31      1.0000 0.12455  0.38568  0.10749  Biso   1.000  O
  C39      1.0000 0.22292  0.32717  0.19791  Biso   1.000  C
  O32      1.0000 0.39534  0.90475  0.88059  Biso   1.000  O
  C40      1.0000 0.19786  0.78450  0.91810  Biso   1.000  C
  C41      1.0000 0.15314  0.77120  0.07452  Biso   1.000  C
  C42      1.0000 0.60461  0.80697  0.58378  Biso   1.000  C
  C43      1.0000 0.67247  0.83842  0.43080  Biso   1.000  C
  C44      1.0000 0.83757  0.31923  0.62237  Biso   1.000  C
  O33      1.0000 0.88604  0.31433  0.47579  Biso   1.000  O
  C45      1.0000 0.08008  0.39052  0.03382  Biso   1.000  C
  O34      1.0000 0.30258  0.43653  0.22174  Biso   1.000  O
  O35      1.0000 0.17612  0.71833  0.83758  Biso   1.000  O
  C46      1.0000 0.12595  0.70955  0.98679  Biso   1.000  C
  C47      1.0000 0.09635  0.70189  0.14820  Biso   1.000  C
  O36      1.0000 0.54736  0.72247  0.64410  Biso   1.000  O
  C48      1.0000 0.53644  0.86474  0.56512  Biso   1.000  C
  O37      1.0000 0.60851  0.89300  0.42448  Biso   1.000  O
  C49      1.0000 0.67455  0.78713  0.34467  Biso   1.000  C
  C50      1.0000 0.77406  0.19037  0.61918  Biso   1.000  C
  O38      1.0000 0.87137  0.36095  0.70723  Biso   1.000  O
  C51      1.0000 0.83916  0.19515  0.46767  Biso   1.000  C
  O39      1.0000 0.00714  0.27946  0.99899  Biso   1.000  O
  O40      1.0000 0.01256  0.68034  0.96775  Biso   1.000  O
  O41      1.0000 0.11886  0.60906  0.14411  Biso   1.000  O
  O42      1.0000 0.52320  0.91967  0.64033  Biso   1.000  O
  C52      1.0000 0.59536  0.94395  0.49668  Biso   1.000  C
  O43      1.0000 0.56177  0.70149  0.31898  Biso   1.000  O
  C53      1.0000 0.73890  0.14067  0.53010  Biso   1.000  C
  O44      1.0000 0.67495  0.15243  0.67292  Biso   1.000  O
  C54      1.0000 0.80720  0.15287  0.37253  Biso   1.000  C
  C55      1.0000 0.88691  0.24331  0.00059  Biso   1.000  C
  C56      1.0000 0.93096  0.56671  0.97094  Biso   1.000  C
  O45      1.0000 0.70168  0.02650  0.53081  Biso   1.000  O
  O46      1.0000 0.71402  0.16530  0.35080  Biso   1.000  O
  C57      1.0000 0.84904  0.18493  0.91005  Biso   1.000  C
  C58      1.0000 0.83048  0.15751  0.06353  Biso   1.000  C
  C59      1.0000 0.86435  0.53070  0.88672  Biso   1.000  C
  O47      1.0000 0.85900  0.55440  0.03861  Biso   1.000  O
  O48      1.0000 0.90247  0.27661  0.85094  Biso   1.000  O
  C60      1.0000 0.71859  0.13150  0.90244  Biso   1.000  C
  O49      1.0000 0.71034  0.11155  0.05458  Biso   1.000  O
  C61      1.0000 0.85906  0.20272  0.15580  Biso   1.000  C
  O50      1.0000 0.94279  0.54857  0.81893  Biso   1.000  O
  C62      1.0000 0.80789  0.59929  0.87669  Biso   1.000  C
  C63      1.0000 0.80535  0.62461  0.03740  Biso   1.000  C
  O51      1.0000 0.68621  0.07351  0.82314  Biso   1.000  O
  C64      1.0000 0.66818  0.05240  0.97759  Biso   1.000  C
  O52      1.0000 0.85292  0.30116  0.17401  Biso   1.000  O
  O53      1.0000 0.73286  0.55383  0.80551  Biso   1.000  O
  C65      1.0000 0.73156  0.58576  0.95414  Biso   1.000  C
  C66      1.0000 0.74094  0.61117  0.12123  Biso   1.000  C
  O54      1.0000 0.69856  0.97030  0.95759  Biso   1.000  O
  O55      1.0000 0.69919  0.66898  0.94289  Biso   1.000  O
  O56      1.0000 0.65197  0.50175  0.12621  Biso   1.000  O
  C67      1.0000 0.60905  0.85327  0.96212  Biso   1.000  C
  C68      1.0000 0.58115  0.63146  0.95969  Biso   1.000  C
  C69      1.0000 0.62079  0.79799  0.87931  Biso   1.000  C
  C70      1.0000 0.64128  0.80599  0.03880  Biso   1.000  C
  C71      1.0000 0.54902  0.67436  0.88334  Biso   1.000  C
  O57      1.0000 0.57067  0.68904  0.03369  Biso   1.000  O
  O58      1.0000 0.57337  0.83325  0.81369  Biso   1.000  O
  C72      1.0000 0.62535  0.85086  0.12462  Biso   1.000  C
  O59      1.0000 0.55915  0.61844  0.80512  Biso   1.000  O
  O60      1.0000 0.51660  0.84120  0.13299  Biso   1.000  O
  Ne1      1.0000 0.01218  0.99962  0.76715  Biso   1.000  Ne
  He1      1.0000 0.98405  0.96872  0.10611  Biso   1.000  He
  He2      1.0000 0.22399  0.47272  0.82156  Biso   1.000  He
  He3      1.0000 0.01578  0.02373  0.46262  Biso   1.000  He
  Ar1      1.0000 0.98881  0.96661  0.76876  Biso   1.000  Ar
