data_image0
_cell_length_a       12.031
_cell_length_b       12.031
_cell_length_c       12.559
_cell_angle_alpha    88.01
_cell_angle_beta     88.01
_cell_angle_gamma    74.11

_symmetry_space_group_name_H-M    "P 1"
_symmetry_int_tables_number       1

loop_
  _symmetry_equiv_pos_as_xyz
  'x, y, z'

loop_
  _atom_site_label
  _atom_site_occupancy
  _atom_site_fract_x
  _atom_site_fract_y
  _atom_site_fract_z
  _atom_site_thermal_displace_type
  _atom_site_B_iso_or_equiv
  _atom_site_type_symbol
  N1       1.0000 0.24832  0.40394  0.44010  Biso   1.000  N
  C1       1.0000 0.30698  0.38230  0.33793  Biso   1.000  C
  H1       1.0000 0.28117  0.43312  0.48959  Biso   1.000  H
  C2       1.0000 0.14219  0.38134  0.46576  Biso   1.000  C
  O1       1.0000 0.26783  0.33652  0.27329  Biso   1.000  O
  H2       1.0000 0.25878  0.43039  0.28190  Biso   1.000  H
  H3       1.0000 0.32026  0.30001  0.32031  Biso   1.000  H
  C3       1.0000 0.42196  0.41174  0.34207  Biso   1.000  C
  C4       1.0000 0.11371  0.41142  0.58404  Biso   1.000  C
  O2       1.0000 0.08870  0.35606  0.40360  Biso   1.000  O
  C5       1.0000 0.42950  0.51422  0.30923  Biso   1.000  C
  C6       1.0000 0.51725  0.32326  0.38096  Biso   1.000  C
  C7       1.0000 0.12467  0.31654  0.65680  Biso   1.000  C
  C8       1.0000 0.08852  0.52588  0.61624  Biso   1.000  C
  O3       1.0000 0.33199  0.59391  0.27863  Biso   1.000  O
  C9       1.0000 0.53628  0.54479  0.32199  Biso   1.000  C
  C10      1.0000 0.62432  0.34967  0.39427  Biso   1.000  C
  C11      1.0000 0.51140  0.21332  0.40288  Biso   1.000  C
  O4       1.0000 0.15232  0.21241  0.61401  Biso   1.000  O
  C12      1.0000 0.10601  0.33966  0.76751  Biso   1.000  C
  C13      1.0000 0.07373  0.55137  0.72861  Biso   1.000  C
  C14      1.0000 0.07314  0.62039  0.54459  Biso   1.000  C
  C15      1.0000 0.33760  0.71183  0.24659  Biso   1.000  C
  H4       1.0000 0.54012  0.62170  0.30708  Biso   1.000  H
  C16      1.0000 0.63385  0.46016  0.35642  Biso   1.000  C
  C17      1.0000 0.72145  0.26677  0.43460  Biso   1.000  C
  C18      1.0000 0.60610  0.11969  0.43731  Biso   1.000  C
  H5       1.0000 0.43898  0.19747  0.39467  Biso   1.000  H
  C19      1.0000 0.18533  0.11433  0.68940  Biso   1.000  C
  C20      1.0000 0.08017  0.45544  0.79859  Biso   1.000  C
  C21      1.0000 0.05267  0.66473  0.76296  Biso   1.000  C
  H6       1.0000 0.08111  0.60782  0.47007  Biso   1.000  H
  C22      1.0000 0.04733  0.72818  0.58013  Biso   1.000  C
  H7       1.0000 0.36058  0.74941  0.30788  Biso   1.000  H
  H8       1.0000 0.39620  0.70769  0.18849  Biso   1.000  H
  C23      1.0000 0.22362  0.78019  0.21017  Biso   1.000  C
  H9       1.0000 0.70701  0.47611  0.35458  Biso   1.000  H
  C24      1.0000 0.70746  0.15684  0.45612  Biso   1.000  C
  C25      1.0000 0.83681  0.28896  0.45963  Biso   1.000  C
  H10      1.0000 0.58291  0.08419  0.50370  Biso   1.000  H
  H11      1.0000 0.62478  0.05999  0.38224  Biso   1.000  H
  H12      1.0000 0.11733  0.10653  0.73268  Biso   1.000  H
  H13      1.0000 0.24477  0.12428  0.73778  Biso   1.000  H
  C26      1.0000 0.23286  0.00893  0.62158  Biso   1.000  C
  H14      1.0000 0.06608  0.47011  0.87231  Biso   1.000  H
  C27      1.0000 0.05082  0.70242  0.87781  Biso   1.000  C
  C28      1.0000 0.03302  0.75566  0.68932  Biso   1.000  C
  H15      1.0000 0.03798  0.79004  0.52897  Biso   1.000  H
  H16      1.0000 0.19806  0.73939  0.15262  Biso   1.000  H
  H17      1.0000 0.22904  0.85619  0.18140  Biso   1.000  H
  C29      1.0000 0.13283  0.79829  0.30589  Biso   1.000  C
  O5       1.0000 0.79693  0.06187  0.48928  Biso   1.000  O
  C30      1.0000 0.93054  0.17746  0.45421  Biso   1.000  C
  H18      1.0000 0.85417  0.34956  0.41053  Biso   1.000  H
  C31      1.0000 0.83201  0.32309  0.57527  Biso   1.000  C
  C32      1.0000 0.32766  0.01732  0.55447  Biso   1.000  C
  H19      1.0000 0.25767  0.93965  0.66908  Biso   1.000  H
  H20      1.0000 0.17052  0.99844  0.57703  Biso   1.000  H
  H21      1.0000 0.03671  0.64002  0.92667  Biso   1.000  H
  C33      1.0000 0.16391  0.72717  0.90730  Biso   1.000  C
  C34      1.0000 0.95267  0.81210  0.89272  Biso   1.000  C
  O6       1.0000 0.00471  0.86651  0.70869  Biso   1.000  O
  H22      1.0000 0.15804  0.83846  0.36407  Biso   1.000  H
  H23      1.0000 0.12548  0.72274  0.33410  Biso   1.000  H
  C35      1.0000 0.01287  0.87358  0.26269  Biso   1.000  C
  C36      1.0000 0.90001  0.08822  0.52610  Biso   1.000  C
  H24      1.0000 0.94057  0.15036  0.38001  Biso   1.000  H
  H25      1.0000 0.00438  0.18998  0.47597  Biso   1.000  H
  C37      1.0000 0.85019  0.24012  0.65457  Biso   1.000  C
  C38      1.0000 0.81141  0.44234  0.61201  Biso   1.000  C
  H26      1.0000 0.38437  0.04302  0.59591  Biso   1.000  H
  H27      1.0000 0.30059  0.07447  0.49597  Biso   1.000  H
  C39      1.0000 0.38891  0.88909  0.50522  Biso   1.000  C
  C40      1.0000 0.17391  0.83559  0.89040  Biso   1.000  C
  C41      1.0000 0.26052  0.63982  0.95193  Biso   1.000  C
  C42      1.0000 0.98863  0.90281  0.82083  Biso   1.000  C
  H28      1.0000 0.94484  0.83528  0.96811  Biso   1.000  H
  H29      1.0000 0.87840  0.80098  0.87032  Biso   1.000  H
  H30      1.0000 0.01462  0.95430  0.25360  Biso   1.000  H
  H31      1.0000 0.95088  0.86859  0.31370  Biso   1.000  H
  H32      1.0000 0.99891  0.84443  0.19391  Biso   1.000  H
  O7       1.0000 0.88117  0.11882  0.62883  Biso   1.000  O
  H33      1.0000 0.96534  0.01606  0.52291  Biso   1.000  H
  C43      1.0000 0.84388  0.25884  0.76504  Biso   1.000  C
  C44      1.0000 0.79779  0.46491  0.72096  Biso   1.000  C
  C45      1.0000 0.80609  0.53780  0.53741  Biso   1.000  C
  H34      1.0000 0.41671  0.83324  0.56364  Biso   1.000  H
  H35      1.0000 0.45419  0.89372  0.45803  Biso   1.000  H
  H36      1.0000 0.33229  0.86414  0.46473  Biso   1.000  H
  O8       1.0000 0.08638  0.92728  0.85382  Biso   1.000  O
  C46      1.0000 0.28003  0.85748  0.90443  Biso   1.000  C
  C47      1.0000 0.36743  0.66599  0.96453  Biso   1.000  C
  C48      1.0000 0.26101  0.52649  0.98047  Biso   1.000  C
  H37      1.0000 0.92434  0.97576  0.82354  Biso   1.000  H
  H38      1.0000 0.86039  0.19613  0.81541  Biso   1.000  H
  C49      1.0000 0.81331  0.37029  0.79652  Biso   1.000  C
  C50      1.0000 0.77009  0.58220  0.75970  Biso   1.000  C
  C51      1.0000 0.78457  0.64523  0.57647  Biso   1.000  C
  H39      1.0000 0.81734  0.52540  0.46298  Biso   1.000  H
  H40      1.0000 0.28487  0.93390  0.88857  Biso   1.000  H
  C52      1.0000 0.37478  0.78144  0.93767  Biso   1.000  C
  C53      1.0000 0.46758  0.58021  0.00278  Biso   1.000  C
  H41      1.0000 0.19407  0.50306  0.96540  Biso   1.000  H
  C54      1.0000 0.34576  0.44948  0.02637  Biso   1.000  C
  H42      1.0000 0.80189  0.38582  0.87040  Biso   1.000  H
  C55      1.0000 0.76286  0.66763  0.68534  Biso   1.000  C
  C56      1.0000 0.74318  0.60341  0.87399  Biso   1.000  C
  H43      1.0000 0.78419  0.70796  0.52841  Biso   1.000  H
  H44      1.0000 0.44507  0.80201  0.94372  Biso   1.000  H
  C57      1.0000 0.45346  0.46759  0.02773  Biso   1.000  C
  C58      1.0000 0.58372  0.60377  0.00087  Biso   1.000  C
  H45      1.0000 0.33272  0.38141  0.05849  Biso   1.000  H
  O9       1.0000 0.73610  0.77927  0.72240  Biso   1.000  O
  N2       1.0000 0.63563  0.58473  0.90491  Biso   1.000  N
  H46      1.0000 0.80494  0.55129  0.91671  Biso   1.000  H
  H47      1.0000 0.74165  0.68413  0.88889  Biso   1.000  H
  O10      1.0000 0.79411  0.64318  0.93424  Biso   1.000  O
  O11      1.0000 0.55264  0.38845  0.06319  Biso   1.000  O
  O12      1.0000 0.61487  0.65786  0.06503  Biso   1.000  O
  C59      1.0000 0.70477  0.87673  0.65338  Biso   1.000  C
  H48      1.0000 0.59932  0.55802  0.85629  Biso   1.000  H
  C60      1.0000 0.54087  0.28116  0.09515  Biso   1.000  C
  H49      1.0000 0.64630  0.86769  0.60341  Biso   1.000  H
  H50      1.0000 0.77340  0.88484  0.61130  Biso   1.000  H
  C61      1.0000 0.65698  0.98049  0.71809  Biso   1.000  C
  H51      1.0000 0.51305  0.24394  0.03641  Biso   1.000  H
  H52      1.0000 0.48640  0.28735  0.15700  Biso   1.000  H
  C62      1.0000 0.66577  0.21157  0.12632  Biso   1.000  C
  H53      1.0000 0.71871  0.99059  0.76392  Biso   1.000  H
  C63      1.0000 0.54787  0.97762  0.79174  Biso   1.000  C
  H54      1.0000 0.63518  0.04894  0.66940  Biso   1.000  H
  H55      1.0000 0.69137  0.25528  0.18147  Biso   1.000  H
  H56      1.0000 0.66080  0.13749  0.16019  Biso   1.000  H
  C64      1.0000 0.75651  0.18461  0.04399  Biso   1.000  C
  C65      1.0000 0.49372  0.07639  0.84952  Biso   1.000  C
  H57      1.0000 0.72814  0.14721  0.98573  Biso   1.000  H
  H58      1.0000 0.76673  0.25865  0.01458  Biso   1.000  H
  C66      1.0000 0.86591  0.11419  0.07116  Biso   1.000  C
  H59      1.0000 0.55066  0.09702  0.89311  Biso   1.000  H
  H60      1.0000 0.43229  0.06056  0.89566  Biso   1.000  H
  H61      1.0000 0.46039  0.14063  0.79987  Biso   1.000  H
  H62      1.0000 0.89947  0.15278  0.12392  Biso   1.000  H
  H63      1.0000 0.91628  0.10019  0.00716  Biso   1.000  H
  H64      1.0000 0.85828  0.04030  0.10129  Biso   1.000  H
  Ne1      1.0000 0.44340  0.49352  0.67009  Biso   1.000  Ne
  He1      1.0000 0.46681  0.48248  0.65668  Biso   1.000  He
  He2      1.0000 0.46464  0.49704  0.65069  Biso   1.000  He
  Ar1      1.0000 0.44395  0.49372  0.67069  Biso   1.000  Ar
