data_image0
_cell_length_a       16.12
_cell_length_b       28.187
_cell_length_c       22.96
_cell_angle_alpha    90
_cell_angle_beta     91.18
_cell_angle_gamma    90

_symmetry_space_group_name_H-M    "P 1"
_symmetry_int_tables_number       1

loop_
  _symmetry_equiv_pos_as_xyz
  'x, y, z'

loop_
  _atom_site_label
  _atom_site_occupancy
  _atom_site_fract_x
  _atom_site_fract_y
  _atom_site_fract_z
  _atom_site_thermal_displace_type
  _atom_site_B_iso_or_equiv
  _atom_site_type_symbol
  C1       1.0000 0.16103  0.36772  0.49653  Biso   1.000  C
  C2       1.0000 0.15098  0.31915  0.46700  Biso   1.000  C
  H1       1.0000 0.20879  0.38440  0.47950  Biso   1.000  H
  H2       1.0000 0.11085  0.38692  0.48821  Biso   1.000  H
  C3       1.0000 0.17450  0.36464  0.56231  Biso   1.000  C
  H3       1.0000 0.11078  0.38692  0.48821  Biso   1.000  H
  C4       1.0000 0.15972  0.32419  0.40104  Biso   1.000  C
  H4       1.0000 0.19885  0.29929  0.48098  Biso   1.000  H
  C5       1.0000 0.07252  0.29315  0.48429  Biso   1.000  C
  H5       1.0000 0.19879  0.29929  0.48098  Biso   1.000  H
  C6       1.0000 0.07246  0.29315  0.48429  Biso   1.000  C
  C7       1.0000 0.19326  0.41296  0.58880  Biso   1.000  C
  H6       1.0000 0.12421  0.35140  0.58018  Biso   1.000  H
  H7       1.0000 0.22128  0.34282  0.57107  Biso   1.000  H
  C8       1.0000 0.11612  0.35864  0.36972  Biso   1.000  C
  C9       1.0000 0.21595  0.29680  0.37033  Biso   1.000  C
  C10      1.0000 0.00002  0.31649  0.49998  Biso   1.000  C
  C11      1.0000 0.07085  0.24384  0.48464  Biso   1.000  C
  C12      1.0000 0.22144  0.41005  0.65266  Biso   1.000  C
  H8       1.0000 0.23720  0.42850  0.56619  Biso   1.000  H
  H9       1.0000 0.14280  0.43289  0.58579  Biso   1.000  H
  C13      1.0000 0.12855  0.36893  0.31135  Biso   1.000  C
  H10      1.0000 0.07507  0.37631  0.38950  Biso   1.000  H
  C14      1.0000 0.23075  0.30684  0.31252  Biso   1.000  C
  O1       1.0000 0.25930  0.25994  0.39516  Biso   1.000  O
  H11      1.0000 0.00002  0.35020  0.49998  Biso   1.000  H
  C15      1.0000 0.92753  0.29315  0.51566  Biso   1.000  C
  C16      1.0000 0.00002  0.21964  0.49998  Biso   1.000  C
  O2       1.0000 0.14059  0.21982  0.46822  Biso   1.000  O
  C17      1.0000 0.15427  0.39312  0.69322  Biso   1.000  C
  C18      1.0000 0.25880  0.45635  0.67453  Biso   1.000  C
  C19      1.0000 0.25874  0.45635  0.67453  Biso   1.000  C
  H12      1.0000 0.26679  0.38589  0.65480  Biso   1.000  H
  C20      1.0000 0.18909  0.34303  0.28360  Biso   1.000  C
  C21      1.0000 0.08069  0.40856  0.28085  Biso   1.000  C
  H13      1.0000 0.27029  0.28850  0.29218  Biso   1.000  H
  H14      1.0000 0.23206  0.24859  0.42269  Biso   1.000  H
  C22      1.0000 0.84901  0.31915  0.53295  Biso   1.000  C
  C23      1.0000 0.92920  0.24384  0.51535  Biso   1.000  C
  H15      1.0000 0.00002  0.18590  0.49998  Biso   1.000  H
  H16      1.0000 0.13137  0.19030  0.47088  Biso   1.000  H
  C24      1.0000 0.17423  0.36247  0.73922  Biso   1.000  C
  C25      1.0000 0.07206  0.40866  0.68873  Biso   1.000  C
  C26      1.0000 0.07200  0.40866  0.68873  Biso   1.000  C
  C27      1.0000 0.22660  0.50002  0.65746  Biso   1.000  C
  C28      1.0000 0.32701  0.45737  0.71370  Biso   1.000  C
  O3       1.0000 0.20697  0.35371  0.22701  Biso   1.000  O
  H17      1.0000 0.10378  0.41182  0.24099  Biso   1.000  H
  C29      1.0000 0.09682  0.45571  0.31257  Biso   1.000  C
  C30      1.0000 0.98996  0.39511  0.27327  Biso   1.000  C
  C31      1.0000 0.83896  0.36772  0.50342  Biso   1.000  C
  H18      1.0000 0.80120  0.29929  0.51901  Biso   1.000  H
  C32      1.0000 0.84027  0.32419  0.59891  Biso   1.000  C
  O4       1.0000 0.85939  0.21982  0.53178  Biso   1.000  O
  O5       1.0000 0.25503  0.34693  0.74463  Biso   1.000  O
  C33      1.0000 0.11482  0.34839  0.77808  Biso   1.000  C
  H19      1.0000 0.05751  0.42981  0.65789  Biso   1.000  H
  C34      1.0000 0.01009  0.39511  0.72672  Biso   1.000  C
  C35      1.0000 0.01003  0.39511  0.72672  Biso   1.000  C
  C36      1.0000 0.25880  0.54365  0.67453  Biso   1.000  C
  H20      1.0000 0.17909  0.50002  0.63219  Biso   1.000  H
  C37      1.0000 0.25874  0.54365  0.67453  Biso   1.000  C
  C38      1.0000 0.36024  0.50002  0.73208  Biso   1.000  C
  O6       1.0000 0.36526  0.41672  0.73391  Biso   1.000  O
  C39      1.0000 0.36018  0.50002  0.73208  Biso   1.000  C
  O7       1.0000 0.36520  0.41672  0.73391  Biso   1.000  O
  H21      1.0000 0.25691  0.34722  0.22078  Biso   1.000  H
  C40      1.0000 0.06674  0.50002  0.28085  Biso   1.000  C
  H22      1.0000 0.06985  0.45439  0.35090  Biso   1.000  H
  C41      1.0000 0.06667  0.50002  0.28085  Biso   1.000  C
  H23      1.0000 0.15728  0.45879  0.32002  Biso   1.000  H
  H24      1.0000 0.06978  0.45439  0.35090  Biso   1.000  H
  C42      1.0000 0.92799  0.40866  0.31126  Biso   1.000  C
  C43      1.0000 0.96611  0.36449  0.22766  Biso   1.000  C
  C44      1.0000 0.82549  0.36464  0.43768  Biso   1.000  C
  H25      1.0000 0.88920  0.38692  0.51178  Biso   1.000  H
  H26      1.0000 0.79120  0.38440  0.52049  Biso   1.000  H
  C45      1.0000 0.78404  0.29680  0.62962  Biso   1.000  C
  C46      1.0000 0.88387  0.35864  0.63023  Biso   1.000  C
  H27      1.0000 0.86862  0.19030  0.52908  Biso   1.000  H
  H28      1.0000 0.26263  0.33452  0.77760  Biso   1.000  H
  H29      1.0000 0.12962  0.32742  0.80897  Biso   1.000  H
  C47      1.0000 0.03394  0.36449  0.77233  Biso   1.000  C
  C48      1.0000 0.03388  0.36449  0.77233  Biso   1.000  C
  C49      1.0000 0.91936  0.40856  0.71910  Biso   1.000  C
  C50      1.0000 0.91929  0.40856  0.71910  Biso   1.000  C
  C51      1.0000 0.22144  0.58995  0.65266  Biso   1.000  C
  C52      1.0000 0.32701  0.54266  0.71370  Biso   1.000  C
  H30      1.0000 0.40703  0.50002  0.75800  Biso   1.000  H
  H31      1.0000 0.40697  0.50002  0.75800  Biso   1.000  H
  H32      1.0000 0.32818  0.39600  0.74079  Biso   1.000  H
  C53      1.0000 0.09682  0.54429  0.31257  Biso   1.000  C
  H33      1.0000 0.00532  0.50002  0.27859  Biso   1.000  H
  H34      1.0000 0.08758  0.50002  0.24060  Biso   1.000  H
  C54      1.0000 0.84578  0.39312  0.30677  Biso   1.000  C
  H35      1.0000 0.94248  0.42981  0.34210  Biso   1.000  H
  C55      1.0000 0.88517  0.34839  0.22191  Biso   1.000  C
  O8       1.0000 0.02585  0.35055  0.18972  Biso   1.000  O
  O9       1.0000 0.02579  0.35055  0.18972  Biso   1.000  O
  C56      1.0000 0.80679  0.41296  0.41119  Biso   1.000  C
  H36      1.0000 0.77871  0.34282  0.42888  Biso   1.000  H
  H37      1.0000 0.87577  0.35140  0.41978  Biso   1.000  H
  H38      1.0000 0.92492  0.37631  0.61050  Biso   1.000  H
  C57      1.0000 0.87144  0.36893  0.68865  Biso   1.000  C
  O10      1.0000 0.74076  0.25994  0.60483  Biso   1.000  O
  C58      1.0000 0.76923  0.30684  0.68747  Biso   1.000  C
  O11      1.0000 0.97420  0.35055  0.81028  Biso   1.000  O
  H39      1.0000 0.89621  0.41182  0.75900  Biso   1.000  H
  C59      1.0000 0.90316  0.45571  0.68738  Biso   1.000  C
  C60      1.0000 0.19326  0.58704  0.58880  Biso   1.000  C
  C61      1.0000 0.15427  0.60688  0.69322  Biso   1.000  C
  H40      1.0000 0.26679  0.61411  0.65480  Biso   1.000  H
  O12      1.0000 0.36526  0.58328  0.73391  Biso   1.000  O
  O13      1.0000 0.36520  0.58328  0.73391  Biso   1.000  O
  C62      1.0000 0.08069  0.59144  0.28085  Biso   1.000  C
  H41      1.0000 0.06985  0.54561  0.35090  Biso   1.000  H
  H42      1.0000 0.15728  0.54121  0.32002  Biso   1.000  H
  H43      1.0000 0.06978  0.54561  0.35090  Biso   1.000  H
  C63      1.0000 0.77855  0.41005  0.34733  Biso   1.000  C
  C64      1.0000 0.82576  0.36247  0.26077  Biso   1.000  C
  H44      1.0000 0.87043  0.32742  0.19098  Biso   1.000  H
  H45      1.0000 0.87037  0.32742  0.19098  Biso   1.000  H
  H46      1.0000 0.00370  0.33512  0.16219  Biso   1.000  H
  H47      1.0000 0.76285  0.42850  0.43380  Biso   1.000  H
  H48      1.0000 0.85725  0.43289  0.41420  Biso   1.000  H
  H49      1.0000 0.76279  0.42850  0.43380  Biso   1.000  H
  H50      1.0000 0.85719  0.43289  0.41420  Biso   1.000  H
  C65      1.0000 0.81090  0.34303  0.71640  Biso   1.000  C
  H51      1.0000 0.76793  0.24859  0.57730  Biso   1.000  H
  H52      1.0000 0.72976  0.28850  0.70777  Biso   1.000  H
  H53      1.0000 0.72969  0.28850  0.70777  Biso   1.000  H
  H54      1.0000 0.99635  0.33512  0.83776  Biso   1.000  H
  C66      1.0000 0.93331  0.50002  0.71914  Biso   1.000  C
  H55      1.0000 0.84271  0.45879  0.67998  Biso   1.000  H
  H56      1.0000 0.93021  0.45439  0.64909  Biso   1.000  H
  C67      1.0000 0.17450  0.63540  0.56231  Biso   1.000  C
  H57      1.0000 0.23720  0.57150  0.56619  Biso   1.000  H
  H58      1.0000 0.14280  0.56711  0.58579  Biso   1.000  H
  C68      1.0000 0.17423  0.63753  0.73922  Biso   1.000  C
  C69      1.0000 0.07206  0.59134  0.68873  Biso   1.000  C
  C70      1.0000 0.07200  0.59134  0.68873  Biso   1.000  C
  H59      1.0000 0.32818  0.60400  0.74079  Biso   1.000  H
  H60      1.0000 0.10378  0.58821  0.24099  Biso   1.000  H
  C71      1.0000 0.98996  0.60489  0.27327  Biso   1.000  C
  C72      1.0000 0.12855  0.63107  0.31135  Biso   1.000  C
  C73      1.0000 0.74125  0.45635  0.32546  Biso   1.000  C
  H61      1.0000 0.73320  0.38589  0.34520  Biso   1.000  H
  O14      1.0000 0.74496  0.34693  0.25537  Biso   1.000  O
  O15      1.0000 0.79302  0.35371  0.77299  Biso   1.000  O
  H62      1.0000 0.99473  0.50002  0.72141  Biso   1.000  H
  H63      1.0000 0.91241  0.50002  0.75939  Biso   1.000  H
  C74      1.0000 0.90316  0.54429  0.68738  Biso   1.000  C
  C75      1.0000 0.16103  0.63228  0.49653  Biso   1.000  C
  H64      1.0000 0.12421  0.64860  0.58018  Biso   1.000  H
  H65      1.0000 0.22128  0.65722  0.57107  Biso   1.000  H
  O16      1.0000 0.25503  0.65310  0.74463  Biso   1.000  O
  C76      1.0000 0.11482  0.65165  0.77808  Biso   1.000  C
  H66      1.0000 0.05751  0.57019  0.65789  Biso   1.000  H
  C77      1.0000 0.01009  0.60489  0.72672  Biso   1.000  C
  C78      1.0000 0.01003  0.60489  0.72672  Biso   1.000  C
  C79      1.0000 0.92799  0.59134  0.31126  Biso   1.000  C
  C80      1.0000 0.96611  0.63551  0.22766  Biso   1.000  C
  C81      1.0000 0.11612  0.64139  0.36972  Biso   1.000  C
  C82      1.0000 0.18909  0.65701  0.28360  Biso   1.000  C
  C83      1.0000 0.67298  0.45737  0.28630  Biso   1.000  C
  C84      1.0000 0.77338  0.50002  0.34254  Biso   1.000  C
  H67      1.0000 0.73742  0.33452  0.22239  Biso   1.000  H
  H68      1.0000 0.74314  0.34722  0.77917  Biso   1.000  H
  C85      1.0000 0.91936  0.59144  0.71910  Biso   1.000  C
  H69      1.0000 0.84271  0.54121  0.67998  Biso   1.000  H
  H70      1.0000 0.93021  0.54561  0.64909  Biso   1.000  H
  C86      1.0000 0.91929  0.59144  0.71910  Biso   1.000  C
  C87      1.0000 0.15098  0.68085  0.46700  Biso   1.000  C
  H71      1.0000 0.20879  0.61560  0.47950  Biso   1.000  H
  H72      1.0000 0.11085  0.61312  0.48821  Biso   1.000  H
  H73      1.0000 0.11078  0.61312  0.48821  Biso   1.000  H
  H74      1.0000 0.26263  0.66552  0.77760  Biso   1.000  H
  H75      1.0000 0.12962  0.67262  0.80897  Biso   1.000  H
  C88      1.0000 0.03394  0.63551  0.77233  Biso   1.000  C
  C89      1.0000 0.03388  0.63551  0.77233  Biso   1.000  C
  C90      1.0000 0.84578  0.60688  0.30677  Biso   1.000  C
  H76      1.0000 0.94248  0.57019  0.34210  Biso   1.000  H
  C91      1.0000 0.88517  0.65165  0.22191  Biso   1.000  C
  O17      1.0000 0.02585  0.64945  0.18972  Biso   1.000  O
  O18      1.0000 0.02579  0.64945  0.18972  Biso   1.000  O
  C92      1.0000 0.15972  0.67581  0.40104  Biso   1.000  C
  H77      1.0000 0.07507  0.62369  0.38950  Biso   1.000  H
  O19      1.0000 0.20697  0.64629  0.22701  Biso   1.000  O
  C93      1.0000 0.23075  0.69319  0.31252  Biso   1.000  C
  H78      1.0000 0.82090  0.50002  0.36780  Biso   1.000  H
  C94      1.0000 0.74125  0.54365  0.32546  Biso   1.000  C
  C95      1.0000 0.63981  0.50002  0.26791  Biso   1.000  C
  O20      1.0000 0.63479  0.41672  0.26608  Biso   1.000  O
  C96      1.0000 0.87144  0.63107  0.68865  Biso   1.000  C
  H79      1.0000 0.89621  0.58821  0.75900  Biso   1.000  H
  H80      1.0000 0.19885  0.70071  0.48098  Biso   1.000  H
  C97      1.0000 0.07252  0.70685  0.48429  Biso   1.000  C
  H81      1.0000 0.19879  0.70071  0.48098  Biso   1.000  H
  C98      1.0000 0.07246  0.70685  0.48429  Biso   1.000  C
  O21      1.0000 0.97420  0.64945  0.81028  Biso   1.000  O
  C99      1.0000 0.77855  0.58995  0.34733  Biso   1.000  C
  C100     1.0000 0.82576  0.63753  0.26077  Biso   1.000  C
  H82      1.0000 0.87043  0.67262  0.19098  Biso   1.000  H
  H83      1.0000 0.87037  0.67262  0.19098  Biso   1.000  H
  H84      1.0000 0.00370  0.66492  0.16219  Biso   1.000  H
  C101     1.0000 0.21595  0.70320  0.37033  Biso   1.000  C
  H85      1.0000 0.25691  0.65282  0.22078  Biso   1.000  H
  H86      1.0000 0.27029  0.71150  0.29218  Biso   1.000  H
  C102     1.0000 0.67298  0.54266  0.28630  Biso   1.000  C
  H87      1.0000 0.59302  0.50002  0.24199  Biso   1.000  H
  H88      1.0000 0.67181  0.39600  0.25920  Biso   1.000  H
  C103     1.0000 0.88387  0.64139  0.63023  Biso   1.000  C
  C104     1.0000 0.81090  0.65701  0.71640  Biso   1.000  C
  C105     1.0000 0.00002  0.68351  0.49998  Biso   1.000  C
  C106     1.0000 0.07085  0.75616  0.48464  Biso   1.000  C
  H89      1.0000 0.99635  0.66492  0.83776  Biso   1.000  H
  H90      1.0000 0.73320  0.61411  0.34520  Biso   1.000  H
  C107     1.0000 0.80679  0.58704  0.41119  Biso   1.000  C
  O22      1.0000 0.74496  0.65310  0.25537  Biso   1.000  O
  O23      1.0000 0.25930  0.74006  0.39516  Biso   1.000  O
  O24      1.0000 0.63479  0.58328  0.26608  Biso   1.000  O
  C108     1.0000 0.84027  0.67581  0.59891  Biso   1.000  C
  H91      1.0000 0.92492  0.62369  0.61050  Biso   1.000  H
  C109     1.0000 0.76923  0.69319  0.68747  Biso   1.000  C
  O25      1.0000 0.79302  0.64629  0.77299  Biso   1.000  O
  H92      1.0000 0.00002  0.64980  0.49998  Biso   1.000  H
  C110     1.0000 0.92753  0.70685  0.51566  Biso   1.000  C
  C111     1.0000 0.00002  0.78036  0.49998  Biso   1.000  C
  O26      1.0000 0.14059  0.78018  0.46822  Biso   1.000  O
  H93      1.0000 0.76285  0.57150  0.43380  Biso   1.000  H
  H94      1.0000 0.85725  0.56711  0.41420  Biso   1.000  H
  C112     1.0000 0.82549  0.63540  0.43768  Biso   1.000  C
  H95      1.0000 0.76279  0.57150  0.43380  Biso   1.000  H
  H96      1.0000 0.85719  0.56711  0.41420  Biso   1.000  H
  H97      1.0000 0.73742  0.66552  0.22239  Biso   1.000  H
  H98      1.0000 0.23206  0.75141  0.42269  Biso   1.000  H
  H99      1.0000 0.67181  0.60400  0.25920  Biso   1.000  H
  C113     1.0000 0.84901  0.68085  0.53295  Biso   1.000  C
  C114     1.0000 0.78404  0.70320  0.62962  Biso   1.000  C
  H100     1.0000 0.72976  0.71150  0.70777  Biso   1.000  H
  H101     1.0000 0.72969  0.71150  0.70777  Biso   1.000  H
  H102     1.0000 0.74314  0.65282  0.77917  Biso   1.000  H
  C115     1.0000 0.92920  0.75616  0.51535  Biso   1.000  C
  H103     1.0000 0.00002  0.81410  0.49998  Biso   1.000  H
  H104     1.0000 0.13137  0.80970  0.47088  Biso   1.000  H
  H105     1.0000 0.77871  0.65722  0.42888  Biso   1.000  H
  H106     1.0000 0.87577  0.64860  0.41978  Biso   1.000  H
  C116     1.0000 0.83896  0.63228  0.50342  Biso   1.000  C
  H107     1.0000 0.80120  0.70071  0.51901  Biso   1.000  H
  O27      1.0000 0.74076  0.74006  0.60483  Biso   1.000  O
  O28      1.0000 0.85939  0.78018  0.53178  Biso   1.000  O
  H108     1.0000 0.88920  0.61312  0.51178  Biso   1.000  H
  H109     1.0000 0.79120  0.61560  0.52049  Biso   1.000  H
  H110     1.0000 0.76793  0.75141  0.57730  Biso   1.000  H
  H111     1.0000 0.86862  0.80970  0.52908  Biso   1.000  H
  C117     1.0000 0.42920  0.25615  0.51535  Biso   1.000  C
  H112     1.0000 0.36862  0.30972  0.52908  Biso   1.000  H
  C118     1.0000 0.42753  0.20687  0.51566  Biso   1.000  C
  O29      1.0000 0.35939  0.28016  0.53178  Biso   1.000  O
  C119     1.0000 0.50002  0.28038  0.49998  Biso   1.000  C
  C120     1.0000 0.34901  0.18086  0.53295  Biso   1.000  C
  C121     1.0000 0.50002  0.18352  0.49998  Biso   1.000  C
  C122     1.0000 0.57085  0.25615  0.48464  Biso   1.000  C
  H113     1.0000 0.50002  0.31412  0.49998  Biso   1.000  H
  C123     1.0000 0.33896  0.13230  0.50342  Biso   1.000  C
  H114     1.0000 0.30120  0.20070  0.51901  Biso   1.000  H
  C124     1.0000 0.34033  0.17579  0.59891  Biso   1.000  C
  C125     1.0000 0.34033  0.17583  0.59891  Biso   1.000  C
  C126     1.0000 0.57246  0.20687  0.48429  Biso   1.000  C
  H115     1.0000 0.50002  0.14982  0.49998  Biso   1.000  H
  O30      1.0000 0.64066  0.28020  0.46822  Biso   1.000  O
  C127     1.0000 0.32549  0.13538  0.43768  Biso   1.000  C
  H116     1.0000 0.38920  0.11310  0.51178  Biso   1.000  H
  H117     1.0000 0.29120  0.11562  0.52049  Biso   1.000  H
  C128     1.0000 0.38393  0.14138  0.63023  Biso   1.000  C
  C129     1.0000 0.28404  0.20321  0.62962  Biso   1.000  C
  C130     1.0000 0.65104  0.18086  0.46700  Biso   1.000  C
  H118     1.0000 0.63143  0.30972  0.47088  Biso   1.000  H
  C131     1.0000 0.30679  0.08706  0.41119  Biso   1.000  C
  H119     1.0000 0.27871  0.15720  0.42888  Biso   1.000  H
  H120     1.0000 0.37584  0.14861  0.41978  Biso   1.000  H
  H121     1.0000 0.42492  0.12371  0.61050  Biso   1.000  H
  C132     1.0000 0.37144  0.13109  0.68865  Biso   1.000  C
  C133     1.0000 0.26923  0.19317  0.68747  Biso   1.000  C
  O31      1.0000 0.24076  0.24004  0.60483  Biso   1.000  O
  O32      1.0000 0.24076  0.24008  0.60483  Biso   1.000  O
  C134     1.0000 0.65972  0.17579  0.40104  Biso   1.000  C
  C135     1.0000 0.65972  0.17583  0.40104  Biso   1.000  C
  H122     1.0000 0.69879  0.20070  0.48098  Biso   1.000  H
  C136     1.0000 0.66103  0.13230  0.49653  Biso   1.000  C
  C137     1.0000 0.27855  0.08997  0.34733  Biso   1.000  C
  H123     1.0000 0.26279  0.07152  0.43380  Biso   1.000  H
  H124     1.0000 0.35719  0.06712  0.41420  Biso   1.000  H
  C138     1.0000 0.41936  0.09146  0.71910  Biso   1.000  C
  C139     1.0000 0.31090  0.15699  0.71640  Biso   1.000  C
  H125     1.0000 0.22976  0.21152  0.70777  Biso   1.000  H
  H126     1.0000 0.26793  0.25143  0.57730  Biso   1.000  H
  C140     1.0000 0.61612  0.14138  0.36972  Biso   1.000  C
  C141     1.0000 0.71601  0.20321  0.37033  Biso   1.000  C
  C142     1.0000 0.67450  0.13538  0.56231  Biso   1.000  C
  H127     1.0000 0.61078  0.11310  0.48821  Biso   1.000  H
  H128     1.0000 0.70879  0.11562  0.47950  Biso   1.000  H
  C143     1.0000 0.34578  0.10689  0.30677  Biso   1.000  C
  H129     1.0000 0.23320  0.11410  0.34520  Biso   1.000  H
  C144     1.0000 0.24125  0.04364  0.32546  Biso   1.000  C
  C145     1.0000 0.24125  0.04367  0.32546  Biso   1.000  C
  C146     1.0000 0.51009  0.10491  0.72672  Biso   1.000  C
  H130     1.0000 0.39621  0.08820  0.75900  Biso   1.000  H
  C147     1.0000 0.40316  0.04428  0.68738  Biso   1.000  C
  C148     1.0000 0.40316  0.04431  0.68738  Biso   1.000  C
  O33      1.0000 0.29302  0.14631  0.77299  Biso   1.000  O
  C149     1.0000 0.62861  0.13109  0.31135  Biso   1.000  C
  H131     1.0000 0.57513  0.12371  0.38950  Biso   1.000  H
  C150     1.0000 0.73082  0.19317  0.31252  Biso   1.000  C
  O34      1.0000 0.75930  0.24004  0.39516  Biso   1.000  O
  O35      1.0000 0.75930  0.24008  0.39516  Biso   1.000  O
  C151     1.0000 0.69326  0.08706  0.58880  Biso   1.000  C
  H132     1.0000 0.72128  0.15720  0.57107  Biso   1.000  H
  H133     1.0000 0.62421  0.14861  0.58018  Biso   1.000  H
  C152     1.0000 0.32576  0.13755  0.26077  Biso   1.000  C
  C153     1.0000 0.42799  0.09132  0.31126  Biso   1.000  C
  C154     1.0000 0.42799  0.09135  0.31126  Biso   1.000  C
  C155     1.0000 0.17298  0.04264  0.28630  Biso   1.000  C
  C156     1.0000 0.27338  0.00000  0.34254  Biso   1.000  C
  C157     1.0000 0.53394  0.13552  0.77233  Biso   1.000  C
  C158     1.0000 0.57200  0.09132  0.68873  Biso   1.000  C
  C159     1.0000 0.57200  0.09135  0.68873  Biso   1.000  C
  C160     1.0000 0.43331  0.00000  0.71914  Biso   1.000  C
  H134     1.0000 0.43021  0.04559  0.64909  Biso   1.000  H
  H135     1.0000 0.34271  0.04122  0.67998  Biso   1.000  H
  H136     1.0000 0.43021  0.04562  0.64909  Biso   1.000  H
  H137     1.0000 0.24314  0.15280  0.77917  Biso   1.000  H
  C161     1.0000 0.58069  0.09146  0.28085  Biso   1.000  C
  C162     1.0000 0.68909  0.15699  0.28360  Biso   1.000  C
  H138     1.0000 0.77029  0.21152  0.29218  Biso   1.000  H
  H139     1.0000 0.73213  0.25143  0.42269  Biso   1.000  H
  C163     1.0000 0.72144  0.08997  0.65266  Biso   1.000  C
  H140     1.0000 0.73720  0.07152  0.56619  Biso   1.000  H
  H141     1.0000 0.64280  0.06712  0.58579  Biso   1.000  H
  O36      1.0000 0.24496  0.15308  0.25537  Biso   1.000  O
  C164     1.0000 0.38517  0.15163  0.22191  Biso   1.000  C
  H142     1.0000 0.44248  0.07021  0.34210  Biso   1.000  H
  C165     1.0000 0.48996  0.10491  0.27327  Biso   1.000  C
  O37      1.0000 0.13479  0.08330  0.26608  Biso   1.000  O
  C166     1.0000 0.13981  0.00000  0.26791  Biso   1.000  C
  C167     1.0000 0.24125  0.95636  0.32546  Biso   1.000  C
  H143     1.0000 0.32090  0.00000  0.36780  Biso   1.000  H
  C168     1.0000 0.61488  0.15163  0.77808  Biso   1.000  C
  O38      1.0000 0.47420  0.14943  0.81028  Biso   1.000  O
  O39      1.0000 0.47420  0.14947  0.81028  Biso   1.000  O
  H144     1.0000 0.55751  0.07021  0.65789  Biso   1.000  H
  C169     1.0000 0.65427  0.10689  0.69322  Biso   1.000  C
  C170     1.0000 0.40316  0.95572  0.68738  Biso   1.000  C
  H145     1.0000 0.49473  0.00000  0.72141  Biso   1.000  H
  H146     1.0000 0.41241  0.00000  0.75939  Biso   1.000  H
  H147     1.0000 0.60378  0.08820  0.24099  Biso   1.000  H
  C171     1.0000 0.59682  0.04428  0.31257  Biso   1.000  C
  C172     1.0000 0.59682  0.04431  0.31257  Biso   1.000  C
  O40      1.0000 0.70697  0.14631  0.22701  Biso   1.000  O
  H148     1.0000 0.76679  0.11410  0.65480  Biso   1.000  H
  C173     1.0000 0.75880  0.04364  0.67453  Biso   1.000  C
  C174     1.0000 0.75880  0.04367  0.67453  Biso   1.000  C
  H149     1.0000 0.23742  0.16550  0.22239  Biso   1.000  H
  H150     1.0000 0.37043  0.17260  0.19098  Biso   1.000  H
  C175     1.0000 0.46611  0.13552  0.22766  Biso   1.000  C
  H151     1.0000 0.17181  0.10402  0.25920  Biso   1.000  H
  C176     1.0000 0.17298  0.95736  0.28630  Biso   1.000  C
  H152     1.0000 0.09302  0.00000  0.24199  Biso   1.000  H
  C177     1.0000 0.27855  0.91006  0.34733  Biso   1.000  C
  C178     1.0000 0.67423  0.13755  0.73922  Biso   1.000  C
  H153     1.0000 0.62962  0.17260  0.80897  Biso   1.000  H
  H154     1.0000 0.49635  0.16490  0.83776  Biso   1.000  H
  H155     1.0000 0.34271  0.95881  0.67998  Biso   1.000  H
  H156     1.0000 0.43021  0.95441  0.64909  Biso   1.000  H
  C179     1.0000 0.41936  0.90857  0.71910  Biso   1.000  C
  C180     1.0000 0.56667  0.00000  0.28085  Biso   1.000  C
  H157     1.0000 0.56978  0.04559  0.35090  Biso   1.000  H
  H158     1.0000 0.65728  0.04122  0.32002  Biso   1.000  H
  H159     1.0000 0.56978  0.04562  0.35090  Biso   1.000  H
  H160     1.0000 0.75691  0.15280  0.22078  Biso   1.000  H
  C181     1.0000 0.82701  0.04264  0.71370  Biso   1.000  C
  C182     1.0000 0.72660  0.00000  0.65746  Biso   1.000  C
  O41      1.0000 0.52585  0.14943  0.18972  Biso   1.000  O
  O42      1.0000 0.52585  0.14947  0.18972  Biso   1.000  O
  O43      1.0000 0.13479  0.91673  0.26608  Biso   1.000  O
  H161     1.0000 0.23320  0.88590  0.34520  Biso   1.000  H
  C183     1.0000 0.30679  0.91294  0.41119  Biso   1.000  C
  C184     1.0000 0.34578  0.89314  0.30677  Biso   1.000  C
  C185     1.0000 0.30679  0.91297  0.41119  Biso   1.000  C
  O44      1.0000 0.75509  0.15308  0.74463  Biso   1.000  O
  C186     1.0000 0.37144  0.86895  0.68865  Biso   1.000  C
  C187     1.0000 0.51009  0.89509  0.72672  Biso   1.000  C
  H162     1.0000 0.39621  0.91180  0.75900  Biso   1.000  H
  C188     1.0000 0.59682  0.95572  0.31257  Biso   1.000  C
  H163     1.0000 0.50532  0.00000  0.27859  Biso   1.000  H
  H164     1.0000 0.58758  0.00000  0.24060  Biso   1.000  H
  O45      1.0000 0.86520  0.08330  0.73391  Biso   1.000  O
  C189     1.0000 0.86024  0.00000  0.73208  Biso   1.000  C
  C190     1.0000 0.75880  0.95636  0.67453  Biso   1.000  C
  H165     1.0000 0.67909  0.00000  0.63219  Biso   1.000  H
  H166     1.0000 0.50370  0.16490  0.16219  Biso   1.000  H
  H167     1.0000 0.17181  0.89602  0.25920  Biso   1.000  H
  C191     1.0000 0.42799  0.90868  0.31126  Biso   1.000  C
  C192     1.0000 0.32576  0.86249  0.26077  Biso   1.000  C
  H168     1.0000 0.26279  0.92851  0.43380  Biso   1.000  H
  H169     1.0000 0.35719  0.93291  0.41420  Biso   1.000  H
  C193     1.0000 0.32549  0.86462  0.43768  Biso   1.000  C
  H170     1.0000 0.76263  0.16550  0.77760  Biso   1.000  H
  C194     1.0000 0.38393  0.85862  0.63023  Biso   1.000  C
  C195     1.0000 0.31090  0.84301  0.71640  Biso   1.000  C
  C196     1.0000 0.57200  0.90868  0.68873  Biso   1.000  C
  C197     1.0000 0.53394  0.86451  0.77233  Biso   1.000  C
  H171     1.0000 0.65728  0.95881  0.32002  Biso   1.000  H
  H172     1.0000 0.56978  0.95441  0.35090  Biso   1.000  H
  C198     1.0000 0.58069  0.90857  0.28085  Biso   1.000  C
  H173     1.0000 0.82824  0.10402  0.74079  Biso   1.000  H
  C199     1.0000 0.82701  0.95736  0.71370  Biso   1.000  C
  H174     1.0000 0.90703  0.00000  0.75800  Biso   1.000  H
  C200     1.0000 0.72144  0.91006  0.65266  Biso   1.000  C
  H175     1.0000 0.44248  0.92979  0.34210  Biso   1.000  H
  C201     1.0000 0.48996  0.89509  0.27327  Biso   1.000  C
  H176     1.0000 0.44248  0.92983  0.34210  Biso   1.000  H
  O46      1.0000 0.24496  0.84692  0.25537  Biso   1.000  O
  C202     1.0000 0.38517  0.84837  0.22191  Biso   1.000  C
  H177     1.0000 0.27871  0.84280  0.42888  Biso   1.000  H
  H178     1.0000 0.37584  0.85139  0.41978  Biso   1.000  H
  H179     1.0000 0.37584  0.85142  0.41978  Biso   1.000  H
  C203     1.0000 0.33896  0.86774  0.50342  Biso   1.000  C
  C204     1.0000 0.34033  0.82421  0.59891  Biso   1.000  C
  H180     1.0000 0.42492  0.87633  0.61050  Biso   1.000  H
  C205     1.0000 0.26923  0.80683  0.68747  Biso   1.000  C
  O47      1.0000 0.29302  0.85369  0.77299  Biso   1.000  O
  H181     1.0000 0.55751  0.92979  0.65789  Biso   1.000  H
  H182     1.0000 0.55751  0.92983  0.65789  Biso   1.000  H
  C206     1.0000 0.65427  0.89314  0.69322  Biso   1.000  C
  O48      1.0000 0.47420  0.85057  0.81028  Biso   1.000  O
  C207     1.0000 0.61488  0.84837  0.77808  Biso   1.000  C
  H183     1.0000 0.60378  0.91180  0.24099  Biso   1.000  H
  C208     1.0000 0.62861  0.86895  0.31135  Biso   1.000  C
  O49      1.0000 0.86520  0.91673  0.73391  Biso   1.000  O
  C209     1.0000 0.69326  0.91294  0.58880  Biso   1.000  C
  C210     1.0000 0.69326  0.91297  0.58880  Biso   1.000  C
  H184     1.0000 0.76679  0.88590  0.65480  Biso   1.000  H
  C211     1.0000 0.46611  0.86451  0.22766  Biso   1.000  C
  H185     1.0000 0.23742  0.83450  0.22239  Biso   1.000  H
  H186     1.0000 0.37043  0.82740  0.19098  Biso   1.000  H
  H187     1.0000 0.38920  0.88690  0.51178  Biso   1.000  H
  H188     1.0000 0.29120  0.88441  0.52049  Biso   1.000  H
  C212     1.0000 0.34901  0.81917  0.53295  Biso   1.000  C
  C213     1.0000 0.28404  0.79682  0.62962  Biso   1.000  C
  H189     1.0000 0.22976  0.78852  0.70777  Biso   1.000  H
  H190     1.0000 0.24314  0.84720  0.77917  Biso   1.000  H
  C214     1.0000 0.67423  0.86249  0.73922  Biso   1.000  C
  H191     1.0000 0.49635  0.83510  0.83776  Biso   1.000  H
  H192     1.0000 0.62962  0.82740  0.80897  Biso   1.000  H
  C215     1.0000 0.61612  0.85862  0.36972  Biso   1.000  C
  C216     1.0000 0.68909  0.84301  0.28360  Biso   1.000  C
  H193     1.0000 0.82824  0.89602  0.74079  Biso   1.000  H
  C217     1.0000 0.67450  0.86462  0.56231  Biso   1.000  C
  H194     1.0000 0.73720  0.92851  0.56619  Biso   1.000  H
  H195     1.0000 0.64280  0.93291  0.58579  Biso   1.000  H
  O50      1.0000 0.52585  0.85057  0.18972  Biso   1.000  O
  H196     1.0000 0.30120  0.79930  0.51901  Biso   1.000  H
  C218     1.0000 0.42753  0.79313  0.51566  Biso   1.000  C
  C219     1.0000 0.42753  0.79317  0.51566  Biso   1.000  C
  O51      1.0000 0.24076  0.75996  0.60483  Biso   1.000  O
  O52      1.0000 0.75509  0.84692  0.74463  Biso   1.000  O
  C220     1.0000 0.65972  0.82421  0.40104  Biso   1.000  C
  H197     1.0000 0.57513  0.87633  0.38950  Biso   1.000  H
  O53      1.0000 0.70697  0.85369  0.22701  Biso   1.000  O
  C221     1.0000 0.73082  0.80683  0.31252  Biso   1.000  C
  C222     1.0000 0.66103  0.86774  0.49653  Biso   1.000  C
  H198     1.0000 0.72128  0.84280  0.57107  Biso   1.000  H
  H199     1.0000 0.62421  0.85139  0.58018  Biso   1.000  H
  H200     1.0000 0.62421  0.85142  0.58018  Biso   1.000  H
  H201     1.0000 0.50370  0.83510  0.16219  Biso   1.000  H
  C223     1.0000 0.50002  0.81648  0.49998  Biso   1.000  C
  C224     1.0000 0.42920  0.74385  0.51535  Biso   1.000  C
  C225     1.0000 0.50002  0.81651  0.49998  Biso   1.000  C
  H202     1.0000 0.26793  0.74861  0.57730  Biso   1.000  H
  H203     1.0000 0.76263  0.83450  0.77760  Biso   1.000  H
  C226     1.0000 0.71601  0.79682  0.37033  Biso   1.000  C
  C227     1.0000 0.65104  0.81917  0.46700  Biso   1.000  C
  H204     1.0000 0.75691  0.84720  0.22078  Biso   1.000  H
  H205     1.0000 0.77029  0.78852  0.29218  Biso   1.000  H
  H206     1.0000 0.61078  0.88690  0.48821  Biso   1.000  H
  H207     1.0000 0.70879  0.88441  0.47950  Biso   1.000  H
  H208     1.0000 0.50002  0.85021  0.49998  Biso   1.000  H
  C228     1.0000 0.57246  0.79313  0.48429  Biso   1.000  C
  C229     1.0000 0.57246  0.79317  0.48429  Biso   1.000  C
  C230     1.0000 0.50002  0.71966  0.49998  Biso   1.000  C
  O54      1.0000 0.35939  0.71984  0.53178  Biso   1.000  O
  O55      1.0000 0.75930  0.75996  0.39516  Biso   1.000  O
  H209     1.0000 0.69879  0.79930  0.48098  Biso   1.000  H
  C231     1.0000 0.57085  0.74385  0.48464  Biso   1.000  C
  H210     1.0000 0.50002  0.68592  0.49998  Biso   1.000  H
  H211     1.0000 0.36862  0.69028  0.52908  Biso   1.000  H
  H212     1.0000 0.36862  0.69032  0.52908  Biso   1.000  H
  H213     1.0000 0.73213  0.74861  0.42269  Biso   1.000  H
  O56      1.0000 0.64066  0.71984  0.46822  Biso   1.000  O
  H214     1.0000 0.63143  0.69028  0.47088  Biso   1.000  H
  H215     1.0000 0.63143  0.69032  0.47088  Biso   1.000  H
