data_image0
_cell_length_a       15.299
_cell_length_b       15.677
_cell_length_c       19.052
_cell_angle_alpha    99.48
_cell_angle_beta     111.68
_cell_angle_gamma    100.23

_symmetry_space_group_name_H-M    "P 1"
_symmetry_int_tables_number       1

loop_
  _symmetry_equiv_pos_as_xyz
  'x, y, z'

loop_
  _atom_site_label
  _atom_site_occupancy
  _atom_site_fract_x
  _atom_site_fract_y
  _atom_site_fract_z
  _atom_site_thermal_displace_type
  _atom_site_B_iso_or_equiv
  _atom_site_type_symbol
  C1       1.0000 0.84380  0.21806  0.42840  Biso   1.000  C
  C2       1.0000 0.75213  0.21045  0.35632  Biso   1.000  C
  H1       1.0000 0.85919  0.15924  0.42560  Biso   1.000  H
  H2       1.0000 0.83061  0.23303  0.47550  Biso   1.000  H
  C3       1.0000 0.93285  0.28892  0.43721  Biso   1.000  C
  C4       1.0000 0.93278  0.28892  0.43721  Biso   1.000  C
  C5       1.0000 0.66121  0.15629  0.36069  Biso   1.000  C
  C6       1.0000 0.75518  0.17491  0.27799  Biso   1.000  C
  H3       1.0000 0.74429  0.27259  0.35760  Biso   1.000  H
  H4       1.0000 0.91646  0.34727  0.43634  Biso   1.000  H
  H5       1.0000 0.94987  0.27172  0.39250  Biso   1.000  H
  H6       1.0000 0.91639  0.34727  0.43634  Biso   1.000  H
  C7       1.0000 0.01961  0.29922  0.51233  Biso   1.000  C
  C8       1.0000 0.57755  0.18691  0.34733  Biso   1.000  C
  C9       1.0000 0.57749  0.18691  0.34733  Biso   1.000  C
  C10      1.0000 0.65900  0.07416  0.37972  Biso   1.000  C
  C11      1.0000 0.80896  0.11511  0.26708  Biso   1.000  C
  C12      1.0000 0.70148  0.19912  0.21192  Biso   1.000  C
  H7       1.0000 0.99931  0.30831  0.55610  Biso   1.000  H
  H8       1.0000 0.04009  0.24274  0.50999  Biso   1.000  H
  C13      1.0000 0.10689  0.37636  0.52960  Biso   1.000  C
  C14      1.0000 0.49775  0.13860  0.35509  Biso   1.000  C
  O1       1.0000 0.56987  0.26784  0.32859  Biso   1.000  O
  C15      1.0000 0.58053  0.02326  0.38842  Biso   1.000  C
  C16      1.0000 0.58045  0.02320  0.38842  Biso   1.000  C
  H9       1.0000 0.71439  0.05120  0.38731  Biso   1.000  H
  C17      1.0000 0.80980  0.07644  0.19541  Biso   1.000  C
  H10      1.0000 0.84854  0.09906  0.31202  Biso   1.000  H
  H11      1.0000 0.84847  0.09899  0.31202  Biso   1.000  H
  O2       1.0000 0.64684  0.25861  0.21951  Biso   1.000  O
  O3       1.0000 0.64677  0.25861  0.21951  Biso   1.000  O
  C18      1.0000 0.69808  0.16463  0.13902  Biso   1.000  C
  C19      1.0000 0.18481  0.39612  0.61301  Biso   1.000  C
  C20      1.0000 0.15399  0.36593  0.47130  Biso   1.000  C
  H12      1.0000 0.08190  0.43083  0.52563  Biso   1.000  H
  C21      1.0000 0.49801  0.05731  0.37459  Biso   1.000  C
  C22      1.0000 0.49794  0.05731  0.37459  Biso   1.000  C
  H13      1.0000 0.44237  0.16165  0.34692  Biso   1.000  H
  H14      1.0000 0.60762  0.28182  0.30723  Biso   1.000  H
  C23      1.0000 0.58280  0.93454  0.41112  Biso   1.000  C
  C24      1.0000 0.58274  0.93454  0.41112  Biso   1.000  C
  C25      1.0000 0.87040  0.01222  0.18560  Biso   1.000  C
  C26      1.0000 0.75171  0.10449  0.13120  Biso   1.000  C
  H15      1.0000 0.60987  0.26142  0.17498  Biso   1.000  H
  H16      1.0000 0.65931  0.18210  0.09473  Biso   1.000  H
  C27      1.0000 0.20936  0.32753  0.64861  Biso   1.000  C
  C28      1.0000 0.20929  0.32753  0.64861  Biso   1.000  C
  C29      1.0000 0.23659  0.48334  0.65754  Biso   1.000  C
  C30      1.0000 0.16783  0.28344  0.44223  Biso   1.000  C
  C31      1.0000 0.18668  0.43870  0.44748  Biso   1.000  C
  O4       1.0000 0.41592  0.01315  0.37943  Biso   1.000  O
  H17      1.0000 0.52827  0.91982  0.42770  Biso   1.000  H
  C32      1.0000 0.56193  0.85931  0.34009  Biso   1.000  C
  C33      1.0000 0.67766  0.94414  0.48180  Biso   1.000  C
  H18      1.0000 0.52820  0.91982  0.42770  Biso   1.000  H
  C34      1.0000 0.88004  0.94841  0.23819  Biso   1.000  C
  H19      1.0000 0.83511  0.97409  0.13080  Biso   1.000  H
  C35      1.0000 0.96963  0.06274  0.19220  Biso   1.000  C
  C36      1.0000 0.96955  0.06268  0.19220  Biso   1.000  C
  O5       1.0000 0.75012  0.06681  0.05982  Biso   1.000  O
  H20      1.0000 0.17652  0.26754  0.61913  Biso   1.000  H
  C37      1.0000 0.27809  0.34119  0.72413  Biso   1.000  C
  O6       1.0000 0.22171  0.55812  0.62900  Biso   1.000  O
  C38      1.0000 0.30634  0.50026  0.73312  Biso   1.000  C
  H21      1.0000 0.14302  0.23251  0.45688  Biso   1.000  H
  H22      1.0000 0.14295  0.23251  0.45688  Biso   1.000  H
  C39      1.0000 0.21567  0.27150  0.39309  Biso   1.000  C
  O7       1.0000 0.16942  0.51934  0.47328  Biso   1.000  O
  C40      1.0000 0.23485  0.43185  0.39863  Biso   1.000  C
  C41      1.0000 0.23479  0.43185  0.39863  Biso   1.000  C
  H23      1.0000 0.39677  0.96065  0.35118  Biso   1.000  H
  C42      1.0000 0.63512  0.83201  0.32258  Biso   1.000  C
  C43      1.0000 0.46825  0.81861  0.28698  Biso   1.000  C
  H24      1.0000 0.73226  0.95412  0.46540  Biso   1.000  H
  H25      1.0000 0.68848  0.99826  0.52213  Biso   1.000  H
  C44      1.0000 0.68143  0.86382  0.51921  Biso   1.000  C
  C45      1.0000 0.78268  0.88082  0.21852  Biso   1.000  C
  C46      1.0000 0.78261  0.88082  0.21852  Biso   1.000  C
  H26      1.0000 0.92778  0.91510  0.23352  Biso   1.000  H
  H27      1.0000 0.90589  0.98360  0.29311  Biso   1.000  H
  H28      1.0000 0.92772  0.91510  0.23352  Biso   1.000  H
  H29      1.0000 0.90583  0.98360  0.29311  Biso   1.000  H
  C47      1.0000 0.98806  0.06842  0.12572  Biso   1.000  C
  C48      1.0000 0.04716  0.10120  0.26381  Biso   1.000  C
  H30      1.0000 0.71000  0.08349  0.02469  Biso   1.000  H
  C49      1.0000 0.29847  0.26214  0.75991  Biso   1.000  C
  C50      1.0000 0.32610  0.43005  0.76563  Biso   1.000  C
  H31      1.0000 0.19125  0.54217  0.58032  Biso   1.000  H
  H32      1.0000 0.34027  0.56019  0.76242  Biso   1.000  H
  H33      1.0000 0.34020  0.56019  0.76242  Biso   1.000  H
  C51      1.0000 0.25183  0.34896  0.37313  Biso   1.000  C
  C52      1.0000 0.22416  0.18160  0.35632  Biso   1.000  C
  H34      1.0000 0.19464  0.55905  0.45682  Biso   1.000  H
  H35      1.0000 0.25631  0.48261  0.38229  Biso   1.000  H
  C53      1.0000 0.61867  0.77003  0.25523  Biso   1.000  C
  H36      1.0000 0.70062  0.85750  0.35941  Biso   1.000  H
  C54      1.0000 0.44795  0.75578  0.21939  Biso   1.000  C
  O8       1.0000 0.39343  0.84274  0.30361  Biso   1.000  O
  H37      1.0000 0.68349  0.81181  0.48303  Biso   1.000  H
  C55      1.0000 0.77026  0.88763  0.59532  Biso   1.000  C
  H38      1.0000 0.68342  0.81181  0.48303  Biso   1.000  H
  H39      1.0000 0.62203  0.84696  0.52861  Biso   1.000  H
  C56      1.0000 0.79405  0.81263  0.26538  Biso   1.000  C
  H40      1.0000 0.75376  0.84970  0.16243  Biso   1.000  H
  H41      1.0000 0.73706  0.91383  0.22821  Biso   1.000  H
  O9       1.0000 0.91625  0.03319  0.05049  Biso   1.000  O
  C57      1.0000 0.07886  0.10992  0.13319  Biso   1.000  C
  H42      1.0000 0.03549  0.09935  0.30922  Biso   1.000  H
  C58      1.0000 0.14107  0.14284  0.27443  Biso   1.000  C
  C59      1.0000 0.38143  0.23003  0.74479  Biso   1.000  C
  H43      1.0000 0.32304  0.28558  0.81769  Biso   1.000  H
  C60      1.0000 0.20606  0.18749  0.73464  Biso   1.000  C
  C61      1.0000 0.38136  0.23003  0.74479  Biso   1.000  C
  H44      1.0000 0.32298  0.28558  0.81769  Biso   1.000  H
  C62      1.0000 0.20599  0.18743  0.73464  Biso   1.000  C
  O10      1.0000 0.39452  0.45325  0.84209  Biso   1.000  O
  O11      1.0000 0.30102  0.34113  0.32673  Biso   1.000  O
  H45      1.0000 0.28630  0.19343  0.34902  Biso   1.000  H
  C63      1.0000 0.22978  0.11243  0.40470  Biso   1.000  C
  C64      1.0000 0.52227  0.73304  0.20352  Biso   1.000  C
  C65      1.0000 0.70150  0.73792  0.24011  Biso   1.000  C
  H46      1.0000 0.34525  0.83659  0.26171  Biso   1.000  H
  H47      1.0000 0.38226  0.72828  0.18367  Biso   1.000  H
  H48      1.0000 0.38220  0.72828  0.18367  Biso   1.000  H
  H49      1.0000 0.82883  0.89723  0.58388  Biso   1.000  H
  H50      1.0000 0.77248  0.94513  0.62742  Biso   1.000  H
  C66      1.0000 0.77581  0.81845  0.64371  Biso   1.000  C
  H51      1.0000 0.81485  0.84309  0.32101  Biso   1.000  H
  H52      1.0000 0.84621  0.78559  0.26130  Biso   1.000  H
  C67      1.0000 0.15430  0.14693  0.20539  Biso   1.000  C
  H53      1.0000 0.08996  0.11312  0.08772  Biso   1.000  H
  C68      1.0000 0.36492  0.16805  0.67744  Biso   1.000  C
  C69      1.0000 0.47785  0.26708  0.79650  Biso   1.000  C
  C70      1.0000 0.47778  0.26708  0.79650  Biso   1.000  C
  C71      1.0000 0.21736  0.11924  0.78150  Biso   1.000  C
  H54      1.0000 0.15383  0.21447  0.73872  Biso   1.000  H
  H55      1.0000 0.18518  0.15696  0.67902  Biso   1.000  H
  H56      1.0000 0.42497  0.41365  0.84950  Biso   1.000  H
  H57      1.0000 0.32054  0.39161  0.32019  Biso   1.000  H
  H58      1.0000 0.32047  0.39161  0.32019  Biso   1.000  H
  C72      1.0000 0.31861  0.13624  0.48081  Biso   1.000  C
  H59      1.0000 0.17117  0.10282  0.41608  Biso   1.000  H
  H60      1.0000 0.22762  0.05492  0.37260  Biso   1.000  H
  H61      1.0000 0.22756  0.05492  0.37260  Biso   1.000  H
  O12      1.0000 0.50391  0.67101  0.13488  Biso   1.000  O
  H62      1.0000 0.67707  0.71454  0.18233  Biso   1.000  H
  C73      1.0000 0.72195  0.65894  0.27589  Biso   1.000  C
  C74      1.0000 0.72189  0.65894  0.27589  Biso   1.000  C
  C75      1.0000 0.78436  0.72855  0.60694  Biso   1.000  C
  H63      1.0000 0.71374  0.80663  0.65100  Biso   1.000  H
  C76      1.0000 0.85897  0.85722  0.72559  Biso   1.000  C
  C77      1.0000 0.85890  0.85722  0.72559  Biso   1.000  C
  O13      1.0000 0.24471  0.18732  0.20790  Biso   1.000  O
  H64      1.0000 0.29941  0.14256  0.64061  Biso   1.000  H
  C78      1.0000 0.43811  0.14075  0.65993  Biso   1.000  C
  O14      1.0000 0.49612  0.32905  0.86514  Biso   1.000  O
  C79      1.0000 0.55209  0.24428  0.78063  Biso   1.000  C
  C80      1.0000 0.12006  0.05165  0.76184  Biso   1.000  C
  C81      1.0000 0.11999  0.05165  0.76184  Biso   1.000  C
  H65      1.0000 0.24628  0.15036  0.83759  Biso   1.000  H
  H66      1.0000 0.26298  0.08623  0.77182  Biso   1.000  H
  H67      1.0000 0.31661  0.18824  0.51700  Biso   1.000  H
  H68      1.0000 0.37802  0.15316  0.47141  Biso   1.000  H
  C82      1.0000 0.32238  0.05591  0.51822  Biso   1.000  C
  H69      1.0000 0.44413  0.64530  0.11229  Biso   1.000  H
  C83      1.0000 0.79074  0.67253  0.35141  Biso   1.000  C
  C84      1.0000 0.67393  0.57000  0.23439  Biso   1.000  C
  C85      1.0000 0.83220  0.71662  0.55779  Biso   1.000  C
  C86      1.0000 0.74822  0.65116  0.62690  Biso   1.000  C
  C87      1.0000 0.95288  0.89886  0.73621  Biso   1.000  C
  C88      1.0000 0.84581  0.85320  0.79464  Biso   1.000  C
  C89      1.0000 0.84574  0.85313  0.79464  Biso   1.000  C
  H70      1.0000 0.27510  0.22922  0.24858  Biso   1.000  H
  C90      1.0000 0.41730  0.06552  0.58890  Biso   1.000  C
  C91      1.0000 0.53175  0.18143  0.71298  Biso   1.000  C
  H71      1.0000 0.55590  0.35476  0.88773  Biso   1.000  H
  H72      1.0000 0.61781  0.27176  0.81629  Biso   1.000  H
  C92      1.0000 0.12970  0.98784  0.81442  Biso   1.000  C
  C93      1.0000 0.12963  0.98784  0.81442  Biso   1.000  C
  H73      1.0000 0.07232  0.08496  0.76650  Biso   1.000  H
  H74      1.0000 0.09421  0.01646  0.70691  Biso   1.000  H
  H75      1.0000 0.31162  0.00180  0.47789  Biso   1.000  H
  H76      1.0000 0.26778  0.04594  0.53462  Biso   1.000  H
  H77      1.0000 0.31156  0.00180  0.47789  Biso   1.000  H
  H78      1.0000 0.82352  0.73252  0.38089  Biso   1.000  H
  C94      1.0000 0.81523  0.60394  0.38702  Biso   1.000  C
  O15      1.0000 0.60549  0.54679  0.15788  Biso   1.000  O
  C95      1.0000 0.69370  0.49980  0.26690  Biso   1.000  C
  C96      1.0000 0.84604  0.63413  0.52873  Biso   1.000  C
  H79      1.0000 0.85699  0.76753  0.54308  Biso   1.000  H
  O16      1.0000 0.69901  0.65893  0.67330  Biso   1.000  O
  C97      1.0000 0.76518  0.56821  0.60139  Biso   1.000  C
  H80      1.0000 0.96456  0.90077  0.69081  Biso   1.000  H
  C98      1.0000 0.03048  0.93738  0.80783  Biso   1.000  C
  O17      1.0000 0.75539  0.81274  0.79213  Biso   1.000  O
  C99      1.0000 0.92118  0.89014  0.86683  Biso   1.000  C
  O18      1.0000 0.75533  0.81274  0.79213  Biso   1.000  O
  C100     1.0000 0.41958  0.97686  0.61160  Biso   1.000  C
  C101     1.0000 0.41952  0.97686  0.61160  Biso   1.000  C
  H81      1.0000 0.47177  0.08024  0.57232  Biso   1.000  H
  O19      1.0000 0.60661  0.15732  0.69641  Biso   1.000  O
  C102     1.0000 0.19025  0.92368  0.80462  Biso   1.000  C
  H82      1.0000 0.16492  0.02597  0.86923  Biso   1.000  H
  C103     1.0000 0.76338  0.51672  0.34248  Biso   1.000  C
  C104     1.0000 0.89314  0.62370  0.47042  Biso   1.000  C
  H83      1.0000 0.57506  0.58641  0.15052  Biso   1.000  H
  H84      1.0000 0.57500  0.58641  0.15052  Biso   1.000  H
  H85      1.0000 0.65984  0.43993  0.23760  Biso   1.000  H
  C105     1.0000 0.81333  0.56134  0.55248  Biso   1.000  C
  H86      1.0000 0.67956  0.60845  0.67983  Biso   1.000  H
  H87      1.0000 0.74372  0.51745  0.61773  Biso   1.000  H
  C106     1.0000 0.01191  0.93164  0.87430  Biso   1.000  C
  H88      1.0000 0.91007  0.88694  0.91230  Biso   1.000  H
  H89      1.0000 0.91001  0.88694  0.91230  Biso   1.000  H
  H90      1.0000 0.72491  0.77082  0.75139  Biso   1.000  H
  C107     1.0000 0.34105  0.92596  0.62030  Biso   1.000  C
  C108     1.0000 0.50210  0.94275  0.62544  Biso   1.000  C
  C109     1.0000 0.50203  0.94275  0.62544  Biso   1.000  C
  H91      1.0000 0.65485  0.16347  0.73831  Biso   1.000  H
  H92      1.0000 0.65479  0.16347  0.73831  Biso   1.000  H
  C110     1.0000 0.19105  0.88493  0.73289  Biso   1.000  C
  C111     1.0000 0.24839  0.89557  0.86882  Biso   1.000  C
  C112     1.0000 0.24833  0.89557  0.86882  Biso   1.000  C
  O20      1.0000 0.77832  0.44194  0.37102  Biso   1.000  O
  H93      1.0000 0.91813  0.56923  0.47439  Biso   1.000  H
  C113     1.0000 0.98043  0.70083  0.48770  Biso   1.000  C
  O21      1.0000 0.83058  0.48070  0.52668  Biso   1.000  O
  O22      1.0000 0.08378  0.96686  0.94954  Biso   1.000  O
  C114     1.0000 0.33889  0.84376  0.63933  Biso   1.000  C
  C115     1.0000 0.33883  0.84376  0.63933  Biso   1.000  C
  H94      1.0000 0.28564  0.94886  0.61271  Biso   1.000  H
  C116     1.0000 0.50228  0.86146  0.64493  Biso   1.000  C
  O23      1.0000 0.58418  0.98691  0.62059  Biso   1.000  O
  O24      1.0000 0.58412  0.98691  0.62059  Biso   1.000  O
  H95      1.0000 0.15157  0.90107  0.68800  Biso   1.000  H
  C117     1.0000 0.24485  0.82515  0.72203  Biso   1.000  C
  C118     1.0000 0.30196  0.83543  0.86100  Biso   1.000  C
  O25      1.0000 0.24992  0.93325  0.94020  Biso   1.000  O
  H96      1.0000 0.80880  0.45795  0.41970  Biso   1.000  H
  H97      1.0000 0.95995  0.75732  0.49003  Biso   1.000  H
  C119     1.0000 0.06725  0.71114  0.56281  Biso   1.000  C
  H98      1.0000 0.00073  0.69175  0.44392  Biso   1.000  H
  H99      1.0000 0.80540  0.44101  0.54320  Biso   1.000  H
  C120     1.0000 0.24799  0.78968  0.64371  Biso   1.000  C
  C121     1.0000 0.24791  0.78961  0.64371  Biso   1.000  C
  C122     1.0000 0.42255  0.81314  0.65269  Biso   1.000  C
  H100     1.0000 0.55768  0.83848  0.65310  Biso   1.000  H
  H101     1.0000 0.55760  0.83841  0.65310  Biso   1.000  H
  H102     1.0000 0.60332  0.03946  0.64878  Biso   1.000  H
  H103     1.0000 0.60325  0.03946  0.64878  Biso   1.000  H
  C123     1.0000 0.29856  0.80094  0.78810  Biso   1.000  C
  H104     1.0000 0.29011  0.91657  0.97533  Biso   1.000  H
  H105     1.0000 0.29004  0.91657  0.97533  Biso   1.000  H
  H106     1.0000 0.34073  0.81796  0.90530  Biso   1.000  H
  H107     1.0000 0.05017  0.72833  0.60752  Biso   1.000  H
  H108     1.0000 0.08365  0.65286  0.56369  Biso   1.000  H
  C124     1.0000 0.15625  0.78207  0.57162  Biso   1.000  C
  H109     1.0000 0.25575  0.72747  0.64242  Biso   1.000  H
  O26      1.0000 0.43017  0.73222  0.67143  Biso   1.000  O
  O27      1.0000 0.35326  0.74145  0.78051  Biso   1.000  O
  H110     1.0000 0.14084  0.84082  0.57443  Biso   1.000  H
  H111     1.0000 0.16943  0.76703  0.52452  Biso   1.000  H
  H112     1.0000 0.39248  0.71824  0.69279  Biso   1.000  H
  H113     1.0000 0.39241  0.71824  0.69279  Biso   1.000  H
  H114     1.0000 0.39015  0.73868  0.82499  Biso   1.000  H
  H115     1.0000 0.39014  0.73862  0.82499  Biso   1.000  H
  Ne1      1.0000 0.00612  0.00493  0.50995  Biso   1.000  Ne
  He1      1.0000 0.94961  0.07025  0.56383  Biso   1.000  He
  He2      1.0000 0.24909  0.00739  0.68402  Biso   1.000  He
  He3      1.0000 0.99544  0.82118  0.62620  Biso   1.000  He
  He4      1.0000 0.26470  0.25770  0.56069  Biso   1.000  He
  He5      1.0000 0.06512  0.90714  0.41707  Biso   1.000  He
  He6      1.0000 0.73537  0.74235  0.43931  Biso   1.000  He
  He7      1.0000 0.97741  0.19651  0.32717  Biso   1.000  He
  He8      1.0000 0.70673  0.99492  0.28684  Biso   1.000  He
  Ar1      1.0000 0.00200  0.00439  0.50073  Biso   1.000  Ar
