data_image0
_cell_length_a       16.325
_cell_length_b       19.668
_cell_length_c       30.389
_cell_angle_alpha    104.01
_cell_angle_beta     92.69
_cell_angle_gamma    97.41

_symmetry_space_group_name_H-M    "P 1"
_symmetry_int_tables_number       1

loop_
  _symmetry_equiv_pos_as_xyz
  'x, y, z'

loop_
  _atom_site_label
  _atom_site_occupancy
  _atom_site_fract_x
  _atom_site_fract_y
  _atom_site_fract_z
  _atom_site_thermal_displace_type
  _atom_site_B_iso_or_equiv
  _atom_site_type_symbol
  O1       1.0000 0.55284  0.33028  0.68600  Biso   1.000  O
  C1       1.0000 0.63063  0.31679  0.69730  Biso   1.000  C
  H1       1.0000 0.55722  0.36875  0.67818  Biso   1.000  H
  C2       1.0000 0.63920  0.25378  0.70969  Biso   1.000  C
  C3       1.0000 0.70142  0.36507  0.69740  Biso   1.000  C
  C4       1.0000 0.56104  0.20304  0.71169  Biso   1.000  C
  C5       1.0000 0.71823  0.24346  0.72122  Biso   1.000  C
  C6       1.0000 0.77764  0.35215  0.70870  Biso   1.000  C
  H2       1.0000 0.69563  0.40806  0.68930  Biso   1.000  H
  C7       1.0000 0.57323  0.12507  0.70162  Biso   1.000  C
  C8       1.0000 0.52401  0.22576  0.75709  Biso   1.000  C
  H3       1.0000 0.51949  0.20738  0.68760  Biso   1.000  H
  C9       1.0000 0.78923  0.29056  0.72156  Biso   1.000  C
  H4       1.0000 0.72472  0.20089  0.72959  Biso   1.000  H
  O2       1.0000 0.84664  0.40025  0.70897  Biso   1.000  O
  C10      1.0000 0.58990  0.09297  0.65228  Biso   1.000  C
  H5       1.0000 0.62035  0.12047  0.72190  Biso   1.000  H
  H6       1.0000 0.52301  0.09738  0.70897  Biso   1.000  H
  C11      1.0000 0.55552  0.20746  0.79551  Biso   1.000  C
  C12      1.0000 0.45700  0.26447  0.76260  Biso   1.000  C
  C13      1.0000 0.87624  0.27749  0.73249  Biso   1.000  C
  H7       1.0000 0.85835  0.42655  0.73528  Biso   1.000  H
  C14      1.0000 0.58538  0.01367  0.64207  Biso   1.000  C
  H8       1.0000 0.54862  0.10505  0.63159  Biso   1.000  H
  H9       1.0000 0.64552  0.11399  0.64650  Biso   1.000  H
  H10      1.0000 0.60126  0.18175  0.79268  Biso   1.000  H
  C15      1.0000 0.52333  0.22485  0.83787  Biso   1.000  C
  O3       1.0000 0.41982  0.28195  0.72592  Biso   1.000  O
  C16      1.0000 0.42543  0.28307  0.80360  Biso   1.000  C
  C17      1.0000 0.91204  0.23905  0.68900  Biso   1.000  C
  H11      1.0000 0.91123  0.32467  0.74409  Biso   1.000  H
  C18      1.0000 0.88306  0.23636  0.76941  Biso   1.000  C
  C19      1.0000 0.59084  0.97723  0.59188  Biso   1.000  C
  H12      1.0000 0.63123  0.00235  0.66038  Biso   1.000  H
  H13      1.0000 0.53262  0.99374  0.65198  Biso   1.000  H
  C20      1.0000 0.45734  0.26417  0.84141  Biso   1.000  C
  C21      1.0000 0.55877  0.20054  0.87796  Biso   1.000  C
  H14      1.0000 0.45572  0.31045  0.71670  Biso   1.000  H
  H15      1.0000 0.38044  0.30956  0.80660  Biso   1.000  H
  C22      1.0000 0.89323  0.16809  0.67073  Biso   1.000  C
  C23      1.0000 0.96724  0.27759  0.66620  Biso   1.000  C
  C24      1.0000 0.86432  0.27685  0.81671  Biso   1.000  C
  H16      1.0000 0.84414  0.19145  0.76008  Biso   1.000  H
  H17      1.0000 0.93981  0.22406  0.77128  Biso   1.000  H
  C25      1.0000 0.67402  0.99536  0.57368  Biso   1.000  C
  H18      1.0000 0.54838  0.99435  0.57398  Biso   1.000  H
  C26      1.0000 0.56599  0.89735  0.58348  Biso   1.000  C
  O4       1.0000 0.42145  0.28457  0.88163  Biso   1.000  O
  C27      1.0000 0.57226  0.12315  0.86370  Biso   1.000  C
  C28      1.0000 0.63344  0.25236  0.90225  Biso   1.000  C
  H19      1.0000 0.51526  0.20295  0.90018  Biso   1.000  H
  C29      1.0000 0.92603  0.12988  0.63176  Biso   1.000  C
  H20      1.0000 0.85491  0.14228  0.68539  Biso   1.000  H
  C30      1.0000 0.99834  0.24176  0.62731  Biso   1.000  C
  O5       1.0000 0.98893  0.34866  0.68148  Biso   1.000  O
  C31      1.0000 0.88127  0.23759  0.85199  Biso   1.000  C
  H21      1.0000 0.89896  0.32406  0.82497  Biso   1.000  H
  H22      1.0000 0.80545  0.28425  0.81609  Biso   1.000  H
  C32      1.0000 0.67823  0.99055  0.52730  Biso   1.000  C
  C33      1.0000 0.74809  0.01457  0.60059  Biso   1.000  C
  C34      1.0000 0.60089  0.85925  0.61043  Biso   1.000  C
  C35      1.0000 0.50440  0.86006  0.54989  Biso   1.000  C
  H23      1.0000 0.45904  0.30086  0.90290  Biso   1.000  H
  C36      1.0000 0.58987  0.09115  0.90341  Biso   1.000  C
  H24      1.0000 0.52223  0.09508  0.84508  Biso   1.000  H
  H25      1.0000 0.61937  0.11948  0.84430  Biso   1.000  H
  C37      1.0000 0.71424  0.24356  0.89058  Biso   1.000  C
  C38      1.0000 0.62386  0.31236  0.93553  Biso   1.000  C
  C39      1.0000 0.90571  0.05118  0.61482  Biso   1.000  C
  C40      1.0000 0.97851  0.17026  0.60947  Biso   1.000  C
  H26      1.0000 0.03521  0.26798  0.61209  Biso   1.000  H
  H27      1.0000 0.01779  0.35796  0.70639  Biso   1.000  H
  C41      1.0000 0.87137  0.27674  0.90035  Biso   1.000  C
  H28      1.0000 0.93867  0.22637  0.85019  Biso   1.000  H
  H29      1.0000 0.84336  0.19214  0.84457  Biso   1.000  H
  C42      1.0000 0.75243  0.00379  0.50957  Biso   1.000  C
  O6       1.0000 0.60477  0.97054  0.49963  Biso   1.000  O
  C43      1.0000 0.82458  0.02766  0.58419  Biso   1.000  C
  H30      1.0000 0.74629  0.01906  0.63238  Biso   1.000  H
  H31      1.0000 0.64473  0.88381  0.63238  Biso   1.000  H
  C44      1.0000 0.57712  0.78854  0.60777  Biso   1.000  C
  O7       1.0000 0.46589  0.89007  0.51995  Biso   1.000  O
  C45      1.0000 0.47853  0.78882  0.54669  Biso   1.000  C
  C46      1.0000 0.58603  0.01127  0.88789  Biso   1.000  C
  H32      1.0000 0.64557  0.11237  0.91838  Biso   1.000  H
  H33      1.0000 0.54874  0.10268  0.92600  Biso   1.000  H
  C47      1.0000 0.78395  0.29106  0.91062  Biso   1.000  C
  H34      1.0000 0.72165  0.20278  0.86778  Biso   1.000  H
  C48      1.0000 0.69038  0.36224  0.95537  Biso   1.000  C
  O8       1.0000 0.54526  0.32114  0.94846  Biso   1.000  O
  H35      1.0000 0.95071  0.03568  0.59518  Biso   1.000  H
  C49      1.0000 0.90861  0.01316  0.65392  Biso   1.000  C
  O9       1.0000 0.01286  0.13958  0.56997  Biso   1.000  O
  C50      1.0000 0.90638  0.23935  0.93502  Biso   1.000  C
  H36      1.0000 0.90634  0.32414  0.90579  Biso   1.000  H
  C51      1.0000 0.82578  0.02228  0.53727  Biso   1.000  C
  H37      1.0000 0.75362  0.00010  0.47789  Biso   1.000  H
  H38      1.0000 0.61538  0.96352  0.47231  Biso   1.000  H
  C52      1.0000 0.51099  0.75364  0.57480  Biso   1.000  C
  C53      1.0000 0.61520  0.75053  0.63942  Biso   1.000  C
  H39      1.0000 0.50092  0.91813  0.51130  Biso   1.000  H
  H40      1.0000 0.43623  0.76394  0.52389  Biso   1.000  H
  H41      1.0000 0.63336  0.00067  0.86938  Biso   1.000  H
  C54      1.0000 0.58805  0.97305  0.92648  Biso   1.000  C
  H42      1.0000 0.53455  0.99163  0.86788  Biso   1.000  H
  C55      1.0000 0.76934  0.35215  0.94319  Biso   1.000  C
  H43      1.0000 0.68207  0.40363  0.97739  Biso   1.000  H
  H44      1.0000 0.54844  0.34536  0.97548  Biso   1.000  H
  H45      1.0000 0.96002  0.03320  0.67389  Biso   1.000  H
  H46      1.0000 0.86110  0.02308  0.67239  Biso   1.000  H
  C56      1.0000 0.90593  0.93435  0.63799  Biso   1.000  C
  H47      1.0000 0.97313  0.11377  0.55098  Biso   1.000  H
  C57      1.0000 0.88917  0.16725  0.92869  Biso   1.000  C
  C58      1.0000 0.95577  0.27885  0.97439  Biso   1.000  C
  O10      1.0000 0.90020  0.03478  0.51988  Biso   1.000  O
  O11      1.0000 0.48314  0.68324  0.57191  Biso   1.000  O
  H48      1.0000 0.58074  0.70304  0.63438  Biso   1.000  H
  C59      1.0000 0.70223  0.73756  0.62720  Biso   1.000  C
  C60      1.0000 0.60976  0.78984  0.68883  Biso   1.000  C
  C61      1.0000 0.55816  0.89452  0.90695  Biso   1.000  C
  H49      1.0000 0.54607  0.99143  0.94747  Biso   1.000  H
  C62      1.0000 0.67076  0.98860  0.95506  Biso   1.000  C
  O12      1.0000 0.83719  0.40228  0.96180  Biso   1.000  O
  H50      1.0000 0.94984  0.92396  0.61699  Biso   1.000  H
  H51      1.0000 0.85180  0.91332  0.62087  Biso   1.000  H
  C63      1.0000 0.91785  0.90006  0.67695  Biso   1.000  C
  H52      1.0000 0.85295  0.14128  0.90310  Biso   1.000  H
  C64      1.0000 0.92099  0.12978  0.95710  Biso   1.000  C
  O13      1.0000 0.97285  0.35147  0.98535  Biso   1.000  O
  C65      1.0000 0.98826  0.24320  0.00369  Biso   1.000  C
  H53      1.0000 0.91450  0.99605  0.50640  Biso   1.000  H
  H54      1.0000 0.43790  0.67085  0.55578  Biso   1.000  H
  C66      1.0000 0.77414  0.78226  0.64939  Biso   1.000  C
  C67      1.0000 0.71395  0.68295  0.59141  Biso   1.000  C
  H55      1.0000 0.55254  0.80082  0.69240  Biso   1.000  H
  H56      1.0000 0.64724  0.83543  0.69529  Biso   1.000  H
  C68      1.0000 0.63163  0.75043  0.72452  Biso   1.000  C
  C69      1.0000 0.60004  0.85421  0.87326  Biso   1.000  C
  C70      1.0000 0.48368  0.86043  0.91722  Biso   1.000  C
  C71      1.0000 0.74553  0.01056  0.93958  Biso   1.000  C
  C72      1.0000 0.67207  0.98004  0.99927  Biso   1.000  C
  H57      1.0000 0.87574  0.38194  0.96949  Biso   1.000  H
  C73      1.0000 0.93022  0.82305  0.66235  Biso   1.000  C
  H58      1.0000 0.86875  0.90351  0.69488  Biso   1.000  H
  H59      1.0000 0.96651  0.92703  0.69720  Biso   1.000  H
  C74      1.0000 0.90257  0.04926  0.94758  Biso   1.000  C
  C75      1.0000 0.97156  0.17083  0.99586  Biso   1.000  C
  H60      1.0000 0.02133  0.36373  0.97919  Biso   1.000  H
  H61      1.0000 0.02304  0.26944  0.02982  Biso   1.000  H
  C76      1.0000 0.85431  0.77386  0.63680  Biso   1.000  C
  H62      1.0000 0.76794  0.82057  0.67440  Biso   1.000  H
  C77      1.0000 0.79184  0.67102  0.57858  Biso   1.000  C
  O14      1.0000 0.64683  0.63773  0.56748  Biso   1.000  O
  H63      1.0000 0.60185  0.70142  0.71557  Biso   1.000  H
  H64      1.0000 0.69183  0.74804  0.72588  Biso   1.000  H
  C78      1.0000 0.60835  0.78751  0.77084  Biso   1.000  C
  C79      1.0000 0.57007  0.78593  0.84869  Biso   1.000  C
  H65      1.0000 0.65247  0.87511  0.86690  Biso   1.000  H
  C80      1.0000 0.45258  0.79164  0.89320  Biso   1.000  C
  O15      1.0000 0.43687  0.89225  0.94952  Biso   1.000  O
  C81      1.0000 0.82148  0.02508  0.96551  Biso   1.000  C
  H66      1.0000 0.74518  0.01617  0.90940  Biso   1.000  H
  C82      1.0000 0.74589  0.99540  0.02669  Biso   1.000  C
  O16      1.0000 0.59861  0.95736  0.01485  Biso   1.000  O
  H67      1.0000 0.97444  0.82066  0.64058  Biso   1.000  H
  C83      1.0000 0.96304  0.79663  0.70217  Biso   1.000  C
  C84      1.0000 0.90776  0.01358  0.89735  Biso   1.000  C
  H68      1.0000 0.94750  0.03416  0.96500  Biso   1.000  H
  O17      1.0000 0.00654  0.14065  0.02720  Biso   1.000  O
  C85      1.0000 0.86233  0.71846  0.60070  Biso   1.000  C
  H69      1.0000 0.79799  0.63086  0.55500  Biso   1.000  H
  H70      1.0000 0.66221  0.61104  0.54428  Biso   1.000  H
  C86      1.0000 0.61445  0.74813  0.80895  Biso   1.000  C
  H71      1.0000 0.55065  0.79724  0.76750  Biso   1.000  H
  H72      1.0000 0.64432  0.83392  0.78098  Biso   1.000  H
  C87      1.0000 0.49304  0.75526  0.85801  Biso   1.000  C
  H73      1.0000 0.40238  0.76924  0.90109  Biso   1.000  H
  H74      1.0000 0.44926  0.88273  0.97429  Biso   1.000  H
  C88      1.0000 0.81972  0.01752  0.01005  Biso   1.000  C
  H75      1.0000 0.74590  0.99060  0.05711  Biso   1.000  H
  H76      1.0000 0.60711  0.95439  0.04170  Biso   1.000  H
  C89      1.0000 0.93347  0.81573  0.74484  Biso   1.000  C
  C90      1.0000 0.02463  0.75414  0.69812  Biso   1.000  C
  C91      1.0000 0.90667  0.93372  0.88796  Biso   1.000  C
  H77      1.0000 0.86057  0.02314  0.87928  Biso   1.000  H
  H78      1.0000 0.95945  0.03464  0.88707  Biso   1.000  H
  H79      1.0000 0.97132  0.10951  0.03282  Biso   1.000  H
  O18      1.0000 0.93862  0.70623  0.58695  Biso   1.000  O
  C92      1.0000 0.70107  0.73764  0.82348  Biso   1.000  C
  H80      1.0000 0.58194  0.69985  0.79690  Biso   1.000  H
  O19      1.0000 0.45895  0.69039  0.83130  Biso   1.000  O
  O20      1.0000 0.89236  0.03209  0.03663  Biso   1.000  O
  H81      1.0000 0.89067  0.84465  0.74827  Biso   1.000  H
  C93      1.0000 0.96195  0.79543  0.78298  Biso   1.000  C
  O21      1.0000 0.05841  0.73345  0.65677  Biso   1.000  O
  C94      1.0000 0.05414  0.73134  0.73432  Biso   1.000  C
  C95      1.0000 0.91817  0.90015  0.83814  Biso   1.000  C
  H82      1.0000 0.85318  0.91183  0.89599  Biso   1.000  H
  H83      1.0000 0.95149  0.92374  0.90759  Biso   1.000  H
  H84      1.0000 0.97336  0.71714  0.60968  Biso   1.000  H
  C96      1.0000 0.77285  0.78202  0.82014  Biso   1.000  C
  C97      1.0000 0.71068  0.68093  0.84226  Biso   1.000  C
  H85      1.0000 0.41015  0.68055  0.83787  Biso   1.000  H
  H86      1.0000 0.88315  0.02744  0.06283  Biso   1.000  H
  C98      1.0000 0.92905  0.82182  0.82923  Biso   1.000  C
  C99      1.0000 0.02274  0.75194  0.77652  Biso   1.000  C
  H87      1.0000 0.09654  0.70933  0.66001  Biso   1.000  H
  H88      1.0000 0.09604  0.70152  0.73058  Biso   1.000  H
  H89      1.0000 0.96736  0.92664  0.82889  Biso   1.000  H
  H90      1.0000 0.86927  0.90452  0.81898  Biso   1.000  H
  C100     1.0000 0.85205  0.77341  0.83474  Biso   1.000  C
  H91      1.0000 0.76748  0.82061  0.80708  Biso   1.000  H
  C101     1.0000 0.78914  0.67065  0.85693  Biso   1.000  C
  O22      1.0000 0.64129  0.63786  0.84740  Biso   1.000  O
  H92      1.0000 0.97253  0.81851  0.85257  Biso   1.000  H
  O23      1.0000 0.05631  0.72881  0.81201  Biso   1.000  O
  C102     1.0000 0.85819  0.71565  0.85281  Biso   1.000  C
  H93      1.0000 0.79495  0.63206  0.86999  Biso   1.000  H
  H94      1.0000 0.61963  0.61424  0.82167  Biso   1.000  H
  H95      1.0000 0.02695  0.73715  0.83420  Biso   1.000  H
  O24      1.0000 0.93619  0.70482  0.86737  Biso   1.000  O
  H96      1.0000 0.94055  0.66165  0.85870  Biso   1.000  H
  O25      1.0000 0.44732  0.66966  0.31401  Biso   1.000  O
  C103     1.0000 0.36953  0.68319  0.30268  Biso   1.000  C
  H97      1.0000 0.44294  0.63117  0.32180  Biso   1.000  H
  C104     1.0000 0.29874  0.63486  0.30261  Biso   1.000  C
  C105     1.0000 0.36097  0.74619  0.29029  Biso   1.000  C
  C106     1.0000 0.22251  0.64777  0.29128  Biso   1.000  C
  H98      1.0000 0.30453  0.59187  0.31071  Biso   1.000  H
  C107     1.0000 0.28192  0.75646  0.27876  Biso   1.000  C
  C108     1.0000 0.43917  0.79688  0.28828  Biso   1.000  C
  O26      1.0000 0.15352  0.59968  0.29101  Biso   1.000  O
  C109     1.0000 0.21093  0.70937  0.27845  Biso   1.000  C
  H99      1.0000 0.27544  0.79908  0.27039  Biso   1.000  H
  C110     1.0000 0.47615  0.77416  0.24289  Biso   1.000  C
  H100     1.0000 0.48067  0.79255  0.31241  Biso   1.000  H
  C111     1.0000 0.42693  0.87485  0.29836  Biso   1.000  C
  H101     1.0000 0.14186  0.57337  0.26470  Biso   1.000  H
  C112     1.0000 0.12393  0.72250  0.26753  Biso   1.000  C
  C113     1.0000 0.44464  0.79246  0.20447  Biso   1.000  C
  C114     1.0000 0.54316  0.73547  0.23741  Biso   1.000  C
  H102     1.0000 0.37981  0.87946  0.27811  Biso   1.000  H
  H103     1.0000 0.47715  0.90259  0.29101  Biso   1.000  H
  C115     1.0000 0.41026  0.90697  0.34773  Biso   1.000  C
  H104     1.0000 0.08893  0.67525  0.25589  Biso   1.000  H
  C116     1.0000 0.08812  0.76087  0.31098  Biso   1.000  C
  C117     1.0000 0.11710  0.76356  0.23057  Biso   1.000  C
  H105     1.0000 0.39890  0.81817  0.20730  Biso   1.000  H
  C118     1.0000 0.47683  0.77507  0.16211  Biso   1.000  C
  O27      1.0000 0.58034  0.71797  0.27406  Biso   1.000  O
  C119     1.0000 0.57473  0.71687  0.19641  Biso   1.000  C
  H106     1.0000 0.45153  0.89487  0.36839  Biso   1.000  H
  H107     1.0000 0.35463  0.88593  0.35348  Biso   1.000  H
  C120     1.0000 0.41477  0.98625  0.35791  Biso   1.000  C
  C121     1.0000 0.10694  0.83189  0.32929  Biso   1.000  C
  C122     1.0000 0.03292  0.72238  0.33378  Biso   1.000  C
  C123     1.0000 0.13584  0.72308  0.18327  Biso   1.000  C
  H108     1.0000 0.15601  0.80847  0.23990  Biso   1.000  H
  H109     1.0000 0.06035  0.77586  0.22870  Biso   1.000  H
  C124     1.0000 0.54282  0.73576  0.15860  Biso   1.000  C
  C125     1.0000 0.44139  0.79938  0.12202  Biso   1.000  C
  H110     1.0000 0.54443  0.68947  0.28328  Biso   1.000  H
  H111     1.0000 0.61972  0.69036  0.19338  Biso   1.000  H
  H112     1.0000 0.36893  0.99757  0.33960  Biso   1.000  H
  C126     1.0000 0.40932  0.02269  0.40810  Biso   1.000  C
  H113     1.0000 0.46754  0.00618  0.34800  Biso   1.000  H
  H114     1.0000 0.14525  0.85764  0.31459  Biso   1.000  H
  C127     1.0000 0.07412  0.87004  0.36822  Biso   1.000  C
  O28      1.0000 0.01122  0.65126  0.31850  Biso   1.000  O
  C128     1.0000 0.00182  0.75817  0.37271  Biso   1.000  C
  C129     1.0000 0.11890  0.76240  0.14802  Biso   1.000  C
  H115     1.0000 0.10119  0.67586  0.17501  Biso   1.000  H
  H116     1.0000 0.19471  0.71567  0.18389  Biso   1.000  H
  O29      1.0000 0.57871  0.71536  0.11838  Biso   1.000  O
  C130     1.0000 0.42789  0.87677  0.13628  Biso   1.000  C
  C131     1.0000 0.36671  0.74756  0.09773  Biso   1.000  C
  H117     1.0000 0.48489  0.79697  0.09980  Biso   1.000  H
  C132     1.0000 0.32614  0.00458  0.42634  Biso   1.000  C
  H118     1.0000 0.45178  0.00557  0.42600  Biso   1.000  H
  C133     1.0000 0.43417  0.10262  0.41650  Biso   1.000  C
  C134     1.0000 0.02165  0.82966  0.39050  Biso   1.000  C
  C135     1.0000 0.09445  0.94874  0.38516  Biso   1.000  C
  H119     1.0000 0.98236  0.64196  0.29359  Biso   1.000  H
  H120     1.0000 0.96495  0.73194  0.38788  Biso   1.000  H
  C136     1.0000 0.12879  0.72318  0.09963  Biso   1.000  C
  H121     1.0000 0.06149  0.77355  0.14979  Biso   1.000  H
  H122     1.0000 0.15679  0.80778  0.15541  Biso   1.000  H
  H123     1.0000 0.54111  0.69906  0.09708  Biso   1.000  H
  C137     1.0000 0.41028  0.90877  0.09657  Biso   1.000  C
  H124     1.0000 0.47792  0.90485  0.15490  Biso   1.000  H
  H125     1.0000 0.38079  0.88045  0.15571  Biso   1.000  H
  C138     1.0000 0.28592  0.75636  0.10940  Biso   1.000  C
  C139     1.0000 0.37630  0.68758  0.06448  Biso   1.000  C
  C140     1.0000 0.25207  0.98537  0.39942  Biso   1.000  C
  C141     1.0000 0.32194  0.00942  0.47268  Biso   1.000  C
  C142     1.0000 0.39927  0.14068  0.38959  Biso   1.000  C
  C143     1.0000 0.49577  0.13992  0.45009  Biso   1.000  C
  O30      1.0000 0.98730  0.86035  0.43001  Biso   1.000  O
  H126     1.0000 0.04944  0.96424  0.40480  Biso   1.000  H
  C144     1.0000 0.17557  0.97226  0.41579  Biso   1.000  C
  C145     1.0000 0.09155  0.98676  0.34606  Biso   1.000  C
  C146     1.0000 0.21621  0.70888  0.08939  Biso   1.000  C
  C147     1.0000 0.09378  0.76058  0.06499  Biso   1.000  C
  H127     1.0000 0.09381  0.67578  0.09419  Biso   1.000  H
  C148     1.0000 0.41413  0.98865  0.11209  Biso   1.000  C
  H128     1.0000 0.35459  0.88755  0.08160  Biso   1.000  H
  H129     1.0000 0.45142  0.89725  0.07401  Biso   1.000  H
  H130     1.0000 0.27851  0.79719  0.13220  Biso   1.000  H
  C149     1.0000 0.30978  0.63770  0.04464  Biso   1.000  C
  O31      1.0000 0.45490  0.67878  0.05152  Biso   1.000  O
  H131     1.0000 0.25386  0.98086  0.36760  Biso   1.000  H
  C150     1.0000 0.24773  0.99614  0.49044  Biso   1.000  C
  O32      1.0000 0.39539  0.02938  0.50035  Biso   1.000  O
  H132     1.0000 0.35543  0.11611  0.36760  Biso   1.000  H
  C151     1.0000 0.42304  0.21138  0.39221  Biso   1.000  C
  O33      1.0000 0.53427  0.10991  0.48003  Biso   1.000  O
  C152     1.0000 0.52168  0.21110  0.45329  Biso   1.000  C
  H133     1.0000 0.02702  0.88616  0.44900  Biso   1.000  H
  C153     1.0000 0.17438  0.97764  0.46271  Biso   1.000  C
  H134     1.0000 0.04014  0.96677  0.32609  Biso   1.000  H
  H135     1.0000 0.13905  0.97684  0.32759  Biso   1.000  H
  C154     1.0000 0.09422  0.06557  0.36199  Biso   1.000  C
  C155     1.0000 0.23082  0.64777  0.05679  Biso   1.000  C
  C156     1.0000 0.11098  0.83267  0.07129  Biso   1.000  C
  C157     1.0000 0.04438  0.72107  0.02559  Biso   1.000  C
  H136     1.0000 0.36679  0.99925  0.13060  Biso   1.000  H
  C158     1.0000 0.41211  0.02693  0.07350  Biso   1.000  C
  H137     1.0000 0.46560  0.00829  0.13210  Biso   1.000  H
  H138     1.0000 0.31809  0.59629  0.02259  Biso   1.000  H
  H139     1.0000 0.45172  0.65456  0.02450  Biso   1.000  H
  H140     1.0000 0.24654  0.99987  0.52209  Biso   1.000  H
  H141     1.0000 0.38478  0.03641  0.52771  Biso   1.000  H
  C159     1.0000 0.48917  0.24628  0.42518  Biso   1.000  C
  C160     1.0000 0.38496  0.24939  0.36056  Biso   1.000  C
  H142     1.0000 0.49924  0.08181  0.48871  Biso   1.000  H
  H143     1.0000 0.56393  0.23598  0.47609  Biso   1.000  H
  O34      1.0000 0.09996  0.96514  0.48010  Biso   1.000  O
  H144     1.0000 0.05033  0.07602  0.38298  Biso   1.000  H
  H145     1.0000 0.14836  0.08660  0.37911  Biso   1.000  H
  C161     1.0000 0.08231  0.09993  0.32306  Biso   1.000  C
  O35      1.0000 0.16297  0.59766  0.03821  Biso   1.000  O
  H146     1.0000 0.14721  0.85865  0.09691  Biso   1.000  H
  C162     1.0000 0.07917  0.87019  0.04288  Biso   1.000  C
  O36      1.0000 0.02731  0.64847  0.01467  Biso   1.000  O
  C163     1.0000 0.01189  0.75672  0.99629  Biso   1.000  C
  C164     1.0000 0.44200  0.10540  0.09303  Biso   1.000  C
  H147     1.0000 0.45409  0.00854  0.05251  Biso   1.000  H
  C165     1.0000 0.32939  0.01132  0.04492  Biso   1.000  C
  O37      1.0000 0.51703  0.31669  0.42811  Biso   1.000  O
  H148     1.0000 0.41942  0.29689  0.36560  Biso   1.000  H
  C166     1.0000 0.29794  0.26241  0.37278  Biso   1.000  C
  C167     1.0000 0.39040  0.21008  0.31115  Biso   1.000  C
  H149     1.0000 0.08566  0.00388  0.49358  Biso   1.000  H
  C168     1.0000 0.06994  0.17689  0.33766  Biso   1.000  C
  H150     1.0000 0.13141  0.09641  0.30509  Biso   1.000  H
  H151     1.0000 0.03365  0.07289  0.30278  Biso   1.000  H
  H152     1.0000 0.12441  0.61798  0.03049  Biso   1.000  H
  C169     1.0000 0.09759  0.95066  0.05240  Biso   1.000  C
  C170     1.0000 0.02860  0.82909  0.00412  Biso   1.000  C
  H153     1.0000 0.97883  0.63619  0.02079  Biso   1.000  H
  H154     1.0000 0.97712  0.73053  0.97016  Biso   1.000  H
  C171     1.0000 0.40012  0.14571  0.12672  Biso   1.000  C
  C172     1.0000 0.51647  0.13949  0.08276  Biso   1.000  C
  C173     1.0000 0.25462  0.98936  0.06040  Biso   1.000  C
  C174     1.0000 0.32809  0.01993  0.00071  Biso   1.000  C
  H155     1.0000 0.56225  0.32907  0.44420  Biso   1.000  H
  C175     1.0000 0.22602  0.21772  0.35059  Biso   1.000  C
  C176     1.0000 0.28621  0.31699  0.40861  Biso   1.000  C
  H156     1.0000 0.44761  0.19910  0.30758  Biso   1.000  H
  H157     1.0000 0.35292  0.16449  0.30469  Biso   1.000  H
  C177     1.0000 0.36853  0.24949  0.27546  Biso   1.000  C
  C178     1.0000 0.14585  0.22611  0.36318  Biso   1.000  C
  H158     1.0000 0.02573  0.17931  0.35940  Biso   1.000  H
  C179     1.0000 0.03712  0.20329  0.29781  Biso   1.000  C
  C180     1.0000 0.17868  0.97484  0.03447  Biso   1.000  C
  H159     1.0000 0.05266  0.96578  0.03501  Biso   1.000  H
  C181     1.0000 0.09239  0.98634  0.10263  Biso   1.000  C
  O38      1.0000 0.99361  0.85927  0.97278  Biso   1.000  O
  H160     1.0000 0.34768  0.12481  0.13308  Biso   1.000  H
  C182     1.0000 0.43009  0.21401  0.15132  Biso   1.000  C
  O39      1.0000 0.56329  0.10772  0.05046  Biso   1.000  O
  C183     1.0000 0.54757  0.20828  0.10678  Biso   1.000  C
  H161     1.0000 0.25498  0.98375  0.09058  Biso   1.000  H
  C184     1.0000 0.25428  0.00457  0.97329  Biso   1.000  C
  O40      1.0000 0.40155  0.04256  0.98513  Biso   1.000  O
  H162     1.0000 0.23222  0.17941  0.32558  Biso   1.000  H
  C185     1.0000 0.20832  0.32890  0.42140  Biso   1.000  C
  O41      1.0000 0.35333  0.36219  0.43250  Biso   1.000  O
  H163     1.0000 0.39831  0.29851  0.28441  Biso   1.000  H
  H164     1.0000 0.30832  0.25188  0.27410  Biso   1.000  H
  C186     1.0000 0.39180  0.21241  0.22914  Biso   1.000  C
  C187     1.0000 0.13782  0.28146  0.39928  Biso   1.000  C
  C188     1.0000 0.97553  0.24578  0.30186  Biso   1.000  C
  C189     1.0000 0.06669  0.18419  0.25514  Biso   1.000  C
  C190     1.0000 0.18043  0.98240  0.98993  Biso   1.000  C
  H165     1.0000 0.13959  0.97678  0.12070  Biso   1.000  H
  H166     1.0000 0.04071  0.96528  0.11290  Biso   1.000  H
  C191     1.0000 0.09349  0.06620  0.11202  Biso   1.000  C
  H167     1.0000 0.02884  0.89041  0.96716  Biso   1.000  H
  C192     1.0000 0.38571  0.25179  0.19103  Biso   1.000  C
  C193     1.0000 0.50712  0.24471  0.14196  Biso   1.000  C
  H168     1.0000 0.55090  0.11719  0.02569  Biso   1.000  H
  H169     1.0000 0.59778  0.23068  0.09889  Biso   1.000  H
  H170     1.0000 0.25426  0.00937  0.94287  Biso   1.000  H
  H171     1.0000 0.39305  0.04553  0.95828  Biso   1.000  H
  H172     1.0000 0.20216  0.36906  0.44498  Biso   1.000  H
  H173     1.0000 0.33794  0.38888  0.45570  Biso   1.000  H
  H174     1.0000 0.44951  0.20270  0.23251  Biso   1.000  H
  H175     1.0000 0.35583  0.16600  0.21900  Biso   1.000  H
  O42      1.0000 0.06154  0.29369  0.41303  Biso   1.000  O
  O43      1.0000 0.94174  0.26647  0.34321  Biso   1.000  O
  C194     1.0000 0.94602  0.26858  0.26566  Biso   1.000  C
  H176     1.0000 0.10950  0.15532  0.25170  Biso   1.000  H
  C195     1.0000 0.03821  0.20449  0.21700  Biso   1.000  C
  O44      1.0000 0.10779  0.96783  0.96335  Biso   1.000  O
  C196     1.0000 0.08200  0.09982  0.16184  Biso   1.000  C
  H177     1.0000 0.14697  0.08809  0.10399  Biso   1.000  H
  H178     1.0000 0.04867  0.07618  0.09239  Biso   1.000  H
  C197     1.0000 0.29909  0.26228  0.17650  Biso   1.000  C
  H179     1.0000 0.41822  0.30009  0.20311  Biso   1.000  H
  O45      1.0000 0.54121  0.30953  0.16868  Biso   1.000  O
  H180     1.0000 0.02680  0.28278  0.39030  Biso   1.000  H
  H181     1.0000 0.90362  0.29060  0.34001  Biso   1.000  H
  H182     1.0000 0.90412  0.29840  0.26940  Biso   1.000  H
  C198     1.0000 0.97741  0.24798  0.22346  Biso   1.000  C
  C199     1.0000 0.07111  0.17811  0.17075  Biso   1.000  C
  H183     1.0000 0.11701  0.97250  0.93718  Biso   1.000  H
  H184     1.0000 0.03280  0.07328  0.17109  Biso   1.000  H
  H185     1.0000 0.13088  0.09540  0.18099  Biso   1.000  H
  C200     1.0000 0.22730  0.21790  0.17984  Biso   1.000  C
  C201     1.0000 0.28948  0.31901  0.15775  Biso   1.000  C
  H186     1.0000 0.59002  0.31943  0.16211  Biso   1.000  H
  O46      1.0000 0.94385  0.27111  0.18797  Biso   1.000  O
  H187     1.0000 0.02762  0.18141  0.14741  Biso   1.000  H
  C202     1.0000 0.14810  0.22651  0.16524  Biso   1.000  C
  H188     1.0000 0.23268  0.17931  0.19290  Biso   1.000  H
  C203     1.0000 0.21101  0.32927  0.14305  Biso   1.000  C
  O47      1.0000 0.35887  0.36206  0.15258  Biso   1.000  O
  H189     1.0000 0.97321  0.26282  0.16578  Biso   1.000  H
  C204     1.0000 0.14197  0.28432  0.14717  Biso   1.000  C
  H190     1.0000 0.20522  0.36791  0.12999  Biso   1.000  H
  H191     1.0000 0.38053  0.38568  0.17831  Biso   1.000  H
  O48      1.0000 0.06397  0.29510  0.13261  Biso   1.000  O
  H192     1.0000 0.05961  0.33827  0.14128  Biso   1.000  H
  Ne1      1.0000 0.25781  0.98745  0.23013  Biso   1.000  Ne
  He1      1.0000 0.25267  0.12163  0.38014  Biso   1.000  He
  He2      1.0000 0.24758  0.87333  0.34995  Biso   1.000  He
  He3      1.0000 0.41895  0.02682  0.24142  Biso   1.000  He
  He4      1.0000 0.10097  0.94820  0.21861  Biso   1.000  He
  He5      1.0000 0.20597  0.22670  0.25574  Biso   1.000  He
  He6      1.0000 0.29942  0.75362  0.20091  Biso   1.000  He
  He7      1.0000 0.25160  0.10071  0.10612  Biso   1.000  He
  He8      1.0000 0.24935  0.87973  0.07618  Biso   1.000  He
  Ar1      1.0000 0.25669  0.98843  0.23081  Biso   1.000  Ar
  Ne2      1.0000 0.74235  0.01248  0.76986  Biso   1.000  Ne
  He9      1.0000 0.74594  0.14877  0.91752  Biso   1.000  He
  He10     1.0000 0.75209  0.91198  0.88183  Biso   1.000  He
  He11     1.0000 0.92248  0.05647  0.78273  Biso   1.000  He
  He12     1.0000 0.59057  0.97498  0.75911  Biso   1.000  He
  He13     1.0000 0.69729  0.25720  0.81506  Biso   1.000  He
  He14     1.0000 0.79432  0.77600  0.72400  Biso   1.000  He
  He15     1.0000 0.74802  0.15334  0.66045  Biso   1.000  He
  He16     1.0000 0.75277  0.89299  0.63774  Biso   1.000  He
  Ar2      1.0000 0.74347  0.01150  0.76918  Biso   1.000  Ar
