data_image0
_cell_length_a       12.691
_cell_length_b       12.574
_cell_length_c       23.076
_cell_angle_alpha    90
_cell_angle_beta     98.67
_cell_angle_gamma    90

_symmetry_space_group_name_H-M    "P 1"
_symmetry_int_tables_number       1

loop_
  _symmetry_equiv_pos_as_xyz
  'x, y, z'

loop_
  _atom_site_label
  _atom_site_occupancy
  _atom_site_fract_x
  _atom_site_fract_y
  _atom_site_fract_z
  _atom_site_thermal_displace_type
  _atom_site_B_iso_or_equiv
  _atom_site_type_symbol
  O1       1.0000 0.51672  0.54151  0.31124  Biso   1.000  O
  C1       1.0000 0.59470  0.48863  0.32982  Biso   1.000  C
  N1       1.0000 0.60015  0.37943  0.33131  Biso   1.000  N
  N2       1.0000 0.69445  0.52839  0.35108  Biso   1.000  N
  C2       1.0000 0.51516  0.31303  0.30155  Biso   1.000  C
  C3       1.0000 0.70702  0.34023  0.35266  Biso   1.000  C
  C4       1.0000 0.77161  0.44520  0.36840  Biso   1.000  C
  C5       1.0000 0.72067  0.64061  0.34929  Biso   1.000  C
  N3       1.0000 0.45248  0.25831  0.33990  Biso   1.000  N
  H1       1.0000 0.54617  0.26030  0.27840  Biso   1.000  H
  H2       1.0000 0.46783  0.35709  0.27459  Biso   1.000  H
  N4       1.0000 0.71529  0.28543  0.40873  Biso   1.000  N
  C6       1.0000 0.76391  0.28257  0.30782  Biso   1.000  C
  C7       1.0000 0.86541  0.44027  0.33346  Biso   1.000  C
  N5       1.0000 0.80165  0.43733  0.43170  Biso   1.000  N
  H3       1.0000 0.66602  0.67592  0.32211  Biso   1.000  H
  H4       1.0000 0.78739  0.64792  0.33399  Biso   1.000  H
  N6       1.0000 0.73048  0.69493  0.40548  Biso   1.000  N
  C8       1.0000 0.35239  0.29132  0.34674  Biso   1.000  C
  C9       1.0000 0.48280  0.15858  0.37090  Biso   1.000  C
  C10      1.0000 0.67860  0.17830  0.41688  Biso   1.000  C
  C11      1.0000 0.77229  0.34213  0.45366  Biso   1.000  C
  C12      1.0000 0.87773  0.32392  0.32206  Biso   1.000  C
  H5       1.0000 0.73298  0.30102  0.26801  Biso   1.000  H
  H6       1.0000 0.76088  0.20606  0.31259  Biso   1.000  H
  H7       1.0000 0.84951  0.47948  0.29699  Biso   1.000  H
  H8       1.0000 0.92970  0.46906  0.35612  Biso   1.000  H
  C13      1.0000 0.88237  0.50247  0.46519  Biso   1.000  C
  C14      1.0000 0.82724  0.69890  0.44862  Biso   1.000  C
  C15      1.0000 0.65781  0.77096  0.41605  Biso   1.000  C
  O2       1.0000 0.30601  0.36894  0.32298  Biso   1.000  O
  N7       1.0000 0.31051  0.22101  0.38256  Biso   1.000  N
  C16      1.0000 0.38190  0.13138  0.40009  Biso   1.000  C
  C17      1.0000 0.49588  0.06521  0.32978  Biso   1.000  C
  N8       1.0000 0.56601  0.17083  0.42065  Biso   1.000  N
  H9       1.0000 0.69357  0.13472  0.38440  Biso   1.000  H
  H10      1.0000 0.71863  0.14944  0.45252  Biso   1.000  H
  O3       1.0000 0.79618  0.31263  0.50433  Biso   1.000  O
  H11      1.0000 0.91551  0.28853  0.35639  Biso   1.000  H
  H12      1.0000 0.91635  0.31271  0.28932  Biso   1.000  H
  H13      1.0000 0.91390  0.46246  0.49942  Biso   1.000  H
  H14      1.0000 0.93800  0.51583  0.44160  Biso   1.000  H
  N9       1.0000 0.84590  0.60315  0.48448  Biso   1.000  N
  C18      1.0000 0.79928  0.78456  0.49351  Biso   1.000  C
  C19      1.0000 0.92760  0.74018  0.42609  Biso   1.000  C
  N10      1.0000 0.69280  0.81692  0.46926  Biso   1.000  N
  O4       1.0000 0.57735  0.79505  0.38295  Biso   1.000  O
  C20      1.0000 0.20239  0.23024  0.39487  Biso   1.000  C
  C21      1.0000 0.33977  0.02497  0.37287  Biso   1.000  C
  N11      1.0000 0.42384  0.12900  0.46194  Biso   1.000  N
  H15      1.0000 0.54333  0.01161  0.34942  Biso   1.000  H
  H16      1.0000 0.52354  0.08923  0.29502  Biso   1.000  H
  C22      1.0000 0.38313  0.02259  0.31430  Biso   1.000  C
  C23      1.0000 0.53099  0.15063  0.47312  Biso   1.000  C
  C24      1.0000 0.83984  0.62208  0.54260  Biso   1.000  C
  N12      1.0000 0.80752  0.72491  0.54830  Biso   1.000  N
  C25      1.0000 0.88440  0.87236  0.49443  Biso   1.000  C
  C26      1.0000 0.97860  0.81398  0.47531  Biso   1.000  C
  H17      1.0000 0.97513  0.68220  0.42012  Biso   1.000  H
  H18      1.0000 0.90925  0.77891  0.38961  Biso   1.000  H
  C27      1.0000 0.63520  0.90297  0.49223  Biso   1.000  C
  H19      1.0000 0.16208  0.27398  0.36480  Biso   1.000  H
  H20      1.0000 0.17022  0.16001  0.39220  Biso   1.000  H
  N13      1.0000 0.19244  0.27509  0.45169  Biso   1.000  N
  H21      1.0000 0.26251  0.02330  0.36669  Biso   1.000  H
  H22      1.0000 0.36670  0.96556  0.39750  Biso   1.000  H
  C28      1.0000 0.36477  0.09703  0.50775  Biso   1.000  C
  H23      1.0000 0.34094  0.06736  0.28542  Biso   1.000  H
  H24      1.0000 0.38337  0.95069  0.29909  Biso   1.000  H
  O5       1.0000 0.58666  0.14792  0.52099  Biso   1.000  O
  O6       1.0000 0.86340  0.55845  0.58227  Biso   1.000  O
  C29      1.0000 0.79766  0.76976  0.60516  Biso   1.000  C
  H25      1.0000 0.85962  0.92922  0.46729  Biso   1.000  H
  H26      1.0000 0.90314  0.90186  0.53348  Biso   1.000  H
  H27      1.0000 0.01697  0.77350  0.50749  Biso   1.000  H
  H28      1.0000 0.02742  0.86361  0.46111  Biso   1.000  H
  H29      1.0000 0.68561  0.95793  0.50740  Biso   1.000  H
  H30      1.0000 0.58605  0.93367  0.46041  Biso   1.000  H
  N14      1.0000 0.57620  0.87100  0.53804  Biso   1.000  N
  C30      1.0000 0.16020  0.37792  0.45738  Biso   1.000  C
  C31      1.0000 0.20069  0.21537  0.50652  Biso   1.000  C
  H31      1.0000 0.31443  0.04207  0.49258  Biso   1.000  H
  H32      1.0000 0.41400  0.06633  0.53962  Biso   1.000  H
  N15      1.0000 0.30725  0.18308  0.53077  Biso   1.000  N
  H33      1.0000 0.83789  0.72602  0.63523  Biso   1.000  H
  H34      1.0000 0.82982  0.83999  0.60779  Biso   1.000  H
  N16      1.0000 0.68946  0.77899  0.61747  Biso   1.000  N
  C32      1.0000 0.61806  0.86862  0.59990  Biso   1.000  C
  C33      1.0000 0.46897  0.84937  0.52686  Biso   1.000  C
  N17      1.0000 0.15408  0.39685  0.51555  Biso   1.000  N
  O7       1.0000 0.13664  0.44155  0.41771  Biso   1.000  O
  C34      1.0000 0.17281  0.30110  0.55141  Biso   1.000  C
  C35      1.0000 0.11556  0.12756  0.50556  Biso   1.000  C
  C36      1.0000 0.34223  0.22896  0.58394  Biso   1.000  C
  C37      1.0000 0.64758  0.70868  0.65329  Biso   1.000  C
  C38      1.0000 0.51724  0.84142  0.62909  Biso   1.000  C
  C39      1.0000 0.66020  0.97503  0.62716  Biso   1.000  C
  N18      1.0000 0.43404  0.82917  0.57938  Biso   1.000  N
  O8       1.0000 0.41338  0.85208  0.47900  Biso   1.000  O
  C40      1.0000 0.11768  0.49753  0.53484  Biso   1.000  C
  C41      1.0000 0.07236  0.25982  0.57390  Biso   1.000  C
  N19      1.0000 0.26957  0.30507  0.59455  Biso   1.000  N
  H35      1.0000 0.14041  0.07078  0.53269  Biso   1.000  H
  H36      1.0000 0.09690  0.09806  0.46650  Biso   1.000  H
  C42      1.0000 0.02136  0.18602  0.52467  Biso   1.000  C
  O9       1.0000 0.42263  0.20495  0.61708  Biso   1.000  O
  N20      1.0000 0.54756  0.74169  0.66008  Biso   1.000  N
  O10      1.0000 0.69397  0.63106  0.67705  Biso   1.000  O
  C43      1.0000 0.50410  0.93479  0.67025  Biso   1.000  C
  C44      1.0000 0.61692  0.97741  0.68573  Biso   1.000  C
  H37      1.0000 0.73753  0.97670  0.63330  Biso   1.000  H
  H38      1.0000 0.63328  0.03444  0.60253  Biso   1.000  H
  C45      1.0000 0.32137  0.82170  0.58315  Biso   1.000  C
  H39      1.0000 0.08608  0.53746  0.50061  Biso   1.000  H
  H40      1.0000 0.06197  0.48417  0.55843  Biso   1.000  H
  N21      1.0000 0.19841  0.56267  0.56833  Biso   1.000  N
  H41      1.0000 0.02492  0.31780  0.57991  Biso   1.000  H
  H42      1.0000 0.09080  0.22109  0.61042  Biso   1.000  H
  C46      1.0000 0.27929  0.35939  0.65070  Biso   1.000  C
  H43      1.0000 0.98299  0.22650  0.49250  Biso   1.000  H
  H44      1.0000 0.97263  0.13639  0.53892  Biso   1.000  H
  C47      1.0000 0.48488  0.68697  0.69844  Biso   1.000  C
  H45      1.0000 0.45672  0.98839  0.65061  Biso   1.000  H
  H46      1.0000 0.47651  0.91077  0.70501  Biso   1.000  H
  H47      1.0000 0.65911  0.93256  0.71461  Biso   1.000  H
  H48      1.0000 0.61659  0.04931  0.70089  Biso   1.000  H
  N22      1.0000 0.28468  0.71457  0.59130  Biso   1.000  N
  H49      1.0000 0.30639  0.86528  0.61559  Biso   1.000  H
  H50      1.0000 0.28142  0.85056  0.54751  Biso   1.000  H
  C48      1.0000 0.22775  0.65787  0.54633  Biso   1.000  C
  C49      1.0000 0.22836  0.55480  0.63163  Biso   1.000  C
  H51      1.0000 0.33403  0.32408  0.67792  Biso   1.000  H
  H52      1.0000 0.21257  0.35208  0.66600  Biso   1.000  H
  N23      1.0000 0.30552  0.47161  0.64895  Biso   1.000  N
  N24      1.0000 0.39982  0.62057  0.66872  Biso   1.000  N
  H53      1.0000 0.45380  0.73970  0.72163  Biso   1.000  H
  H54      1.0000 0.53221  0.64291  0.72540  Biso   1.000  H
  C50      1.0000 0.29294  0.65977  0.64733  Biso   1.000  C
  O11      1.0000 0.20387  0.68737  0.49570  Biso   1.000  O
  C51      1.0000 0.13464  0.55973  0.66657  Biso   1.000  C
  C52      1.0000 0.40535  0.51137  0.67021  Biso   1.000  C
  C53      1.0000 0.23614  0.71743  0.69221  Biso   1.000  C
  H55      1.0000 0.15053  0.52052  0.70300  Biso   1.000  H
  H56      1.0000 0.07028  0.53086  0.64391  Biso   1.000  H
  C54      1.0000 0.12232  0.67608  0.67797  Biso   1.000  C
  O12      1.0000 0.48334  0.45849  0.68879  Biso   1.000  O
  H57      1.0000 0.26699  0.69898  0.73202  Biso   1.000  H
  H58      1.0000 0.23908  0.79386  0.68739  Biso   1.000  H
  H59      1.0000 0.08453  0.71147  0.64360  Biso   1.000  H
  H60      1.0000 0.08370  0.68729  0.71071  Biso   1.000  H
  C55      1.0000 0.48486  0.81303  0.19845  Biso   1.000  C
  N25      1.0000 0.54754  0.75831  0.16009  Biso   1.000  N
  H61      1.0000 0.45377  0.76030  0.22159  Biso   1.000  H
  H62      1.0000 0.53219  0.85709  0.22540  Biso   1.000  H
  N26      1.0000 0.39988  0.87943  0.16872  Biso   1.000  N
  C56      1.0000 0.51722  0.65858  0.12910  Biso   1.000  C
  C57      1.0000 0.64763  0.79132  0.15325  Biso   1.000  C
  C58      1.0000 0.29300  0.84023  0.14733  Biso   1.000  C
  C59      1.0000 0.40532  0.98863  0.17017  Biso   1.000  C
  C60      1.0000 0.50407  0.56521  0.17022  Biso   1.000  C
  C61      1.0000 0.61812  0.63138  0.09990  Biso   1.000  C
  N27      1.0000 0.43401  0.67083  0.07934  Biso   1.000  N
  N28      1.0000 0.68951  0.72101  0.11744  Biso   1.000  N
  O13      1.0000 0.69401  0.86894  0.17701  Biso   1.000  O
  N29      1.0000 0.28473  0.78543  0.09127  Biso   1.000  N
  C62      1.0000 0.22842  0.94520  0.13164  Biso   1.000  C
  C63      1.0000 0.23611  0.78257  0.19218  Biso   1.000  C
  N30      1.0000 0.30550  0.02839  0.14895  Biso   1.000  N
  O14      1.0000 0.48330  0.04151  0.18876  Biso   1.000  O
  H63      1.0000 0.45670  0.51161  0.15062  Biso   1.000  H
  H64      1.0000 0.47649  0.58923  0.20502  Biso   1.000  H
  C64      1.0000 0.61690  0.52259  0.18573  Biso   1.000  C
  C65      1.0000 0.66018  0.52497  0.12717  Biso   1.000  C
  N31      1.0000 0.57618  0.62900  0.03805  Biso   1.000  N
  C66      1.0000 0.46903  0.65063  0.02687  Biso   1.000  C
  C67      1.0000 0.32142  0.67830  0.08311  Biso   1.000  C
  C68      1.0000 0.79764  0.73016  0.10516  Biso   1.000  C
  C69      1.0000 0.22773  0.84206  0.04633  Biso   1.000  C
  N32      1.0000 0.19837  0.93733  0.06830  Biso   1.000  N
  C70      1.0000 0.13461  0.94027  0.16653  Biso   1.000  C
  C71      1.0000 0.12229  0.82392  0.17793  Biso   1.000  C
  H65      1.0000 0.26705  0.80102  0.23202  Biso   1.000  H
  H66      1.0000 0.23914  0.70606  0.18740  Biso   1.000  H
  C72      1.0000 0.27927  0.14061  0.15071  Biso   1.000  C
  H67      1.0000 0.65909  0.56736  0.21462  Biso   1.000  H
  H68      1.0000 0.61665  0.45069  0.20090  Biso   1.000  H
  H69      1.0000 0.73751  0.52330  0.13331  Biso   1.000  H
  H70      1.0000 0.63332  0.46556  0.10249  Biso   1.000  H
  C73      1.0000 0.63525  0.59703  0.99224  Biso   1.000  C
  O15      1.0000 0.41345  0.64792  0.97905  Biso   1.000  O
  H71      1.0000 0.30637  0.63472  0.11560  Biso   1.000  H
  H72      1.0000 0.28140  0.64936  0.04752  Biso   1.000  H
  H73      1.0000 0.83794  0.77398  0.13519  Biso   1.000  H
  H74      1.0000 0.82980  0.66001  0.10779  Biso   1.000  H
  N33      1.0000 0.80758  0.77509  0.04831  Biso   1.000  N
  O16      1.0000 0.20385  0.81263  0.99570  Biso   1.000  O
  C74      1.0000 0.11765  0.00247  0.03481  Biso   1.000  C
  H75      1.0000 0.15051  0.97948  0.20300  Biso   1.000  H
  H76      1.0000 0.07033  0.96906  0.14391  Biso   1.000  H
  H77      1.0000 0.08451  0.78853  0.14361  Biso   1.000  H
  H78      1.0000 0.08368  0.81271  0.21072  Biso   1.000  H
  H79      1.0000 0.33400  0.17592  0.17789  Biso   1.000  H
  H80      1.0000 0.21263  0.14792  0.16601  Biso   1.000  H
  N34      1.0000 0.26955  0.19493  0.09455  Biso   1.000  N
  H81      1.0000 0.68559  0.54207  0.00741  Biso   1.000  H
  H82      1.0000 0.58603  0.56633  0.96042  Biso   1.000  H
  N35      1.0000 0.69278  0.68308  0.96927  Biso   1.000  N
  C75      1.0000 0.83982  0.87792  0.04261  Biso   1.000  C
  C76      1.0000 0.79934  0.71537  0.99351  Biso   1.000  C
  H83      1.0000 0.08613  0.96246  0.00061  Biso   1.000  H
  H84      1.0000 0.06202  0.01583  0.05839  Biso   1.000  H
  N36      1.0000 0.15412  0.10315  0.01552  Biso   1.000  N
  C77      1.0000 0.17278  0.19890  0.05138  Biso   1.000  C
  C78      1.0000 0.34221  0.27104  0.08395  Biso   1.000  C
  C79      1.0000 0.65788  0.72896  0.91610  Biso   1.000  C
  O17      1.0000 0.86338  0.94155  0.08228  Biso   1.000  O
  N37      1.0000 0.84596  0.89685  0.98448  Biso   1.000  N
  C80      1.0000 0.82722  0.80110  0.94862  Biso   1.000  C
  C81      1.0000 0.88446  0.62756  0.99443  Biso   1.000  C
  C82      1.0000 0.16027  0.12208  0.95744  Biso   1.000  C
  C83      1.0000 0.20067  0.28463  0.00653  Biso   1.000  C
  C84      1.0000 0.07242  0.24018  0.07391  Biso   1.000  C
  N38      1.0000 0.30723  0.31692  0.03077  Biso   1.000  N
  O18      1.0000 0.42267  0.29505  0.11704  Biso   1.000  O
  N39      1.0000 0.73054  0.80507  0.90549  Biso   1.000  N
  O19      1.0000 0.57741  0.70495  0.88296  Biso   1.000  O
  C85      1.0000 0.88235  0.99746  0.96519  Biso   1.000  C
  C86      1.0000 0.92767  0.75982  0.92614  Biso   1.000  C
  H85      1.0000 0.90312  0.59806  0.03349  Biso   1.000  H
  H86      1.0000 0.85970  0.57078  0.96734  Biso   1.000  H
  C87      1.0000 0.97867  0.68602  0.97536  Biso   1.000  C
  N40      1.0000 0.19250  0.22491  0.95169  Biso   1.000  N
  O20      1.0000 0.13663  0.05845  0.91776  Biso   1.000  O
  C88      1.0000 0.11562  0.37244  0.00557  Biso   1.000  C
  C89      1.0000 0.02142  0.31398  0.02468  Biso   1.000  C
  H87      1.0000 0.02490  0.18220  0.07991  Biso   1.000  H
  H88      1.0000 0.09078  0.27891  0.11042  Biso   1.000  H
  C90      1.0000 0.36482  0.40297  0.00776  Biso   1.000  C
  C91      1.0000 0.72074  0.85939  0.84934  Biso   1.000  C
  H89      1.0000 0.93806  0.98417  0.94161  Biso   1.000  H
  H90      1.0000 0.91396  0.03754  0.99943  Biso   1.000  H
  N41      1.0000 0.80170  0.06267  0.93170  Biso   1.000  N
  H91      1.0000 0.97519  0.81780  0.92013  Biso   1.000  H
  H92      1.0000 0.90923  0.72109  0.88962  Biso   1.000  H
  H93      1.0000 0.02740  0.63639  0.96112  Biso   1.000  H
  H94      1.0000 0.01703  0.72650  0.00750  Biso   1.000  H
  C92      1.0000 0.20237  0.26976  0.89488  Biso   1.000  C
  H95      1.0000 0.09696  0.40186  0.96651  Biso   1.000  H
  H96      1.0000 0.14040  0.42922  0.03270  Biso   1.000  H
  H97      1.0000 0.98305  0.27350  0.99250  Biso   1.000  H
  H98      1.0000 0.97260  0.36361  0.03888  Biso   1.000  H
  H99      1.0000 0.31443  0.45793  0.99264  Biso   1.000  H
  N42      1.0000 0.42389  0.37100  0.96195  Biso   1.000  N
  H100     1.0000 0.41397  0.43367  0.03958  Biso   1.000  H
  H101     1.0000 0.66608  0.82408  0.82211  Biso   1.000  H
  H102     1.0000 0.78746  0.85208  0.83404  Biso   1.000  H
  N43      1.0000 0.69451  0.97161  0.85109  Biso   1.000  N
  C93      1.0000 0.77227  0.15787  0.95367  Biso   1.000  C
  C94      1.0000 0.77167  0.05480  0.86840  Biso   1.000  C
  H103     1.0000 0.16214  0.22602  0.86481  Biso   1.000  H
  H104     1.0000 0.17020  0.33999  0.89221  Biso   1.000  H
  N44      1.0000 0.31057  0.27899  0.88256  Biso   1.000  N
  C95      1.0000 0.38196  0.36862  0.90010  Biso   1.000  C
  C96      1.0000 0.53106  0.34937  0.97317  Biso   1.000  C
  C97      1.0000 0.59476  0.01137  0.82983  Biso   1.000  C
  N45      1.0000 0.71535  0.21457  0.90873  Biso   1.000  N
  O21      1.0000 0.79616  0.18737  0.00434  Biso   1.000  O
  C98      1.0000 0.70708  0.15977  0.85267  Biso   1.000  C
  C99      1.0000 0.86547  0.05973  0.83347  Biso   1.000  C
  C100     1.0000 0.35245  0.20868  0.84675  Biso   1.000  C
  C101     1.0000 0.48279  0.34142  0.87095  Biso   1.000  C
  C102     1.0000 0.33983  0.47503  0.87288  Biso   1.000  C
  N46      1.0000 0.56599  0.32917  0.92066  Biso   1.000  N
  O22      1.0000 0.58664  0.35208  0.02100  Biso   1.000  O
  O23      1.0000 0.51670  0.95849  0.81124  Biso   1.000  O
  N47      1.0000 0.60021  0.12057  0.83132  Biso   1.000  N
  C103     1.0000 0.67866  0.32170  0.91689  Biso   1.000  C
  C104     1.0000 0.76397  0.21743  0.80782  Biso   1.000  C
  H105     1.0000 0.84958  0.02052  0.79704  Biso   1.000  H
  H106     1.0000 0.92976  0.03094  0.85613  Biso   1.000  H
  C105     1.0000 0.87771  0.17608  0.82207  Biso   1.000  C
  N48      1.0000 0.45246  0.24169  0.83991  Biso   1.000  N
  O24      1.0000 0.30606  0.13106  0.82299  Biso   1.000  O
  C106     1.0000 0.49593  0.43479  0.82978  Biso   1.000  C
  C107     1.0000 0.38311  0.47741  0.81431  Biso   1.000  C
  H107     1.0000 0.26258  0.47670  0.86674  Biso   1.000  H
  H108     1.0000 0.36676  0.53436  0.89751  Biso   1.000  H
  C108     1.0000 0.51514  0.18697  0.80155  Biso   1.000  C
  H109     1.0000 0.69363  0.36528  0.88440  Biso   1.000  H
  H110     1.0000 0.71869  0.35056  0.95253  Biso   1.000  H
  H111     1.0000 0.73304  0.19898  0.76802  Biso   1.000  H
  H112     1.0000 0.76094  0.29386  0.81260  Biso   1.000  H
  H113     1.0000 0.91558  0.21147  0.85644  Biso   1.000  H
  H114     1.0000 0.91633  0.18729  0.78932  Biso   1.000  H
  H115     1.0000 0.54332  0.48839  0.84942  Biso   1.000  H
  H116     1.0000 0.52352  0.41077  0.79502  Biso   1.000  H
  H117     1.0000 0.34092  0.43256  0.78542  Biso   1.000  H
  H118     1.0000 0.38343  0.54931  0.79910  Biso   1.000  H
  H119     1.0000 0.54623  0.23970  0.77841  Biso   1.000  H
  H120     1.0000 0.46782  0.14291  0.77464  Biso   1.000  H
