data_image0
_cell_length_a       14.907
_cell_length_b       20.427
_cell_length_c       21.853
_cell_angle_alpha    90
_cell_angle_beta     90
_cell_angle_gamma    90

_symmetry_space_group_name_H-M    "P 1"
_symmetry_int_tables_number       1

loop_
  _symmetry_equiv_pos_as_xyz
  'x, y, z'

loop_
  _atom_site_label
  _atom_site_occupancy
  _atom_site_fract_x
  _atom_site_fract_y
  _atom_site_fract_z
  _atom_site_thermal_displace_type
  _atom_site_B_iso_or_equiv
  _atom_site_type_symbol
  C1       1.0000 0.50828  0.48597  0.48629  Biso   1.000  C
  C2       1.0000 0.41839  0.46879  0.51517  Biso   1.000  C
  O1       1.0000 0.49782  0.50487  0.42351  Biso   1.000  O
  H1       1.0000 0.54760  0.44769  0.48831  Biso   1.000  H
  C3       1.0000 0.55310  0.54237  0.51938  Biso   1.000  C
  O2       1.0000 0.38472  0.40936  0.49064  Biso   1.000  O
  C4       1.0000 0.42671  0.46037  0.58399  Biso   1.000  C
  H2       1.0000 0.37560  0.50399  0.50661  Biso   1.000  H
  H3       1.0000 0.50466  0.47271  0.40150  Biso   1.000  H
  C5       1.0000 0.55658  0.52920  0.58797  Biso   1.000  C
  O3       1.0000 0.64218  0.54687  0.49522  Biso   1.000  O
  H4       1.0000 0.52029  0.58320  0.51151  Biso   1.000  H
  H5       1.0000 0.36218  0.41641  0.45701  Biso   1.000  H
  O4       1.0000 0.47790  0.40344  0.59667  Biso   1.000  O
  O5       1.0000 0.46716  0.51633  0.61035  Biso   1.000  O
  H6       1.0000 0.36661  0.45499  0.60138  Biso   1.000  H
  H7       1.0000 0.59408  0.49058  0.59539  Biso   1.000  H
  C6       1.0000 0.59341  0.58628  0.62509  Biso   1.000  C
  C7       1.0000 0.67619  0.60910  0.47728  Biso   1.000  C
  C8       1.0000 0.43496  0.35389  0.63291  Biso   1.000  C
  O6       1.0000 0.60589  0.56871  0.68778  Biso   1.000  O
  H8       1.0000 0.65030  0.60009  0.60779  Biso   1.000  H
  H9       1.0000 0.55209  0.62290  0.62257  Biso   1.000  H
  O7       1.0000 0.74321  0.63122  0.51833  Biso   1.000  O
  H10      1.0000 0.62695  0.64087  0.47609  Biso   1.000  H
  C9       1.0000 0.71476  0.60038  0.41280  Biso   1.000  C
  C10      1.0000 0.45381  0.28781  0.60298  Biso   1.000  C
  H11      1.0000 0.37016  0.36168  0.63309  Biso   1.000  H
  C11      1.0000 0.47011  0.35561  0.69890  Biso   1.000  C
  H12      1.0000 0.55705  0.56729  0.70498  Biso   1.000  H
  C12      1.0000 0.81807  0.58712  0.52409  Biso   1.000  C
  O8       1.0000 0.64849  0.57762  0.37107  Biso   1.000  O
  H13      1.0000 0.73610  0.64307  0.39848  Biso   1.000  H
  C13      1.0000 0.79526  0.55368  0.41541  Biso   1.000  C
  O9       1.0000 0.41477  0.28364  0.54372  Biso   1.000  O
  C14      1.0000 0.41289  0.23440  0.64321  Biso   1.000  C
  H14      1.0000 0.51882  0.28110  0.60001  Biso   1.000  H
  O10      1.0000 0.42611  0.30401  0.73258  Biso   1.000  O
  H15      1.0000 0.53492  0.34729  0.69858  Biso   1.000  H
  C15      1.0000 0.45240  0.41851  0.73281  Biso   1.000  C
  C16      1.0000 0.86275  0.57737  0.46218  Biso   1.000  C
  H16      1.0000 0.79607  0.54467  0.53878  Biso   1.000  H
  C17      1.0000 0.87959  0.61561  0.57159  Biso   1.000  C
  H17      1.0000 0.61186  0.55500  0.38937  Biso   1.000  H
  O11      1.0000 0.83947  0.54932  0.35743  Biso   1.000  O
  H18      1.0000 0.77420  0.51001  0.42717  Biso   1.000  H
  H19      1.0000 0.41672  0.31967  0.52730  Biso   1.000  H
  O12      1.0000 0.42866  0.17041  0.62010  Biso   1.000  O
  C18      1.0000 0.44288  0.23939  0.70938  Biso   1.000  C
  H20      1.0000 0.34782  0.24110  0.64289  Biso   1.000  H
  O13      1.0000 0.35768  0.43163  0.73464  Biso   1.000  O
  H21      1.0000 0.47541  0.41509  0.77417  Biso   1.000  H
  H22      1.0000 0.48306  0.45430  0.71258  Biso   1.000  H
  O14      1.0000 0.92997  0.52729  0.46689  Biso   1.000  O
  H23      1.0000 0.89005  0.61850  0.44850  Biso   1.000  H
  O15      1.0000 0.84558  0.60856  0.63213  Biso   1.000  O
  H24      1.0000 0.93755  0.59421  0.56898  Biso   1.000  H
  H25      1.0000 0.88851  0.66177  0.56308  Biso   1.000  H
  H26      1.0000 0.80821  0.52852  0.33350  Biso   1.000  H
  H27      1.0000 0.48199  0.16140  0.62380  Biso   1.000  H
  O16      1.0000 0.53465  0.22348  0.71180  Biso   1.000  O
  H28      1.0000 0.40907  0.20772  0.73400  Biso   1.000  H
  H29      1.0000 0.33830  0.42361  0.76886  Biso   1.000  H
  C19      1.0000 0.02080  0.54399  0.45669  Biso   1.000  C
  H30      1.0000 0.81519  0.64067  0.64087  Biso   1.000  H
  C20      1.0000 0.56738  0.19460  0.76841  Biso   1.000  C
  O17      1.0000 0.06876  0.54893  0.51293  Biso   1.000  O
  H31      1.0000 0.02328  0.58628  0.43559  Biso   1.000  H
  C21      1.0000 0.06198  0.49190  0.41569  Biso   1.000  C
  C22      1.0000 0.61059  0.12919  0.75129  Biso   1.000  C
  H32      1.0000 0.51680  0.18681  0.79609  Biso   1.000  H
  C23      1.0000 0.63225  0.24409  0.79746  Biso   1.000  C
  C24      1.0000 0.06789  0.48837  0.54757  Biso   1.000  C
  O18      1.0000 0.01060  0.48788  0.35981  Biso   1.000  O
  H33      1.0000 0.12357  0.50468  0.40557  Biso   1.000  H
  C25      1.0000 0.06400  0.42728  0.44909  Biso   1.000  C
  O19      1.0000 0.54169  0.08244  0.74049  Biso   1.000  O
  C26      1.0000 0.66908  0.10599  0.80369  Biso   1.000  C
  H34      1.0000 0.64721  0.13448  0.71427  Biso   1.000  H
  O20      1.0000 0.69316  0.21432  0.84071  Biso   1.000  O
  H35      1.0000 0.66667  0.26622  0.76530  Biso   1.000  H
  C27      1.0000 0.58342  0.29490  0.83590  Biso   1.000  C
  C28      1.0000 0.11330  0.43560  0.50959  Biso   1.000  C
  H36      1.0000 0.00557  0.47560  0.55548  Biso   1.000  H
  C29      1.0000 0.11384  0.50228  0.60770  Biso   1.000  C
  H37      1.0000 0.95787  0.49640  0.36700  Biso   1.000  H
  O21      1.0000 0.10720  0.37960  0.41052  Biso   1.000  O
  H38      1.0000 0.00228  0.41308  0.45728  Biso   1.000  H
  H39      1.0000 0.54578  0.06849  0.70540  Biso   1.000  H
  O22      1.0000 0.71839  0.04768  0.78804  Biso   1.000  O
  C30      1.0000 0.73710  0.15778  0.82044  Biso   1.000  C
  H40      1.0000 0.63111  0.09698  0.83929  Biso   1.000  H
  O23      1.0000 0.53666  0.26587  0.88564  Biso   1.000  O
  H41      1.0000 0.62648  0.32628  0.85169  Biso   1.000  H
  H42      1.0000 0.54116  0.31830  0.81028  Biso   1.000  H
  O24      1.0000 0.10760  0.37387  0.54130  Biso   1.000  O
  H43      1.0000 0.17616  0.44710  0.50217  Biso   1.000  H
  O25      1.0000 0.20440  0.52127  0.59722  Biso   1.000  O
  H44      1.0000 0.08238  0.53699  0.62907  Biso   1.000  H
  H45      1.0000 0.11250  0.46341  0.63319  Biso   1.000  H
  H46      1.0000 0.12229  0.34797  0.43120  Biso   1.000  H
  H47      1.0000 0.68371  0.01669  0.78529  Biso   1.000  H
  O26      1.0000 0.79117  0.17173  0.76809  Biso   1.000  O
  H48      1.0000 0.77547  0.14119  0.85329  Biso   1.000  H
  H49      1.0000 0.57221  0.24610  0.90747  Biso   1.000  H
  C31      1.0000 0.18937  0.34327  0.55800  Biso   1.000  C
  H50      1.0000 0.20856  0.53801  0.56317  Biso   1.000  H
  C32      1.0000 0.88576  0.16091  0.77358  Biso   1.000  C
  O27      1.0000 0.20453  0.34905  0.62211  Biso   1.000  O
  H51      1.0000 0.23875  0.36462  0.53608  Biso   1.000  H
  C33      1.0000 0.18468  0.27170  0.53887  Biso   1.000  C
  C34      1.0000 0.91387  0.12371  0.71679  Biso   1.000  C
  H52      1.0000 0.89857  0.13492  0.81019  Biso   1.000  H
  C35      1.0000 0.93459  0.22622  0.77696  Biso   1.000  C
  C36      1.0000 0.13349  0.32109  0.65840  Biso   1.000  C
  O28      1.0000 0.16965  0.26969  0.47403  Biso   1.000  O
  H53      1.0000 0.24264  0.25109  0.54757  Biso   1.000  H
  C37      1.0000 0.11216  0.23572  0.57470  Biso   1.000  C
  O29      1.0000 0.87295  0.06031  0.71482  Biso   1.000  O
  H54      1.0000 0.89488  0.14848  0.68059  Biso   1.000  H
  C38      1.0000 0.01529  0.11632  0.71528  Biso   1.000  C
  H55      1.0000 0.92051  0.25177  0.74026  Biso   1.000  H
  C39      1.0000 0.91165  0.26622  0.83279  Biso   1.000  C
  O30      1.0000 0.02999  0.21364  0.77852  Biso   1.000  O
  C40      1.0000 0.12437  0.24791  0.64257  Biso   1.000  C
  H56      1.0000 0.07694  0.34371  0.64957  Biso   1.000  H
  C41      1.0000 0.15946  0.33240  0.72429  Biso   1.000  C
  H57      1.0000 0.11907  0.25579  0.46721  Biso   1.000  H
  O31      1.0000 0.11478  0.16674  0.56253  Biso   1.000  O
  H58      1.0000 0.05346  0.25270  0.56221  Biso   1.000  H
  H59      1.0000 0.83048  0.05928  0.73857  Biso   1.000  H
  O32      1.0000 0.04454  0.08895  0.65803  Biso   1.000  O
  C42      1.0000 0.06198  0.18211  0.72548  Biso   1.000  C
  H60      1.0000 0.03307  0.08650  0.74827  Biso   1.000  H
  O33      1.0000 0.93111  0.23288  0.88885  Biso   1.000  O
  H61      1.0000 0.94526  0.30690  0.83169  Biso   1.000  H
  H62      1.0000 0.84839  0.27708  0.83179  Biso   1.000  H
  O34      1.0000 0.04716  0.22079  0.67268  Biso   1.000  O
  H63      1.0000 0.17804  0.22470  0.65671  Biso   1.000  H
  O35      1.0000 0.23606  0.29392  0.74136  Biso   1.000  O
  H64      1.0000 0.17294  0.37837  0.73029  Biso   1.000  H
  H65      1.0000 0.10928  0.32119  0.75047  Biso   1.000  H
  H66      1.0000 0.16046  0.15098  0.57740  Biso   1.000  H
  H67      1.0000 0.05930  0.11862  0.63479  Biso   1.000  H
  H68      1.0000 0.12658  0.17447  0.72988  Biso   1.000  H
  H69      1.0000 0.98437  0.23719  0.89718  Biso   1.000  H
  H70      1.0000 0.28054  0.31737  0.74269  Biso   1.000  H
  O36      1.0000 0.54458  0.41102  0.34197  Biso   1.000  O
  C43      1.0000 0.51526  0.38371  0.28467  Biso   1.000  C
  H71      1.0000 0.55927  0.38141  0.36521  Biso   1.000  H
  C44      1.0000 0.41390  0.37632  0.28321  Biso   1.000  C
  C45      1.0000 0.56202  0.31791  0.27452  Biso   1.000  C
  H72      1.0000 0.53311  0.41347  0.25168  Biso   1.000  H
  C46      1.0000 0.38579  0.33911  0.22638  Biso   1.000  C
  O37      1.0000 0.37298  0.43966  0.28513  Biso   1.000  O
  H73      1.0000 0.39492  0.35150  0.31941  Biso   1.000  H
  O38      1.0000 0.52995  0.28634  0.22148  Biso   1.000  O
  O39      1.0000 0.54719  0.27924  0.32728  Biso   1.000  O
  H74      1.0000 0.62655  0.32550  0.27008  Biso   1.000  H
  O40      1.0000 0.29121  0.32829  0.23191  Biso   1.000  O
  H75      1.0000 0.39860  0.36511  0.18981  Biso   1.000  H
  C47      1.0000 0.43456  0.27380  0.22299  Biso   1.000  C
  H76      1.0000 0.33052  0.44069  0.26138  Biso   1.000  H
  C48      1.0000 0.62440  0.25212  0.35739  Biso   1.000  C
  C49      1.0000 0.23707  0.34219  0.17956  Biso   1.000  C
  H77      1.0000 0.42047  0.24820  0.25969  Biso   1.000  H
  C50      1.0000 0.41169  0.23381  0.16721  Biso   1.000  C
  C51      1.0000 0.61220  0.26431  0.42530  Biso   1.000  C
  H78      1.0000 0.67807  0.27527  0.34329  Biso   1.000  H
  C52      1.0000 0.63346  0.17888  0.34160  Biso   1.000  C
  O41      1.0000 0.19320  0.28570  0.15929  Biso   1.000  O
  H79      1.0000 0.27551  0.35879  0.14671  Biso   1.000  H
  C53      1.0000 0.16912  0.39399  0.19631  Biso   1.000  C
  O42      1.0000 0.43107  0.26710  0.11111  Biso   1.000  O
  H80      1.0000 0.44529  0.19308  0.16831  Biso   1.000  H
  H81      1.0000 0.34836  0.22289  0.16821  Biso   1.000  H
  O43      1.0000 0.61481  0.33324  0.43747  Biso   1.000  O
  C54      1.0000 0.68471  0.22828  0.46108  Biso   1.000  C
  H82      1.0000 0.55350  0.24732  0.43779  Biso   1.000  H
  O44      1.0000 0.70457  0.15098  0.37784  Biso   1.000  O
  H83      1.0000 0.57698  0.15631  0.35039  Biso   1.000  H
  C55      1.0000 0.65949  0.16762  0.27571  Biso   1.000  C
  C56      1.0000 0.13229  0.25589  0.20249  Biso   1.000  C
  O45      1.0000 0.21842  0.45229  0.21196  Biso   1.000  O
  H84      1.0000 0.13108  0.40300  0.16071  Biso   1.000  H
  C57      1.0000 0.11062  0.37078  0.24871  Biso   1.000  C
  H85      1.0000 0.48440  0.26279  0.10278  Biso   1.000  H
  H86      1.0000 0.66050  0.34900  0.42260  Biso   1.000  H
  O46      1.0000 0.66969  0.23028  0.52597  Biso   1.000  O
  C58      1.0000 0.68941  0.15670  0.44200  Biso   1.000  C
  H87      1.0000 0.74267  0.24889  0.45239  Biso   1.000  H
  O47      1.0000 0.73610  0.20610  0.25859  Biso   1.000  O
  H88      1.0000 0.67297  0.12160  0.26971  Biso   1.000  H
  H89      1.0000 0.60931  0.17878  0.24949  Biso   1.000  H
  C59      1.0000 0.06742  0.30538  0.23159  Biso   1.000  C
  H90      1.0000 0.16670  0.23381  0.23470  Biso   1.000  H
  C60      1.0000 0.08338  0.20512  0.16410  Biso   1.000  C
  H91      1.0000 0.18367  0.48328  0.21471  Biso   1.000  H
  O48      1.0000 0.04173  0.41758  0.25951  Biso   1.000  O
  H92      1.0000 0.14718  0.36550  0.28568  Biso   1.000  H
  H93      1.0000 0.61911  0.24419  0.53279  Biso   1.000  H
  O49      1.0000 0.60757  0.12616  0.45866  Biso   1.000  O
  H94      1.0000 0.73878  0.13541  0.46387  Biso   1.000  H
  H95      1.0000 0.78057  0.18260  0.25731  Biso   1.000  H
  O50      1.0000 0.03461  0.27650  0.28815  Biso   1.000  O
  H96      1.0000 0.01677  0.31321  0.20391  Biso   1.000  H
  O51      1.0000 0.03669  0.23410  0.11431  Biso   1.000  O
  H97      1.0000 0.12652  0.17369  0.14831  Biso   1.000  H
  H98      1.0000 0.04119  0.18172  0.18968  Biso   1.000  H
  H99      1.0000 0.04582  0.43149  0.29460  Biso   1.000  H
  C61      1.0000 0.61327  0.06438  0.49041  Biso   1.000  C
  C62      1.0000 0.94291  0.26059  0.29058  Biso   1.000  C
  H100     1.0000 0.07218  0.25388  0.09248  Biso   1.000  H
  C63      1.0000 0.56396  0.07270  0.55091  Biso   1.000  C
  H101     1.0000 0.67619  0.05292  0.49778  Biso   1.000  H
  C64      1.0000 0.56785  0.01160  0.45239  Biso   1.000  C
  O52      1.0000 0.92607  0.19602  0.26738  Biso   1.000  O
  H102     1.0000 0.90910  0.29231  0.26600  Biso   1.000  H
  C65      1.0000 0.91293  0.26558  0.35679  Biso   1.000  C
  O53      1.0000 0.60716  0.12038  0.58948  Biso   1.000  O
  C66      1.0000 0.56202  0.00808  0.58427  Biso   1.000  C
  H103     1.0000 0.50231  0.08689  0.54267  Biso   1.000  H
  H104     1.0000 0.50560  0.02438  0.44447  Biso   1.000  H
  O54      1.0000 0.56879  0.95109  0.48707  Biso   1.000  O
  C67      1.0000 0.61387  0.99770  0.39230  Biso   1.000  C
  C68      1.0000 0.97008  0.14442  0.30110  Biso   1.000  C
  O55      1.0000 0.92869  0.32956  0.37986  Biso   1.000  O
  H105     1.0000 0.84779  0.25887  0.35711  Biso   1.000  H
  C69      1.0000 0.95378  0.21222  0.39697  Biso   1.000  C
  H106     1.0000 0.62226  0.15200  0.56880  Biso   1.000  H
  O56      1.0000 0.51057  0.01209  0.64019  Biso   1.000  O
  C70      1.0000 0.52076  0.95599  0.54331  Biso   1.000  C
  H107     1.0000 0.62360  0.99530  0.59438  Biso   1.000  H
  H108     1.0000 0.61246  0.03662  0.36681  Biso   1.000  H
  O57      1.0000 0.70437  0.97875  0.40278  Biso   1.000  O
  H109     1.0000 0.58241  0.96299  0.37089  Biso   1.000  H
  H110     1.0000 0.03488  0.15269  0.30138  Biso   1.000  H
  C71      1.0000 0.93500  0.14608  0.36709  Biso   1.000  C
  C72      1.0000 0.95237  0.08151  0.26719  Biso   1.000  C
  H111     1.0000 0.98202  0.33857  0.37620  Biso   1.000  H
  H112     1.0000 0.01878  0.21888  0.39999  Biso   1.000  H
  O58      1.0000 0.91481  0.21638  0.45623  Biso   1.000  O
  H113     1.0000 0.45791  0.00362  0.63300  Biso   1.000  H
  O59      1.0000 0.43000  0.97268  0.53311  Biso   1.000  O
  H114     1.0000 0.52331  0.91369  0.56441  Biso   1.000  H
  H115     1.0000 0.70859  0.96201  0.43678  Biso   1.000  H
  O60      1.0000 0.97793  0.09654  0.40333  Biso   1.000  O
  H116     1.0000 0.87020  0.13830  0.36691  Biso   1.000  H
  O61      1.0000 0.85772  0.06834  0.26536  Biso   1.000  O
  H117     1.0000 0.97538  0.08489  0.22578  Biso   1.000  H
  H118     1.0000 0.98310  0.04572  0.28737  Biso   1.000  H
  H119     1.0000 0.91668  0.18030  0.47270  Biso   1.000  H
  C73      1.0000 0.36278  0.92260  0.53778  Biso   1.000  C
  C74      1.0000 0.92668  0.03960  0.41601  Biso   1.000  C
  H120     1.0000 0.83833  0.07642  0.23109  Biso   1.000  H
  C75      1.0000 0.29530  0.94630  0.58459  Biso   1.000  C
  H121     1.0000 0.39009  0.88148  0.55150  Biso   1.000  H
  C76      1.0000 0.31811  0.91291  0.47591  Biso   1.000  C
  O62      1.0000 0.96720  0.98365  0.38960  Biso   1.000  O
  H122     1.0000 0.86657  0.04499  0.39857  Biso   1.000  H
  C77      1.0000 0.91843  0.03118  0.48478  Biso   1.000  C
  C78      1.0000 0.21480  0.89959  0.58720  Biso   1.000  C
  O63      1.0000 0.33950  0.95065  0.64257  Biso   1.000  O
  H123     1.0000 0.27417  0.99001  0.57278  Biso   1.000  H
  O64      1.0000 0.24317  0.86875  0.48167  Biso   1.000  O
  H124     1.0000 0.29610  0.95530  0.46117  Biso   1.000  H
  C79      1.0000 0.37962  0.88442  0.42841  Biso   1.000  C
  C80      1.0000 0.05662  0.97082  0.41198  Biso   1.000  C
  C81      1.0000 0.00832  0.01400  0.51371  Biso   1.000  C
  H125     1.0000 0.87563  0.99599  0.49339  Biso   1.000  H
  O65      1.0000 0.88469  0.09066  0.50936  Biso   1.000  O
  C82      1.0000 0.17623  0.89088  0.52267  Biso   1.000  C
  O66      1.0000 0.14852  0.92236  0.62888  Biso   1.000  O
  H126     1.0000 0.23606  0.85691  0.60147  Biso   1.000  H
  H127     1.0000 0.30818  0.97151  0.66650  Biso   1.000  H
  O67      1.0000 0.34561  0.89142  0.36782  Biso   1.000  O
  H128     1.0000 0.43758  0.90581  0.43097  Biso   1.000  H
  H129     1.0000 0.38848  0.83820  0.43687  Biso   1.000  H
  H130     1.0000 0.09412  0.00940  0.40461  Biso   1.000  H
  C83      1.0000 0.05313  0.95761  0.48057  Biso   1.000  C
  C84      1.0000 0.09338  0.91369  0.37491  Biso   1.000  C
  H131     1.0000 0.04763  0.05228  0.51169  Biso   1.000  H
  O68      1.0000 0.99779  0.99515  0.57649  Biso   1.000  O
  H132     1.0000 0.86221  0.08361  0.54299  Biso   1.000  H
  O69      1.0000 0.14222  0.95310  0.50478  Biso   1.000  O
  H133     1.0000 0.12699  0.85911  0.52391  Biso   1.000  H
  H134     1.0000 0.11189  0.94502  0.61058  Biso   1.000  H
  H135     1.0000 0.31522  0.85930  0.35908  Biso   1.000  H
  H136     1.0000 0.02033  0.91678  0.48849  Biso   1.000  H
  O70      1.0000 0.10592  0.93132  0.31222  Biso   1.000  O
  H137     1.0000 0.15026  0.89989  0.39221  Biso   1.000  H
  H138     1.0000 0.05212  0.87712  0.37739  Biso   1.000  H
  H139     1.0000 0.00470  0.02732  0.59850  Biso   1.000  H
  H140     1.0000 0.05709  0.93269  0.29502  Biso   1.000  H
  C85      1.0000 0.33092  0.60601  0.69629  Biso   1.000  C
  O71      1.0000 0.28161  0.54766  0.71194  Biso   1.000  O
  C86      1.0000 0.26290  0.65781  0.67954  Biso   1.000  C
  H141     1.0000 0.36889  0.59700  0.66069  Biso   1.000  H
  C87      1.0000 0.38941  0.62917  0.74868  Biso   1.000  C
  H142     1.0000 0.31629  0.51667  0.71468  Biso   1.000  H
  O72      1.0000 0.20876  0.67171  0.73189  Biso   1.000  O
  O73      1.0000 0.30677  0.71430  0.65927  Biso   1.000  O
  H143     1.0000 0.22453  0.64121  0.64668  Biso   1.000  H
  O74      1.0000 0.45831  0.58242  0.75948  Biso   1.000  O
  H144     1.0000 0.35279  0.63450  0.78570  Biso   1.000  H
  C88      1.0000 0.43262  0.69457  0.73157  Biso   1.000  C
  C89      1.0000 0.11417  0.66089  0.72640  Biso   1.000  C
  C90      1.0000 0.36768  0.74411  0.70247  Biso   1.000  C
  H145     1.0000 0.45422  0.56851  0.79458  Biso   1.000  H
  O75      1.0000 0.46535  0.72350  0.78818  Biso   1.000  O
  H146     1.0000 0.48320  0.68679  0.70389  Biso   1.000  H
  C91      1.0000 0.08607  0.62368  0.78319  Biso   1.000  C
  H147     1.0000 0.10143  0.63489  0.68979  Biso   1.000  H
  C92      1.0000 0.06541  0.72620  0.72297  Biso   1.000  C
  H148     1.0000 0.33327  0.76619  0.73468  Biso   1.000  H
  C93      1.0000 0.41658  0.79488  0.66407  Biso   1.000  C
  C94      1.0000 0.55705  0.73941  0.79060  Biso   1.000  C
  O76      1.0000 0.12699  0.56029  0.78516  Biso   1.000  O
  H149     1.0000 0.10512  0.64850  0.81938  Biso   1.000  H
  C95      1.0000 0.98471  0.61629  0.78470  Biso   1.000  C
  H150     1.0000 0.07949  0.75180  0.75967  Biso   1.000  H
  C96      1.0000 0.08828  0.76619  0.66719  Biso   1.000  C
  O77      1.0000 0.97001  0.71366  0.72146  Biso   1.000  O
  O78      1.0000 0.46327  0.76590  0.61429  Biso   1.000  O
  H151     1.0000 0.37352  0.82631  0.64829  Biso   1.000  H
  H152     1.0000 0.45878  0.81828  0.68970  Biso   1.000  H
  O79      1.0000 0.57389  0.80398  0.76740  Biso   1.000  O
  H153     1.0000 0.59086  0.70769  0.76598  Biso   1.000  H
  C97      1.0000 0.58711  0.73437  0.85677  Biso   1.000  C
  H154     1.0000 0.16952  0.55931  0.76141  Biso   1.000  H
  O80      1.0000 0.95539  0.58898  0.84194  Biso   1.000  O
  C98      1.0000 0.93802  0.68209  0.77449  Biso   1.000  C
  H155     1.0000 0.96693  0.58648  0.75170  Biso   1.000  H
  O81      1.0000 0.06889  0.73290  0.61113  Biso   1.000  O
  H156     1.0000 0.05467  0.80687  0.66828  Biso   1.000  H
  H157     1.0000 0.15161  0.77711  0.66819  Biso   1.000  H
  H158     1.0000 0.42779  0.74607  0.59250  Biso   1.000  H
  C99      1.0000 0.52989  0.85558  0.80108  Biso   1.000  C
  O82      1.0000 0.57128  0.67044  0.87983  Biso   1.000  O
  H159     1.0000 0.65218  0.74108  0.85709  Biso   1.000  H
  C100     1.0000 0.54619  0.78778  0.89699  Biso   1.000  C
  H160     1.0000 0.94070  0.61859  0.86519  Biso   1.000  H
  O83      1.0000 0.95277  0.72076  0.82730  Biso   1.000  O
  H161     1.0000 0.87342  0.67450  0.77010  Biso   1.000  H
  H162     1.0000 0.01563  0.73721  0.60280  Biso   1.000  H
  C101     1.0000 0.56497  0.85387  0.86707  Biso   1.000  C
  H163     1.0000 0.46508  0.84731  0.80140  Biso   1.000  H
  C102     1.0000 0.54760  0.91849  0.76717  Biso   1.000  C
  H164     1.0000 0.51801  0.66138  0.87617  Biso   1.000  H
  O84      1.0000 0.58516  0.78362  0.95625  Biso   1.000  O
  H165     1.0000 0.48118  0.78107  0.89997  Biso   1.000  H
  C103     1.0000 0.87563  0.74788  0.85737  Biso   1.000  C
  O85      1.0000 0.52210  0.90346  0.90331  Biso   1.000  O
  H166     1.0000 0.62977  0.86170  0.86688  Biso   1.000  H
  O86      1.0000 0.64232  0.93166  0.76534  Biso   1.000  O
  H167     1.0000 0.52459  0.91506  0.72580  Biso   1.000  H
  H168     1.0000 0.51687  0.95428  0.78740  Biso   1.000  H
  H169     1.0000 0.58328  0.81970  0.97268  Biso   1.000  H
  C104     1.0000 0.88777  0.73569  0.92527  Biso   1.000  C
  H170     1.0000 0.82190  0.72468  0.84327  Biso   1.000  H
  C105     1.0000 0.86651  0.82107  0.84158  Biso   1.000  C
  C106     1.0000 0.57329  0.96040  0.91598  Biso   1.000  C
  H171     1.0000 0.66170  0.92358  0.73107  Biso   1.000  H
  O87      1.0000 0.88522  0.66676  0.93745  Biso   1.000  O
  C107     1.0000 0.81532  0.77167  0.96110  Biso   1.000  C
  H172     1.0000 0.94647  0.75268  0.93777  Biso   1.000  H
  O88      1.0000 0.79540  0.84902  0.87787  Biso   1.000  O
  H173     1.0000 0.92299  0.84369  0.85036  Biso   1.000  H
  C108     1.0000 0.84048  0.83238  0.77568  Biso   1.000  C
  H174     1.0000 0.63339  0.95496  0.89860  Biso   1.000  H
  C109     1.0000 0.58161  0.96877  0.98476  Biso   1.000  C
  O89      1.0000 0.53277  0.01630  0.88963  Biso   1.000  O
  H175     1.0000 0.83947  0.65100  0.92257  Biso   1.000  H
  C110     1.0000 0.81063  0.84330  0.94198  Biso   1.000  C
  H176     1.0000 0.75730  0.75106  0.95236  Biso   1.000  H
  O90      1.0000 0.83028  0.76972  0.02595  Biso   1.000  O
  O91      1.0000 0.76394  0.79390  0.75861  Biso   1.000  O
  H177     1.0000 0.82699  0.87840  0.76969  Biso   1.000  H
  H178     1.0000 0.89072  0.82117  0.74951  Biso   1.000  H
  O92      1.0000 0.61528  0.90934  0.00934  Biso   1.000  O
  C111     1.0000 0.49172  0.98600  0.01368  Biso   1.000  C
  H179     1.0000 0.62440  0.00397  0.99336  Biso   1.000  H
  C112     1.0000 0.44342  0.02918  0.91200  Biso   1.000  C
  O93      1.0000 0.89240  0.87384  0.95868  Biso   1.000  O
  H180     1.0000 0.76119  0.86459  0.96390  Biso   1.000  H
  H181     1.0000 0.88093  0.75576  0.03276  Biso   1.000  H
  H182     1.0000 0.71939  0.81740  0.75729  Biso   1.000  H
  H183     1.0000 0.63775  0.91639  0.04297  Biso   1.000  H
  H184     1.0000 0.45240  0.94767  0.01167  Biso   1.000  H
  C113     1.0000 0.44690  0.04239  0.98060  Biso   1.000  C
  O94      1.0000 0.50218  0.00485  0.07647  Biso   1.000  O
  H185     1.0000 0.40592  0.99060  0.90459  Biso   1.000  H
  C114     1.0000 0.40659  0.08631  0.87489  Biso   1.000  C
  C115     1.0000 0.88670  0.93558  0.99039  Biso   1.000  C
  H186     1.0000 0.47971  0.08317  0.98847  Biso   1.000  H
  O95      1.0000 0.35782  0.04690  0.00476  Biso   1.000  O
  H187     1.0000 0.49527  0.97268  0.09848  Biso   1.000  H
  O96      1.0000 0.39411  0.06868  0.81220  Biso   1.000  O
  H188     1.0000 0.34970  0.10006  0.89219  Biso   1.000  H
  H189     1.0000 0.44791  0.12288  0.87736  Biso   1.000  H
  H190     1.0000 0.82377  0.94708  0.99780  Biso   1.000  H
  C116     1.0000 0.93211  0.98840  0.95236  Biso   1.000  C
  C117     1.0000 0.93600  0.92730  0.05089  Biso   1.000  C
  C118     1.0000 0.32381  0.10907  0.02270  Biso   1.000  C
  H191     1.0000 0.44288  0.06726  0.79499  Biso   1.000  H
  H192     1.0000 0.99443  0.97557  0.94449  Biso   1.000  H
  O97      1.0000 0.93117  0.04891  0.98705  Biso   1.000  O
  C119     1.0000 0.88609  0.00230  0.89228  Biso   1.000  C
  O98      1.0000 0.89280  0.87962  0.08946  Biso   1.000  O
  C120     1.0000 0.93802  0.99187  0.08429  Biso   1.000  C
  H193     1.0000 0.99772  0.91311  0.04269  Biso   1.000  H
  O99      1.0000 0.25679  0.13125  0.98165  Biso   1.000  O
  H194     1.0000 0.37298  0.14089  0.02389  Biso   1.000  H
  C121     1.0000 0.28517  0.10041  0.08717  Biso   1.000  C
  C122     1.0000 0.97920  0.04396  0.04329  Biso   1.000  C
  H195     1.0000 0.88750  0.96338  0.86679  Biso   1.000  H
  O100     1.0000 0.79560  0.02125  0.90276  Biso   1.000  O
  H196     1.0000 0.91762  0.03696  0.87086  Biso   1.000  H
  H197     1.0000 0.87771  0.84800  0.06878  Biso   1.000  H
  O101     1.0000 0.98940  0.98791  0.14016  Biso   1.000  O
  H198     1.0000 0.87643  0.00470  0.09436  Biso   1.000  H
  C123     1.0000 0.18193  0.08709  0.97588  Biso   1.000  C
  O102     1.0000 0.35151  0.07764  0.12891  Biso   1.000  O
  H199     1.0000 0.26390  0.14309  0.10150  Biso   1.000  H
  C124     1.0000 0.20467  0.05370  0.08457  Biso   1.000  C
  H200     1.0000 0.97672  0.08631  0.06438  Biso   1.000  H
  O103     1.0000 0.06997  0.02732  0.03308  Biso   1.000  O
  H201     1.0000 0.79137  0.03799  0.93681  Biso   1.000  H
  H202     1.0000 0.04213  0.99638  0.13298  Biso   1.000  H
  H203     1.0000 0.20386  0.04470  0.96120  Biso   1.000  H
  C125     1.0000 0.12041  0.11558  0.92839  Biso   1.000  C
  C126     1.0000 0.13718  0.07740  0.03780  Biso   1.000  C
  H204     1.0000 0.38807  0.05498  0.11056  Biso   1.000  H
  O104     1.0000 0.16053  0.04930  0.14254  Biso   1.000  O
  H205     1.0000 0.22580  0.00999  0.07276  Biso   1.000  H
  O105     1.0000 0.15442  0.10853  0.86784  Biso   1.000  O
  H206     1.0000 0.06239  0.09419  0.93099  Biso   1.000  H
  H207     1.0000 0.11149  0.16180  0.93690  Biso   1.000  H
  H208     1.0000 0.10988  0.11847  0.05148  Biso   1.000  H
  H209     1.0000 0.19179  0.02849  0.16648  Biso   1.000  H
  H210     1.0000 0.18481  0.14070  0.85910  Biso   1.000  H
  O106     1.0000 0.56886  0.76707  0.38887  Biso   1.000  O
  C127     1.0000 0.58831  0.73378  0.33281  Biso   1.000  C
  H211     1.0000 0.51560  0.76276  0.39720  Biso   1.000  H
  C128     1.0000 0.56537  0.77378  0.27699  Biso   1.000  C
  H212     1.0000 0.55471  0.69310  0.33172  Biso   1.000  H
  H213     1.0000 0.65157  0.72287  0.33181  Biso   1.000  H
  O107     1.0000 0.46998  0.78636  0.27850  Biso   1.000  O
  C129     1.0000 0.61421  0.83909  0.27360  Biso   1.000  C
  H214     1.0000 0.57946  0.74818  0.24029  Biso   1.000  H
  C130     1.0000 0.43798  0.81789  0.22551  Biso   1.000  C
  C131     1.0000 0.58610  0.87629  0.21681  Biso   1.000  C
  O108     1.0000 0.70879  0.82827  0.26811  Biso   1.000  O
  H215     1.0000 0.60140  0.86508  0.31021  Biso   1.000  H
  O109     1.0000 0.45281  0.77921  0.17270  Biso   1.000  O
  H216     1.0000 0.37338  0.82548  0.22990  Biso   1.000  H
  C132     1.0000 0.48467  0.88368  0.21530  Biso   1.000  C
  O110     1.0000 0.62695  0.93969  0.21484  Biso   1.000  O
  H217     1.0000 0.60508  0.85147  0.18062  Biso   1.000  H
  C133     1.0000 0.76286  0.84217  0.32041  Biso   1.000  C
  C134     1.0000 0.37560  0.75209  0.14259  Biso   1.000  C
  O111     1.0000 0.45536  0.91100  0.15801  Biso   1.000  O
  H218     1.0000 0.46689  0.91350  0.24830  Biso   1.000  H
  H219     1.0000 0.66948  0.94067  0.23859  Biso   1.000  H
  O112     1.0000 0.80680  0.78568  0.34073  Biso   1.000  O
  H220     1.0000 0.72449  0.85877  0.35332  Biso   1.000  H
  C135     1.0000 0.83088  0.89396  0.30371  Biso   1.000  C
  C136     1.0000 0.36647  0.67891  0.15838  Biso   1.000  C
  C137     1.0000 0.38780  0.76428  0.07468  Biso   1.000  C
  H221     1.0000 0.32186  0.77530  0.15668  Biso   1.000  H
  H222     1.0000 0.44067  0.88138  0.13481  Biso   1.000  H
  C138     1.0000 0.86765  0.75591  0.29749  Biso   1.000  C
  O113     1.0000 0.78158  0.95232  0.28802  Biso   1.000  O
  H223     1.0000 0.86885  0.90297  0.33931  Biso   1.000  H
  C139     1.0000 0.88938  0.87081  0.25132  Biso   1.000  C
  O114     1.0000 0.29536  0.65095  0.12213  Biso   1.000  O
  H224     1.0000 0.42296  0.65629  0.14959  Biso   1.000  H
  C140     1.0000 0.34051  0.66760  0.22432  Biso   1.000  C
  C141     1.0000 0.31529  0.72830  0.03890  Biso   1.000  C
  O115     1.0000 0.38519  0.83326  0.06251  Biso   1.000  O
  H225     1.0000 0.44650  0.74730  0.06219  Biso   1.000  H
  C142     1.0000 0.93258  0.80540  0.26838  Biso   1.000  C
  H226     1.0000 0.83330  0.73378  0.26527  Biso   1.000  H
  C143     1.0000 0.91655  0.70510  0.33588  Biso   1.000  C
  H227     1.0000 0.81626  0.98331  0.28532  Biso   1.000  H
  O116     1.0000 0.95827  0.91756  0.24047  Biso   1.000  O
  H228     1.0000 0.85275  0.86547  0.21430  Biso   1.000  H
  C144     1.0000 0.31059  0.65668  0.05798  Biso   1.000  C
  O117     1.0000 0.26390  0.70608  0.24139  Biso   1.000  O
  H229     1.0000 0.32696  0.62158  0.23031  Biso   1.000  H
  H230     1.0000 0.39069  0.67881  0.25049  Biso   1.000  H
  H231     1.0000 0.25726  0.74891  0.04759  Biso   1.000  H
  O118     1.0000 0.33031  0.73026  0.97401  Biso   1.000  O
  H232     1.0000 0.33950  0.84897  0.07738  Biso   1.000  H
  O119     1.0000 0.96532  0.77652  0.21182  Biso   1.000  O
  H233     1.0000 0.98316  0.81319  0.29611  Biso   1.000  H
  O120     1.0000 0.96331  0.73408  0.38567  Biso   1.000  O
  H234     1.0000 0.87348  0.67367  0.35171  Biso   1.000  H
  H235     1.0000 0.95874  0.68170  0.31030  Biso   1.000  H
  H236     1.0000 0.95418  0.93146  0.20542  Biso   1.000  H
  O121     1.0000 0.39237  0.62613  0.04132  Biso   1.000  O
  H237     1.0000 0.26122  0.63538  0.03610  Biso   1.000  H
  H238     1.0000 0.21943  0.68258  0.24271  Biso   1.000  H
  H239     1.0000 0.38089  0.74421  0.96719  Biso   1.000  H
  C145     1.0000 0.05709  0.76061  0.20940  Biso   1.000  C
  H240     1.0000 0.92775  0.75390  0.40750  Biso   1.000  H
  C146     1.0000 0.38666  0.56440  0.00961  Biso   1.000  C
  C147     1.0000 0.08707  0.76560  0.14318  Biso   1.000  C
  O122     1.0000 0.07386  0.69599  0.23260  Biso   1.000  O
  H241     1.0000 0.09090  0.79228  0.23402  Biso   1.000  H
  C148     1.0000 0.43208  0.51158  0.04759  Biso   1.000  C
  H242     1.0000 0.32381  0.55290  0.00220  Biso   1.000  H
  C149     1.0000 0.43597  0.57267  0.94911  Biso   1.000  C
  C150     1.0000 0.04615  0.71219  0.10301  Biso   1.000  C
  O123     1.0000 0.07124  0.82954  0.12012  Biso   1.000  O
  H243     1.0000 0.15214  0.75890  0.14291  Biso   1.000  H
  C151     1.0000 0.02985  0.64439  0.19887  Biso   1.000  C
  C152     1.0000 0.38606  0.49767  0.10772  Biso   1.000  C
  O124     1.0000 0.43121  0.45107  0.01295  Biso   1.000  O
  H244     1.0000 0.49440  0.52440  0.05551  Biso   1.000  H
  C153     1.0000 0.43798  0.50810  0.91571  Biso   1.000  C
  O125     1.0000 0.39277  0.62040  0.91054  Biso   1.000  O
  H245     1.0000 0.49769  0.58687  0.95731  Biso   1.000  H
  C154     1.0000 0.06500  0.64611  0.13289  Biso   1.000  C
  H246     1.0000 0.98115  0.71890  0.09999  Biso   1.000  H
  O126     1.0000 0.08519  0.71636  0.04375  Biso   1.000  O
  H247     1.0000 0.01798  0.83860  0.12378  Biso   1.000  H
  H248     1.0000 0.96505  0.65271  0.19860  Biso   1.000  H
  C155     1.0000 0.04756  0.58149  0.23278  Biso   1.000  C
  O127     1.0000 0.29557  0.47873  0.09719  Biso   1.000  O
  H249     1.0000 0.41759  0.46301  0.12909  Biso   1.000  H
  H250     1.0000 0.38747  0.53659  0.13321  Biso   1.000  H
  C156     1.0000 0.47917  0.45601  0.95671  Biso   1.000  C
  O128     1.0000 0.48937  0.51207  0.85979  Biso   1.000  O
  H251     1.0000 0.37640  0.49528  0.90560  Biso   1.000  H
  H252     1.0000 0.37767  0.65198  0.93122  Biso   1.000  H
  O129     1.0000 0.02207  0.59651  0.09665  Biso   1.000  O
  H253     1.0000 0.12974  0.63827  0.13312  Biso   1.000  H
  H254     1.0000 0.08325  0.68028  0.02732  Biso   1.000  H
  O130     1.0000 0.14228  0.56837  0.23461  Biso   1.000  O
  H255     1.0000 0.02455  0.58491  0.27420  Biso   1.000  H
  H256     1.0000 0.01690  0.54570  0.21260  Biso   1.000  H
  H257     1.0000 0.29141  0.46199  0.06319  Biso   1.000  H
  O131     1.0000 0.57000  0.47266  0.96692  Biso   1.000  O
  H258     1.0000 0.47669  0.41372  0.93562  Biso   1.000  H
  H259     1.0000 0.54209  0.50360  0.86702  Biso   1.000  H
  C157     1.0000 0.07325  0.53958  0.08402  Biso   1.000  C
  H260     1.0000 0.16167  0.57639  0.26889  Biso   1.000  H
  C158     1.0000 0.63715  0.42258  0.96220  Biso   1.000  C
  O132     1.0000 0.03280  0.48367  0.11037  Biso   1.000  O
  C159     1.0000 0.08157  0.53121  0.01519  Biso   1.000  C
  H261     1.0000 0.13336  0.54501  0.10140  Biso   1.000  H
  C160     1.0000 0.68189  0.41288  0.02412  Biso   1.000  C
  C161     1.0000 0.70470  0.44627  0.91539  Biso   1.000  C
  H262     1.0000 0.60991  0.38150  0.94852  Biso   1.000  H
  C162     1.0000 0.94338  0.47080  0.08800  Biso   1.000  C
  C163     1.0000 0.99168  0.51398  0.98632  Biso   1.000  C
  O133     1.0000 0.11525  0.59064  0.99066  Biso   1.000  O
  H263     1.0000 0.12437  0.49601  0.00659  Biso   1.000  H
  O134     1.0000 0.75676  0.36878  0.01835  Biso   1.000  O
  H264     1.0000 0.70390  0.45528  0.03880  Biso   1.000  H
  C164     1.0000 0.62038  0.38439  0.07161  Biso   1.000  C
  O135     1.0000 0.66050  0.45068  0.85741  Biso   1.000  O
  C165     1.0000 0.78520  0.39962  0.91278  Biso   1.000  C
  H265     1.0000 0.72577  0.48999  0.92720  Biso   1.000  H
  C166     1.0000 0.94687  0.45758  0.01940  Biso   1.000  C
  H266     1.0000 0.90588  0.50937  0.09541  Biso   1.000  H
  C167     1.0000 0.90655  0.41372  0.12511  Biso   1.000  C
  H267     1.0000 0.95237  0.55231  0.98829  Biso   1.000  H
  O136     1.0000 0.00215  0.49513  0.92349  Biso   1.000  O
  H268     1.0000 0.13779  0.58359  0.95699  Biso   1.000  H
  C168     1.0000 0.82377  0.39090  0.97730  Biso   1.000  C
  O137     1.0000 0.65439  0.39144  0.13216  Biso   1.000  O
  H269     1.0000 0.56235  0.40579  0.06901  Biso   1.000  H
  H270     1.0000 0.61146  0.33818  0.06310  Biso   1.000  H
  H271     1.0000 0.69176  0.47148  0.83352  Biso   1.000  H
  O138     1.0000 0.85148  0.42233  0.87109  Biso   1.000  O
  H272     1.0000 0.76387  0.35688  0.89850  Biso   1.000  H
  O139     1.0000 0.85778  0.45313  0.99520  Biso   1.000  O
  H273     1.0000 0.97967  0.41680  0.01149  Biso   1.000  H
  O140     1.0000 0.89408  0.43129  0.18775  Biso   1.000  O
  H274     1.0000 0.84967  0.39991  0.10781  Biso   1.000  H
  H275     1.0000 0.94788  0.37710  0.12259  Biso   1.000  H
  H276     1.0000 0.99530  0.52729  0.90152  Biso   1.000  H
  H277     1.0000 0.87295  0.35908  0.97611  Biso   1.000  H
  H278     1.0000 0.68478  0.35928  0.14090  Biso   1.000  H
  H279     1.0000 0.88811  0.44500  0.88940  Biso   1.000  H
  H280     1.0000 0.94285  0.43271  0.20501  Biso   1.000  H
  Ne1      1.0000 0.29220  0.14222  0.37995  Biso   1.000  Ne
  He1      1.0000 0.29994  0.13477  0.38543  Biso   1.000  He
  He2      1.0000 0.31278  0.05670  0.25664  Biso   1.000  He
  Ar1      1.0000 0.28973  0.14014  0.38246  Biso   1.000  Ar
  Ne2      1.0000 0.70777  0.64221  0.12004  Biso   1.000  Ne
  He3      1.0000 0.68634  0.55433  0.24674  Biso   1.000  He
  He4      1.0000 0.71232  0.67541  0.05316  Biso   1.000  He
  Ar2      1.0000 0.70757  0.65957  0.08671  Biso   1.000  Ar
  Ne3      1.0000 0.79219  0.35778  0.62003  Biso   1.000  Ne
  He5      1.0000 0.81509  0.44927  0.75186  Biso   1.000  He
  He6      1.0000 0.78630  0.31999  0.54735  Biso   1.000  He
  Ar3      1.0000 0.79242  0.34040  0.58669  Biso   1.000  Ar
  Ne4      1.0000 0.20779  0.85777  0.87994  Biso   1.000  Ne
  He7      1.0000 0.21363  0.82006  0.95247  Biso   1.000  He
  He8      1.0000 0.18482  0.94946  0.74781  Biso   1.000  He
  Ar4      1.0000 0.20705  0.83849  0.91778  Biso   1.000  Ar
