data_image0
_cell_length_a       12.762
_cell_length_b       13.176
_cell_length_c       19.196
_cell_angle_alpha    106.32
_cell_angle_beta     95.13
_cell_angle_gamma    111.74

_symmetry_space_group_name_H-M    "P 1"
_symmetry_int_tables_number       1

loop_
  _symmetry_equiv_pos_as_xyz
  'x, y, z'

loop_
  _atom_site_label
  _atom_site_occupancy
  _atom_site_fract_x
  _atom_site_fract_y
  _atom_site_fract_z
  _atom_site_thermal_displace_type
  _atom_site_B_iso_or_equiv
  _atom_site_type_symbol
  C1       1.0000 0.81059  0.42199  0.59210  Biso   1.000  C
  O1       1.0000 0.78149  0.30367  0.56358  Biso   1.000  O
  C2       1.0000 0.93570  0.48481  0.63120  Biso   1.000  C
  C3       1.0000 0.66717  0.23511  0.52382  Biso   1.000  C
  O2       1.0000 0.94972  0.45880  0.69692  Biso   1.000  O
  C4       1.0000 0.65053  0.11318  0.48512  Biso   1.000  C
  C5       1.0000 0.06615  0.49734  0.73062  Biso   1.000  C
  O3       1.0000 0.66287  0.06018  0.53939  Biso   1.000  O
  C6       1.0000 0.06692  0.48613  0.81192  Biso   1.000  C
  C7       1.0000 0.65422  0.94730  0.50358  Biso   1.000  C
  O4       1.0000 0.01921  0.37601  0.80641  Biso   1.000  O
  C8       1.0000 0.68579  0.89418  0.55841  Biso   1.000  C
  C9       1.0000 0.01781  0.35184  0.86992  Biso   1.000  C
  O5       1.0000 0.60300  0.87868  0.60450  Biso   1.000  O
  C10      1.0000 0.93969  0.36904  0.91312  Biso   1.000  C
  C11      1.0000 0.08234  0.29312  0.88460  Biso   1.000  C
  C12      1.0000 0.62192  0.83181  0.65878  Biso   1.000  C
  O6       1.0000 0.87711  0.42383  0.89272  Biso   1.000  O
  C13      1.0000 0.93128  0.32783  0.97068  Biso   1.000  C
  C14      1.0000 0.06955  0.24963  0.94109  Biso   1.000  C
  C15      1.0000 0.53786  0.81548  0.70132  Biso   1.000  C
  C16      1.0000 0.71482  0.80600  0.67312  Biso   1.000  C
  C17      1.0000 0.79153  0.43404  0.93292  Biso   1.000  C
  C18      1.0000 0.99480  0.26733  0.98402  Biso   1.000  C
  C19      1.0000 0.13034  0.17299  0.94971  Biso   1.000  C
  O7       1.0000 0.45003  0.84734  0.68591  Biso   1.000  O
  C20      1.0000 0.54710  0.76952  0.75731  Biso   1.000  C
  C21      1.0000 0.72701  0.76442  0.73168  Biso   1.000  C
  C22      1.0000 0.72312  0.48148  0.89589  Biso   1.000  C
  O8       1.0000 0.06053  0.06229  0.89461  Biso   1.000  O
  C23      1.0000 0.36021  0.82202  0.72567  Biso   1.000  C
  C24      1.0000 0.64294  0.74602  0.77233  Biso   1.000  C
  C25      1.0000 0.83562  0.75009  0.75381  Biso   1.000  C
  O9       1.0000 0.66468  0.40340  0.82432  Biso   1.000  O
  C26      1.0000 0.09897  0.97487  0.88599  Biso   1.000  C
  C27      1.0000 0.28178  0.87662  0.70738  Biso   1.000  C
  O10      1.0000 0.91619  0.85799  0.80719  Biso   1.000  O
  C28      1.0000 0.57058  0.42230  0.79401  Biso   1.000  C
  C29      1.0000 0.02127  0.86548  0.83950  Biso   1.000  C
  C30      1.0000 0.20779  0.99338  0.92058  Biso   1.000  C
  O11      1.0000 0.34084  0.99740  0.74252  Biso   1.000  O
  C31      1.0000 0.46295  0.36077  0.81420  Biso   1.000  C
  C32      1.0000 0.05258  0.77251  0.82688  Biso   1.000  C
  C33      1.0000 0.24010  0.90352  0.90829  Biso   1.000  C
  C34      1.0000 0.26921  0.05500  0.73190  Biso   1.000  C
  O12      1.0000 0.42467  0.24136  0.77238  Biso   1.000  O
  C35      1.0000 0.16321  0.79548  0.86402  Biso   1.000  C
  C36      1.0000 0.32590  0.17963  0.78678  Biso   1.000  C
  C37      1.0000 0.18938  0.57798  0.40788  Biso   1.000  C
  C38      1.0000 0.06427  0.51516  0.36879  Biso   1.000  C
  O13      1.0000 0.21848  0.69630  0.43640  Biso   1.000  O
  O14      1.0000 0.05027  0.54120  0.30311  Biso   1.000  O
  C39      1.0000 0.33281  0.76489  0.47622  Biso   1.000  C
  C40      1.0000 0.93394  0.50274  0.26942  Biso   1.000  C
  C41      1.0000 0.34954  0.88682  0.51492  Biso   1.000  C
  C42      1.0000 0.93306  0.51387  0.18812  Biso   1.000  C
  O15      1.0000 0.33710  0.93979  0.46059  Biso   1.000  O
  O16      1.0000 0.98077  0.62399  0.19362  Biso   1.000  O
  C43      1.0000 0.34582  0.05267  0.49640  Biso   1.000  C
  C44      1.0000 0.98221  0.64824  0.13012  Biso   1.000  C
  C45      1.0000 0.31418  0.10578  0.44158  Biso   1.000  C
  C46      1.0000 0.06032  0.63104  0.08691  Biso   1.000  C
  C47      1.0000 0.91773  0.70693  0.11538  Biso   1.000  C
  O17      1.0000 0.39696  0.12129  0.39548  Biso   1.000  O
  O18      1.0000 0.12287  0.57617  0.10732  Biso   1.000  O
  C48      1.0000 0.06872  0.67222  0.02930  Biso   1.000  C
  C49      1.0000 0.93053  0.75042  0.05889  Biso   1.000  C
  C50      1.0000 0.37805  0.16816  0.34121  Biso   1.000  C
  C51      1.0000 0.20848  0.56604  0.06712  Biso   1.000  C
  C52      1.0000 0.00521  0.73275  0.01601  Biso   1.000  C
  C53      1.0000 0.86973  0.82701  0.05032  Biso   1.000  C
  C54      1.0000 0.46212  0.18452  0.29872  Biso   1.000  C
  C55      1.0000 0.28524  0.19400  0.32691  Biso   1.000  C
  C56      1.0000 0.27692  0.51849  0.10410  Biso   1.000  C
  O19      1.0000 0.93951  0.93767  0.10538  Biso   1.000  O
  O20      1.0000 0.54998  0.15274  0.31412  Biso   1.000  O
  C57      1.0000 0.45289  0.23048  0.24272  Biso   1.000  C
  C58      1.0000 0.27298  0.23563  0.26830  Biso   1.000  C
  O21      1.0000 0.33531  0.59660  0.17572  Biso   1.000  O
  C59      1.0000 0.90099  0.02510  0.11399  Biso   1.000  C
  C60      1.0000 0.63979  0.17803  0.27431  Biso   1.000  C
  C61      1.0000 0.35713  0.25397  0.22771  Biso   1.000  C
  C62      1.0000 0.16442  0.24988  0.24617  Biso   1.000  C
  C63      1.0000 0.42940  0.57770  0.20602  Biso   1.000  C
  C64      1.0000 0.79218  0.00659  0.07941  Biso   1.000  C
  C65      1.0000 0.97870  0.13448  0.16048  Biso   1.000  C
  C66      1.0000 0.71822  0.12343  0.29260  Biso   1.000  C
  O22      1.0000 0.08378  0.14198  0.19279  Biso   1.000  O
  C67      1.0000 0.53701  0.63920  0.18578  Biso   1.000  C
  C68      1.0000 0.75990  0.09653  0.09170  Biso   1.000  C
  C69      1.0000 0.94739  0.22746  0.17310  Biso   1.000  C
  O23      1.0000 0.65923  0.00260  0.25752  Biso   1.000  O
  O24      1.0000 0.57529  0.75861  0.22760  Biso   1.000  O
  C70      1.0000 0.83677  0.20452  0.13601  Biso   1.000  C
  C71      1.0000 0.73075  0.94496  0.26808  Biso   1.000  C
  C72      1.0000 0.67410  0.82042  0.21320  Biso   1.000  C
