data_image0
_cell_length_a       11.155
_cell_length_b       19.49
_cell_length_c       30.332
_cell_angle_alpha    90
_cell_angle_beta     90
_cell_angle_gamma    90

_symmetry_space_group_name_H-M    "P 1"
_symmetry_int_tables_number       1

loop_
  _symmetry_equiv_pos_as_xyz
  'x, y, z'

loop_
  _atom_site_label
  _atom_site_occupancy
  _atom_site_fract_x
  _atom_site_fract_y
  _atom_site_fract_z
  _atom_site_thermal_displace_type
  _atom_site_B_iso_or_equiv
  _atom_site_type_symbol
  C1       1.0000 0.50139  0.55818  0.53650  Biso   1.000  C
  C2       1.0000 0.58153  0.51242  0.55420  Biso   1.000  C
  H1       1.0000 0.52515  0.58610  0.51230  Biso   1.000  H
  C3       1.0000 0.38359  0.56429  0.55380  Biso   1.000  C
  C4       1.0000 0.54648  0.47199  0.59109  Biso   1.000  C
  C5       1.0000 0.70193  0.50821  0.53551  Biso   1.000  C
  C6       1.0000 0.35222  0.52329  0.58839  Biso   1.000  C
  C7       1.0000 0.29780  0.61190  0.53501  Biso   1.000  C
  C8       1.0000 0.43200  0.47732  0.60781  Biso   1.000  C
  H2       1.0000 0.60224  0.44130  0.60421  Biso   1.000  H
  N1       1.0000 0.78395  0.46978  0.55011  Biso   1.000  N
  H3       1.0000 0.71959  0.53622  0.51071  Biso   1.000  H
  H4       1.0000 0.27288  0.52612  0.59960  Biso   1.000  H
  N2       1.0000 0.32219  0.65480  0.50445  Biso   1.000  N
  H5       1.0000 0.21820  0.61098  0.54599  Biso   1.000  H
  C9       1.0000 0.39597  0.43638  0.64470  Biso   1.000  C
  C10      1.0000 0.89485  0.46829  0.52469  Biso   1.000  C
  C11      1.0000 0.22474  0.69210  0.48549  Biso   1.000  C
  N3       1.0000 0.29225  0.43858  0.66079  Biso   1.000  N
  H6       1.0000 0.45298  0.40631  0.65749  Biso   1.000  H
  H7       1.0000 0.89081  0.50308  0.50089  Biso   1.000  H
  C12      1.0000 0.91986  0.39502  0.50551  Biso   1.000  C
  H8       1.0000 0.90426  0.42268  0.51081  Biso   1.000  H
  C13      1.0000 0.00143  0.48281  0.55371  Biso   1.000  C
  H9       1.0000 0.15392  0.68758  0.50491  Biso   1.000  H
  H10      1.0000 0.20403  0.67111  0.45671  Biso   1.000  H
  C14      1.0000 0.25020  0.76609  0.47850  Biso   1.000  C
  C15      1.0000 0.26804  0.39651  0.69949  Biso   1.000  C
  H11      1.0000 0.95285  0.36562  0.52881  Biso   1.000  H
  H12      1.0000 0.97741  0.39841  0.48121  Biso   1.000  H
  H13      1.0000 0.84473  0.37512  0.49459  Biso   1.000  H
  H14      1.0000 0.99991  0.45151  0.57949  Biso   1.000  H
  N4       1.0000 0.00072  0.55418  0.56917  Biso   1.000  N
  H15      1.0000 0.07611  0.47399  0.53709  Biso   1.000  H
  C16      1.0000 0.10901  0.46532  0.52539  Biso   1.000  C
  N5       1.0000 0.26087  0.80221  0.52126  Biso   1.000  N
  H16      1.0000 0.32792  0.77060  0.46228  Biso   1.000  H
  C17      1.0000 0.15186  0.79718  0.45081  Biso   1.000  C
  C18      1.0000 0.22008  0.44171  0.73589  Biso   1.000  C
  H17      1.0000 0.34263  0.37358  0.70928  Biso   1.000  H
  C19      1.0000 0.18207  0.34238  0.69049  Biso   1.000  C
  H18      1.0000 0.20843  0.36060  0.69211  Biso   1.000  H
  C20      1.0000 0.01031  0.56480  0.61011  Biso   1.000  C
  H19      1.0000 0.11923  0.50062  0.50270  Biso   1.000  H
  H20      1.0000 0.09655  0.42057  0.51141  Biso   1.000  H
  H21      1.0000 0.18100  0.46352  0.54391  Biso   1.000  H
  C21      1.0000 0.35527  0.83509  0.52872  Biso   1.000  C
  H22      1.0000 0.07530  0.79318  0.46641  Biso   1.000  H
  H23      1.0000 0.14702  0.77281  0.42259  Biso   1.000  H
  H24      1.0000 0.16970  0.84572  0.44540  Biso   1.000  H
  N6       1.0000 0.31331  0.48928  0.75059  Biso   1.000  N
  H25      1.0000 0.14998  0.46788  0.72511  Biso   1.000  H
  H26      1.0000 0.19381  0.41288  0.76101  Biso   1.000  H
  C22      1.0000 0.18100  0.39502  0.77120  Biso   1.000  C
  H27      1.0000 0.18064  0.31021  0.71528  Biso   1.000  H
  H28      1.0000 0.20547  0.31791  0.66359  Biso   1.000  H
  H29      1.0000 0.10229  0.36239  0.68660  Biso   1.000  H
  C23      1.0000 0.00995  0.63191  0.63049  Biso   1.000  C
  H30      1.0000 0.01820  0.52591  0.62891  Biso   1.000  H
  C24      1.0000 0.38252  0.87122  0.56999  Biso   1.000  C
  H31      1.0000 0.41363  0.83669  0.50590  Biso   1.000  H
  C25      1.0000 0.29090  0.55208  0.74970  Biso   1.000  C
  H32      1.0000 0.25038  0.38148  0.78900  Biso   1.000  H
  H33      1.0000 0.14442  0.35408  0.75811  Biso   1.000  H
  H34      1.0000 0.12228  0.41842  0.78989  Biso   1.000  H
  C26      1.0000 0.00117  0.69312  0.60510  Biso   1.000  C
  C27      1.0000 0.01398  0.63751  0.67622  Biso   1.000  C
  C28      1.0000 0.30067  0.87250  0.60540  Biso   1.000  C
  C29      1.0000 0.49332  0.90139  0.57530  Biso   1.000  C
  C30      1.0000 0.37571  0.60528  0.76299  Biso   1.000  C
  H35      1.0000 0.21398  0.56609  0.73971  Biso   1.000  H
  C31      1.0000 0.99399  0.75608  0.62535  Biso   1.000  C
  H36      1.0000 0.00009  0.69030  0.57382  Biso   1.000  H
  C32      1.0000 0.00735  0.70097  0.69643  Biso   1.000  C
  H37      1.0000 0.02160  0.59728  0.69369  Biso   1.000  H
  C33      1.0000 0.32981  0.90339  0.64460  Biso   1.000  C
  H38      1.0000 0.22420  0.85182  0.60210  Biso   1.000  H
  H39      1.0000 0.54827  0.90169  0.55140  Biso   1.000  H
  C34      1.0000 0.52613  0.93191  0.61559  Biso   1.000  C
  C35      1.0000 0.49449  0.58861  0.77400  Biso   1.000  C
  C36      1.0000 0.33940  0.67188  0.76639  Biso   1.000  C
  C37      1.0000 0.99776  0.75988  0.67147  Biso   1.000  C
  C38      1.0000 0.97651  0.81888  0.59900  Biso   1.000  C
  C39      1.0000 0.00269  0.70729  0.74515  Biso   1.000  C
  C40      1.0000 0.44563  0.93289  0.64981  Biso   1.000  C
  C41      1.0000 0.24599  0.90118  0.68139  Biso   1.000  C
  C42      1.0000 0.64895  0.95870  0.62202  Biso   1.000  C
  C43      1.0000 0.57293  0.63792  0.78772  Biso   1.000  C
  H40      1.0000 0.52057  0.54228  0.77189  Biso   1.000  H
  C44      1.0000 0.41694  0.72299  0.78040  Biso   1.000  C
  H41      1.0000 0.25908  0.68348  0.75900  Biso   1.000  H
  H42      1.0000 0.99355  0.80328  0.68561  Biso   1.000  H
  N7       1.0000 0.95840  0.87650  0.61648  Biso   1.000  N
  H43      1.0000 0.97902  0.81580  0.56782  Biso   1.000  H
  N8       1.0000 0.99794  0.65690  0.77024  Biso   1.000  N
  H44      1.0000 0.00341  0.75192  0.75781  Biso   1.000  H
  H45      1.0000 0.46723  0.95351  0.67701  Biso   1.000  H
  N9       1.0000 0.26992  0.92699  0.71914  Biso   1.000  N
  H46      1.0000 0.17051  0.87958  0.67721  Biso   1.000  H
  N10      1.0000 0.72828  0.95249  0.59297  Biso   1.000  N
  H47      1.0000 0.66822  0.98132  0.64879  Biso   1.000  H
  C45      1.0000 0.53384  0.70549  0.79101  Biso   1.000  C
  C46      1.0000 0.69404  0.61719  0.80291  Biso   1.000  C
  C47      1.0000 0.37562  0.79430  0.78610  Biso   1.000  C
  C48      1.0000 0.94514  0.93561  0.58681  Biso   1.000  C
  C49      1.0000 0.98754  0.66968  0.81729  Biso   1.000  C
  C50      1.0000 0.18243  0.91878  0.75389  Biso   1.000  C
  C51      1.0000 0.84563  0.98291  0.60161  Biso   1.000  C
  H48      1.0000 0.58781  0.74012  0.80061  Biso   1.000  H
  N11      1.0000 0.76871  0.65880  0.81989  Biso   1.000  N
  H49      1.0000 0.71690  0.57060  0.79982  Biso   1.000  H
  N12      1.0000 0.26849  0.81308  0.78333  Biso   1.000  N
  H50      1.0000 0.43424  0.82832  0.79240  Biso   1.000  H
  H51      1.0000 0.92775  0.91898  0.55661  Biso   1.000  H
  C52      1.0000 0.06186  0.97748  0.58559  Biso   1.000  C
  H52      1.0000 0.02152  0.96152  0.58592  Biso   1.000  H
  H53      1.0000 0.97750  0.71950  0.82260  Biso   1.000  H
  C53      1.0000 0.88122  0.63140  0.83578  Biso   1.000  C
  H54      1.0000 0.06150  0.65449  0.83239  Biso   1.000  H
  C54      1.0000 0.10453  0.65398  0.84070  Biso   1.000  C
  H55      1.0000 0.11430  0.89092  0.74311  Biso   1.000  H
  H56      1.0000 0.15123  0.96429  0.76279  Biso   1.000  H
  C55      1.0000 0.23980  0.88399  0.79299  Biso   1.000  C
  C56      1.0000 0.13698  0.98348  0.76840  Biso   1.000  C
  H57      1.0000 0.85397  0.99210  0.63359  Biso   1.000  H
  H58      1.0000 0.85226  0.02709  0.58578  Biso   1.000  H
  C57      1.0000 0.85585  0.04248  0.56551  Biso   1.000  C
  H59      1.0000 0.08104  0.99369  0.61539  Biso   1.000  H
  H60      1.0000 0.12730  0.94859  0.57471  Biso   1.000  H
  H61      1.0000 0.05155  0.01698  0.56590  Biso   1.000  H
  H62      1.0000 0.88714  0.58240  0.82741  Biso   1.000  H
  C58      1.0000 0.88301  0.63628  0.88820  Biso   1.000  C
  H63      1.0000 0.88283  0.63422  0.86839  Biso   1.000  H
  H64      1.0000 0.13052  0.60739  0.83331  Biso   1.000  H
  H65      1.0000 0.09287  0.65762  0.87261  Biso   1.000  H
  H66      1.0000 0.16584  0.68692  0.83130  Biso   1.000  H
  H67      1.0000 0.31412  0.90883  0.80110  Biso   1.000  H
  C59      1.0000 0.15697  0.88512  0.83311  Biso   1.000  C
  H68      1.0000 0.18449  0.88589  0.81841  Biso   1.000  H
  H69      1.0000 0.08068  0.97630  0.79279  Biso   1.000  H
  H70      1.0000 0.20341  0.01242  0.77839  Biso   1.000  H
  H71      1.0000 0.09520  0.00631  0.74400  Biso   1.000  H
  H72      1.0000 0.84348  0.02309  0.53600  Biso   1.000  H
  H73      1.0000 0.93554  0.06352  0.56709  Biso   1.000  H
  H74      1.0000 0.79462  0.07748  0.57121  Biso   1.000  H
  H75      1.0000 0.95831  0.61780  0.89941  Biso   1.000  H
  H76      1.0000 0.87450  0.68440  0.89720  Biso   1.000  H
  H77      1.0000 0.81560  0.60970  0.90030  Biso   1.000  H
  H78      1.0000 0.07808  0.86711  0.82481  Biso   1.000  H
  H79      1.0000 0.14854  0.93232  0.84370  Biso   1.000  H
  H80      1.0000 0.19121  0.85649  0.85649  Biso   1.000  H
  C60      1.0000 0.35580  0.45752  0.43449  Biso   1.000  C
  C61      1.0000 0.34558  0.51709  0.39839  Biso   1.000  C
  H81      1.0000 0.35222  0.47291  0.41422  Biso   1.000  H
  H82      1.0000 0.34352  0.47691  0.46400  Biso   1.000  H
  H83      1.0000 0.43550  0.43648  0.43291  Biso   1.000  H
  H84      1.0000 0.29458  0.42252  0.42879  Biso   1.000  H
  N13      1.0000 0.22833  0.54751  0.40703  Biso   1.000  N
  H85      1.0000 0.35392  0.50790  0.36641  Biso   1.000  H
  C62      1.0000 0.44509  0.56439  0.41319  Biso   1.000  C
  C63      1.0000 0.14890  0.54130  0.37798  Biso   1.000  C
  N14      1.0000 0.45845  0.62350  0.38352  Biso   1.000  N
  H86      1.0000 0.42770  0.58102  0.44339  Biso   1.000  H
  C64      1.0000 0.56181  0.52252  0.41441  Biso   1.000  C
  H87      1.0000 0.52147  0.53848  0.41408  Biso   1.000  H
  C65      1.0000 0.02609  0.56809  0.38441  Biso   1.000  C
  H88      1.0000 0.16818  0.51868  0.35121  Biso   1.000  H
  C66      1.0000 0.47656  0.68112  0.40100  Biso   1.000  C
  H89      1.0000 0.58100  0.50631  0.38461  Biso   1.000  H
  H90      1.0000 0.55150  0.48302  0.43410  Biso   1.000  H
  H91      1.0000 0.62734  0.55141  0.42529  Biso   1.000  H
  C67      1.0000 0.99328  0.59861  0.42470  Biso   1.000  C
  C68      1.0000 0.94558  0.56711  0.35019  Biso   1.000  C
  C69      1.0000 0.49404  0.74392  0.37465  Biso   1.000  C
  H92      1.0000 0.47898  0.68420  0.43218  Biso   1.000  H
  H93      1.0000 0.04832  0.59831  0.44860  Biso   1.000  H
  C70      1.0000 0.88247  0.62878  0.43001  Biso   1.000  C
  C71      1.0000 0.82976  0.59661  0.35540  Biso   1.000  C
  H94      1.0000 0.96719  0.54649  0.32299  Biso   1.000  H
  C72      1.0000 0.49771  0.74012  0.32853  Biso   1.000  C
  C73      1.0000 0.50112  0.80688  0.39490  Biso   1.000  C
  C74      1.0000 0.80072  0.62750  0.39460  Biso   1.000  C
  C75      1.0000 0.85531  0.66491  0.47128  Biso   1.000  C
  C76      1.0000 0.74603  0.59882  0.31861  Biso   1.000  C
  C77      1.0000 0.50731  0.79903  0.30357  Biso   1.000  C
  H95      1.0000 0.49350  0.69672  0.31439  Biso   1.000  H
  H96      1.0000 0.50013  0.80970  0.42618  Biso   1.000  H
  C78      1.0000 0.50991  0.86809  0.36951  Biso   1.000  C
  H97      1.0000 0.72416  0.64818  0.39790  Biso   1.000  H
  N15      1.0000 0.76091  0.69779  0.47874  Biso   1.000  N
  H98      1.0000 0.91358  0.66331  0.49410  Biso   1.000  H
  N16      1.0000 0.76988  0.57301  0.28086  Biso   1.000  N
  H99      1.0000 0.67046  0.62042  0.32279  Biso   1.000  H
  C79      1.0000 0.51403  0.86249  0.32378  Biso   1.000  C
  C80      1.0000 0.50273  0.79271  0.25485  Biso   1.000  C
  C81      1.0000 0.51035  0.93520  0.38989  Biso   1.000  C
  C82      1.0000 0.75016  0.73391  0.52150  Biso   1.000  C
  C83      1.0000 0.68238  0.58122  0.24611  Biso   1.000  C
  H100     1.0000 0.52165  0.90272  0.30631  Biso   1.000  H
  N17      1.0000 0.49789  0.84310  0.22976  Biso   1.000  N
  H101     1.0000 0.50345  0.74808  0.24219  Biso   1.000  H
  N18      1.0000 0.50067  0.94582  0.43083  Biso   1.000  N
  H102     1.0000 0.51824  0.97409  0.37109  Biso   1.000  H
  C84      1.0000 0.72470  0.80790  0.51451  Biso   1.000  C
  H103     1.0000 0.82788  0.72940  0.53772  Biso   1.000  H
  C85      1.0000 0.65190  0.70282  0.54919  Biso   1.000  C
  H104     1.0000 0.61425  0.60908  0.25689  Biso   1.000  H
  H105     1.0000 0.65119  0.53571  0.23721  Biso   1.000  H
  C86      1.0000 0.73976  0.61601  0.20701  Biso   1.000  C
  C87      1.0000 0.63702  0.51652  0.23160  Biso   1.000  C
  C88      1.0000 0.48749  0.83032  0.18271  Biso   1.000  C
  C89      1.0000 0.50139  0.01719  0.44629  Biso   1.000  C
  N19      1.0000 0.82223  0.84520  0.49555  Biso   1.000  N
  H106     1.0000 0.65388  0.81242  0.49509  Biso   1.000  H
  H107     1.0000 0.70399  0.82889  0.54329  Biso   1.000  H
  H108     1.0000 0.57526  0.70682  0.53359  Biso   1.000  H
  H109     1.0000 0.64697  0.72719  0.57741  Biso   1.000  H
  H110     1.0000 0.66965  0.65428  0.55460  Biso   1.000  H
  N20      1.0000 0.76853  0.68692  0.21667  Biso   1.000  N
  H111     1.0000 0.81407  0.59117  0.19890  Biso   1.000  H
  C90      1.0000 0.65701  0.61488  0.16689  Biso   1.000  C
  H112     1.0000 0.68454  0.61411  0.18159  Biso   1.000  H
  H113     1.0000 0.70336  0.48758  0.22161  Biso   1.000  H
  H114     1.0000 0.58073  0.52370  0.20721  Biso   1.000  H
  H115     1.0000 0.59516  0.49369  0.25600  Biso   1.000  H
  H116     1.0000 0.47754  0.78050  0.17740  Biso   1.000  H
  H117     1.0000 0.56154  0.84551  0.16761  Biso   1.000  H
  C91      1.0000 0.38117  0.86860  0.16422  Biso   1.000  C
  C92      1.0000 0.60448  0.84602  0.15930  Biso   1.000  C
  H118     1.0000 0.49996  0.04849  0.42051  Biso   1.000  H
  H119     1.0000 0.57615  0.02601  0.46291  Biso   1.000  H
  C93      1.0000 0.39480  0.03171  0.47531  Biso   1.000  C
  C94      1.0000 0.60905  0.03468  0.47461  Biso   1.000  C
  C95      1.0000 0.79776  0.88810  0.46499  Biso   1.000  C
  C96      1.0000 0.87557  0.70570  0.21390  Biso   1.000  C
  H120     1.0000 0.57813  0.63289  0.17519  Biso   1.000  H
  H121     1.0000 0.64850  0.56768  0.15630  Biso   1.000  H
  H122     1.0000 0.69117  0.64351  0.14351  Biso   1.000  H
  N21      1.0000 0.26867  0.84120  0.18011  Biso   1.000  N
  H123     1.0000 0.38709  0.91760  0.17259  Biso   1.000  H
  C97      1.0000 0.38297  0.86372  0.11180  Biso   1.000  C
  H124     1.0000 0.38279  0.86578  0.13161  Biso   1.000  H
  H125     1.0000 0.63048  0.89261  0.16669  Biso   1.000  H
  H126     1.0000 0.59283  0.84238  0.12739  Biso   1.000  H
  H127     1.0000 0.66580  0.81308  0.16870  Biso   1.000  H
  H128     1.0000 0.39077  0.99692  0.49911  Biso   1.000  H
  N22      1.0000 0.28391  0.03022  0.44989  Biso   1.000  N
  C98      1.0000 0.41981  0.10498  0.49449  Biso   1.000  C
  H129     1.0000 0.40421  0.07732  0.48919  Biso   1.000  H
  H130     1.0000 0.61918  0.99938  0.49730  Biso   1.000  H
  H131     1.0000 0.59650  0.07943  0.48859  Biso   1.000  H
  H132     1.0000 0.68104  0.03648  0.45609  Biso   1.000  H
  C99      1.0000 0.88364  0.93571  0.44620  Biso   1.000  C
  H133     1.0000 0.71815  0.88902  0.45401  Biso   1.000  H
  C100     1.0000 0.91690  0.77701  0.21960  Biso   1.000  C
  H134     1.0000 0.93420  0.67168  0.20760  Biso   1.000  H
  C101     1.0000 0.19399  0.88281  0.19709  Biso   1.000  C
  H135     1.0000 0.45827  0.88220  0.10059  Biso   1.000  H
  H136     1.0000 0.37454  0.81560  0.10280  Biso   1.000  H
  H137     1.0000 0.31564  0.89030  0.09970  Biso   1.000  H
  C102     1.0000 0.20188  0.99179  0.46449  Biso   1.000  C
  H138     1.0000 0.45280  0.13438  0.47119  Biso   1.000  H
  H139     1.0000 0.47745  0.10159  0.51879  Biso   1.000  H
  H140     1.0000 0.34469  0.12488  0.50541  Biso   1.000  H
  C103     1.0000 0.00143  0.94182  0.46350  Biso   1.000  C
  C104     1.0000 0.85217  0.97671  0.41161  Biso   1.000  C
  C105     1.0000 0.03380  0.79451  0.20899  Biso   1.000  C
  C106     1.0000 0.83935  0.82812  0.23361  Biso   1.000  C
  C107     1.0000 0.07288  0.86208  0.21228  Biso   1.000  C
  H141     1.0000 0.21694  0.92940  0.20018  Biso   1.000  H
  C108     1.0000 0.08149  0.98758  0.44580  Biso   1.000  C
  H142     1.0000 0.21963  0.96378  0.48929  Biso   1.000  H
  H143     1.0000 0.02510  0.91390  0.48770  Biso   1.000  H
  H144     1.0000 0.77293  0.97388  0.40040  Biso   1.000  H
  C109     1.0000 0.93196  0.02268  0.39219  Biso   1.000  C
  H145     1.0000 0.08776  0.75988  0.19939  Biso   1.000  H
  C110     1.0000 0.87566  0.89472  0.23701  Biso   1.000  C
  H146     1.0000 0.75912  0.81652  0.24100  Biso   1.000  H
  C111     1.0000 0.99453  0.91139  0.22600  Biso   1.000  C
  C112     1.0000 0.04653  0.02801  0.40891  Biso   1.000  C
  C113     1.0000 0.89601  0.06362  0.35530  Biso   1.000  C
  C114     1.0000 0.79086  0.94792  0.25030  Biso   1.000  C
  H147     1.0000 0.02062  0.95772  0.22811  Biso   1.000  H
  H148     1.0000 0.10220  0.05870  0.39579  Biso   1.000  H
  N23      1.0000 0.79220  0.06142  0.33921  Biso   1.000  N
  H149     1.0000 0.95303  0.09369  0.34251  Biso   1.000  H
  H150     1.0000 0.71403  0.93391  0.26029  Biso   1.000  H
  N24      1.0000 0.81327  0.01072  0.24941  Biso   1.000  N
  C115     1.0000 0.76800  0.10349  0.30051  Biso   1.000  C
  C116     1.0000 0.72013  0.05829  0.26411  Biso   1.000  C
  H151     1.0000 0.84258  0.12642  0.29072  Biso   1.000  H
  C117     1.0000 0.68212  0.15762  0.30951  Biso   1.000  C
  H152     1.0000 0.70838  0.13940  0.30789  Biso   1.000  H
  H153     1.0000 0.65002  0.03212  0.27489  Biso   1.000  H
  H154     1.0000 0.69377  0.08712  0.23899  Biso   1.000  H
  C118     1.0000 0.68095  0.10498  0.22880  Biso   1.000  C
  H155     1.0000 0.68059  0.18979  0.28472  Biso   1.000  H
  H156     1.0000 0.70551  0.18209  0.33641  Biso   1.000  H
  H157     1.0000 0.60233  0.13761  0.31340  Biso   1.000  H
  H158     1.0000 0.75043  0.11852  0.21100  Biso   1.000  H
  H159     1.0000 0.64437  0.14592  0.24189  Biso   1.000  H
  H160     1.0000 0.62232  0.08158  0.21011  Biso   1.000  H
  C119     1.0000 0.61703  0.36372  0.38820  Biso   1.000  C
  C120     1.0000 0.61883  0.36860  0.33578  Biso   1.000  C
  H161     1.0000 0.61721  0.36578  0.36839  Biso   1.000  H
  H162     1.0000 0.54173  0.38220  0.39941  Biso   1.000  H
  H163     1.0000 0.62555  0.31560  0.39720  Biso   1.000  H
  H164     1.0000 0.68445  0.39030  0.40030  Biso   1.000  H
  C121     1.0000 0.51251  0.33032  0.31729  Biso   1.000  C
  N25      1.0000 0.73133  0.34120  0.31989  Biso   1.000  N
  H165     1.0000 0.61291  0.41760  0.32741  Biso   1.000  H
  N26      1.0000 0.50211  0.34310  0.27024  Biso   1.000  N
  H166     1.0000 0.52255  0.28050  0.32260  Biso   1.000  H
  H167     1.0000 0.43855  0.34551  0.33239  Biso   1.000  H
  C122     1.0000 0.39552  0.34602  0.34070  Biso   1.000  C
  C123     1.0000 0.80601  0.38281  0.30291  Biso   1.000  C
  C124     1.0000 0.49736  0.29271  0.24515  Biso   1.000  C
  H168     1.0000 0.36952  0.39261  0.33331  Biso   1.000  H
  H169     1.0000 0.40717  0.34238  0.37261  Biso   1.000  H
  H170     1.0000 0.33420  0.31308  0.33130  Biso   1.000  H
  C125     1.0000 0.92712  0.36208  0.28772  Biso   1.000  C
  H171     1.0000 0.78315  0.42940  0.29982  Biso   1.000  H
  C126     1.0000 0.49269  0.29903  0.19643  Biso   1.000  C
  H172     1.0000 0.49664  0.24808  0.25781  Biso   1.000  H
  C127     1.0000 0.96620  0.29451  0.29101  Biso   1.000  C
  C128     1.0000 0.00556  0.41139  0.27400  Biso   1.000  C
  C129     1.0000 0.50229  0.24012  0.17147  Biso   1.000  C
  C130     1.0000 0.48597  0.36249  0.17622  Biso   1.000  C
  H173     1.0000 0.91224  0.25988  0.30061  Biso   1.000  H
  C131     1.0000 0.08310  0.27701  0.28040  Biso   1.000  C
  H174     1.0000 0.97947  0.45772  0.27189  Biso   1.000  H
  C132     1.0000 0.12434  0.39472  0.26299  Biso   1.000  C
  H175     1.0000 0.50650  0.19672  0.18561  Biso   1.000  H
  C133     1.0000 0.50605  0.24392  0.12535  Biso   1.000  C
  C134     1.0000 0.49009  0.36809  0.13049  Biso   1.000  C
  H176     1.0000 0.47844  0.40272  0.19369  Biso   1.000  H
  C135     1.0000 0.16065  0.32812  0.26639  Biso   1.000  C
  C136     1.0000 0.12443  0.20570  0.28610  Biso   1.000  C
  C137     1.0000 0.20914  0.44792  0.24970  Biso   1.000  C
  C138     1.0000 0.49888  0.30688  0.10510  Biso   1.000  C
  C139     1.0000 0.52353  0.18112  0.09900  Biso   1.000  C
  C140     1.0000 0.48974  0.43520  0.11011  Biso   1.000  C
  H177     1.0000 0.24097  0.31652  0.25900  Biso   1.000  H
  N27      1.0000 0.23156  0.18692  0.28333  Biso   1.000  N
  H178     1.0000 0.06580  0.17168  0.29240  Biso   1.000  H
  N28      1.0000 0.18673  0.51072  0.25059  Biso   1.000  N
  H179     1.0000 0.28606  0.43391  0.23971  Biso   1.000  H
  H180     1.0000 0.49996  0.30970  0.07382  Biso   1.000  H
  N29      1.0000 0.54164  0.12350  0.11648  Biso   1.000  N
  H181     1.0000 0.52102  0.18420  0.06782  Biso   1.000  H
  N30      1.0000 0.49933  0.44582  0.06917  Biso   1.000  N
  H182     1.0000 0.48185  0.47409  0.12891  Biso   1.000  H
  C141     1.0000 0.26024  0.11601  0.29299  Biso   1.000  C
  C142     1.0000 0.27996  0.55829  0.23589  Biso   1.000  C
  C143     1.0000 0.55491  0.06439  0.08681  Biso   1.000  C
  C144     1.0000 0.49861  0.51719  0.05371  Biso   1.000  C
  C145     1.0000 0.31762  0.08122  0.25389  Biso   1.000  C
  H183     1.0000 0.18593  0.09117  0.30110  Biso   1.000  H
  C146     1.0000 0.34307  0.11488  0.33311  Biso   1.000  C
  H184     1.0000 0.31555  0.11411  0.31841  Biso   1.000  H
  H185     1.0000 0.35007  0.53212  0.22511  Biso   1.000  H
  H186     1.0000 0.30623  0.58712  0.26101  Biso   1.000  H
  C147     1.0000 0.23200  0.60349  0.19949  Biso   1.000  C
  C148     1.0000 0.31905  0.60498  0.27120  Biso   1.000  C
  C149     1.0000 0.65442  0.01709  0.10161  Biso   1.000  C
  H187     1.0000 0.57230  0.08102  0.05661  Biso   1.000  H
  C150     1.0000 0.43819  0.02252  0.08559  Biso   1.000  C
  H188     1.0000 0.47853  0.03848  0.08592  Biso   1.000  H
  H189     1.0000 0.50013  0.54849  0.07949  Biso   1.000  H
  H190     1.0000 0.42394  0.52601  0.03709  Biso   1.000  H
  C151     1.0000 0.60520  0.53171  0.02469  Biso   1.000  C
  C152     1.0000 0.39104  0.53468  0.02539  Biso   1.000  C
  N31      1.0000 0.23012  0.07301  0.21914  Biso   1.000  N
  H191     1.0000 0.38575  0.10908  0.24311  Biso   1.000  H
  H192     1.0000 0.34881  0.03571  0.26279  Biso   1.000  H
  C153     1.0000 0.36307  0.01652  0.26840  Biso   1.000  C
  H193     1.0000 0.42196  0.13289  0.32481  Biso   1.000  H
  H194     1.0000 0.35150  0.06768  0.34370  Biso   1.000  H
  H195     1.0000 0.30883  0.14351  0.35649  Biso   1.000  H
  N32      1.0000 0.20780  0.56142  0.16079  Biso   1.000  N
  H196     1.0000 0.15742  0.62642  0.20928  Biso   1.000  H
  C154     1.0000 0.31797  0.65762  0.19049  Biso   1.000  C
  H197     1.0000 0.29162  0.63940  0.19211  Biso   1.000  H
  H198     1.0000 0.24966  0.61852  0.28900  Biso   1.000  H
  H199     1.0000 0.35563  0.64592  0.25811  Biso   1.000  H
  H200     1.0000 0.37777  0.58158  0.28989  Biso   1.000  H
  N33      1.0000 0.77176  0.04751  0.09297  Biso   1.000  N
  H201     1.0000 0.64608  0.00790  0.13359  Biso   1.000  H
  H202     1.0000 0.64778  0.97291  0.08578  Biso   1.000  H
  C155     1.0000 0.64420  0.95752  0.06551  Biso   1.000  C
  H203     1.0000 0.41900  0.00631  0.11539  Biso   1.000  H
  H204     1.0000 0.37275  0.05141  0.07471  Biso   1.000  H
  H205     1.0000 0.44850  0.98302  0.06590  Biso   1.000  H
  N34      1.0000 0.71609  0.53022  0.05011  Biso   1.000  N
  H206     1.0000 0.60923  0.49692  0.00089  Biso   1.000  H
  C156     1.0000 0.58019  0.60498  0.00551  Biso   1.000  C
  H207     1.0000 0.59579  0.57732  0.01081  Biso   1.000  H
  H208     1.0000 0.38082  0.49938  0.00270  Biso   1.000  H
  H209     1.0000 0.40350  0.57943  0.01141  Biso   1.000  H
  H210     1.0000 0.31905  0.53648  0.04391  Biso   1.000  H
  C157     1.0000 0.25406  0.09882  0.18139  Biso   1.000  C
  H211     1.0000 0.29664  0.98758  0.27839  Biso   1.000  H
  H212     1.0000 0.40484  0.99369  0.24400  Biso   1.000  H
  H213     1.0000 0.41936  0.02370  0.29279  Biso   1.000  H
  C158     1.0000 0.10399  0.56362  0.14470  Biso   1.000  C
  H214     1.0000 0.31941  0.68979  0.21528  Biso   1.000  H
  H215     1.0000 0.29458  0.68209  0.16359  Biso   1.000  H
  H216     1.0000 0.39776  0.63761  0.18660  Biso   1.000  H
  C159     1.0000 0.85110  0.04130  0.12202  Biso   1.000  C
  H217     1.0000 0.65648  0.97691  0.03600  Biso   1.000  H
  H218     1.0000 0.56450  0.93648  0.06709  Biso   1.000  H
  H219     1.0000 0.70542  0.92252  0.07121  Biso   1.000  H
  C160     1.0000 0.79812  0.49179  0.03551  Biso   1.000  C
  H220     1.0000 0.54720  0.63438  0.02881  Biso   1.000  H
  H221     1.0000 0.52264  0.60159  0.98121  Biso   1.000  H
  H222     1.0000 0.65531  0.62488  0.99459  Biso   1.000  H
  C161     1.0000 0.17024  0.09661  0.14460  Biso   1.000  C
  H223     1.0000 0.32954  0.12042  0.17721  Biso   1.000  H
  C162     1.0000 0.06804  0.52268  0.10781  Biso   1.000  C
  H224     1.0000 0.04706  0.59369  0.15749  Biso   1.000  H
  C163     1.0000 0.97391  0.06809  0.11559  Biso   1.000  C
  H225     1.0000 0.83182  0.01868  0.14879  Biso   1.000  H
  C164     1.0000 0.91851  0.48758  0.05420  Biso   1.000  C
  H226     1.0000 0.78046  0.46378  0.01071  Biso   1.000  H
  C165     1.0000 0.05442  0.06711  0.14981  Biso   1.000  C
  C166     1.0000 0.19937  0.12750  0.10540  Biso   1.000  C
  C167     1.0000 0.95356  0.52801  0.09109  Biso   1.000  C
  C168     1.0000 0.14783  0.47671  0.08839  Biso   1.000  C
  C169     1.0000 0.00672  0.09861  0.07530  Biso   1.000  C
  C170     1.0000 0.99866  0.44182  0.03650  Biso   1.000  C
  H227     1.0000 0.03281  0.04649  0.17701  Biso   1.000  H
  C171     1.0000 0.11753  0.12878  0.06999  Biso   1.000  C
  H228     1.0000 0.27584  0.14818  0.10210  Biso   1.000  H
  H229     1.0000 0.89780  0.55870  0.10421  Biso   1.000  H
  C172     1.0000 0.11645  0.43571  0.05380  Biso   1.000  C
  H230     1.0000 0.22716  0.47388  0.09960  Biso   1.000  H
  H231     1.0000 0.95168  0.09831  0.05140  Biso   1.000  H
  H232     1.0000 0.97490  0.41390  0.01230  Biso   1.000  H
  C173     1.0000 0.14469  0.16491  0.02872  Biso   1.000  C
  C174     1.0000 0.20224  0.38810  0.03501  Biso   1.000  C
  N35      1.0000 0.23918  0.19779  0.02126  Biso   1.000  N
  H233     1.0000 0.08642  0.16331  0.00590  Biso   1.000  H
  N36      1.0000 0.17786  0.34520  0.00445  Biso   1.000  N
  H234     1.0000 0.28185  0.38902  0.04599  Biso   1.000  H
  C175     1.0000 0.24984  0.23391  0.97850  Biso   1.000  C
  C176     1.0000 0.27530  0.30790  0.98549  Biso   1.000  C
  H235     1.0000 0.17212  0.22940  0.96228  Biso   1.000  H
  C177     1.0000 0.34810  0.20282  0.95081  Biso   1.000  C
  H236     1.0000 0.29601  0.32889  0.95671  Biso   1.000  H
  H237     1.0000 0.34612  0.31242  0.00491  Biso   1.000  H
  H238     1.0000 0.42474  0.20682  0.96641  Biso   1.000  H
  H239     1.0000 0.35303  0.22719  0.92259  Biso   1.000  H
  H240     1.0000 0.33035  0.15428  0.94540  Biso   1.000  H
  C178     1.0000 0.84303  0.38512  0.66689  Biso   1.000  C
  C179     1.0000 0.76020  0.38399  0.70701  Biso   1.000  C
  H241     1.0000 0.81551  0.38589  0.68159  Biso   1.000  H
  H242     1.0000 0.92192  0.36711  0.67519  Biso   1.000  H
  H243     1.0000 0.85155  0.43232  0.65630  Biso   1.000  H
  H244     1.0000 0.80879  0.35649  0.64351  Biso   1.000  H
  N37      1.0000 0.73151  0.31308  0.71667  Biso   1.000  N
  C180     1.0000 0.81766  0.41878  0.74611  Biso   1.000  C
  H245     1.0000 0.68588  0.40883  0.69890  Biso   1.000  H
  C181     1.0000 0.62438  0.29430  0.71390  Biso   1.000  C
  N38      1.0000 0.73008  0.42699  0.78086  Biso   1.000  N
  H246     1.0000 0.88570  0.39092  0.75689  Biso   1.000  H
  H247     1.0000 0.84886  0.46429  0.73721  Biso   1.000  H
  C182     1.0000 0.86302  0.48348  0.73160  Biso   1.000  C
  C183     1.0000 0.58315  0.22299  0.71960  Biso   1.000  C
  H248     1.0000 0.56584  0.32832  0.70760  Biso   1.000  H
  C184     1.0000 0.75401  0.40118  0.81861  Biso   1.000  C
  H249     1.0000 0.79659  0.51242  0.72161  Biso   1.000  H
  H250     1.0000 0.91932  0.47630  0.70721  Biso   1.000  H
  H251     1.0000 0.90480  0.50631  0.75600  Biso   1.000  H
  C185     1.0000 0.46625  0.20549  0.70899  Biso   1.000  C
  C186     1.0000 0.66060  0.17188  0.73361  Biso   1.000  C
  C187     1.0000 0.67019  0.40339  0.85540  Biso   1.000  C
  H252     1.0000 0.82949  0.37958  0.82279  Biso   1.000  H
  C188     1.0000 0.42707  0.13792  0.71228  Biso   1.000  C
  H253     1.0000 0.41219  0.24012  0.69939  Biso   1.000  H
  C189     1.0000 0.62429  0.10528  0.73701  Biso   1.000  C
  H254     1.0000 0.74092  0.18348  0.74100  Biso   1.000  H
  C190     1.0000 0.69933  0.37250  0.89460  Biso   1.000  C
  C191     1.0000 0.55437  0.43289  0.85019  Biso   1.000  C
  C192     1.0000 0.30605  0.11719  0.69709  Biso   1.000  C
  C193     1.0000 0.50551  0.08861  0.72600  Biso   1.000  C
  C194     1.0000 0.70910  0.05208  0.75030  Biso   1.000  C
  H255     1.0000 0.77580  0.35182  0.89790  Biso   1.000  H
  C195     1.0000 0.61748  0.37122  0.93001  Biso   1.000  C
  C196     1.0000 0.47387  0.43191  0.88441  Biso   1.000  C
  H256     1.0000 0.53286  0.45351  0.82299  Biso   1.000  H
  N39      1.0000 0.23129  0.15880  0.68011  Biso   1.000  N
  H257     1.0000 0.28310  0.07060  0.70018  Biso   1.000  H
  H258     1.0000 0.47943  0.04228  0.72811  Biso   1.000  H
  H259     1.0000 0.78602  0.06609  0.76029  Biso   1.000  H
  N40      1.0000 0.68669  0.98928  0.74941  Biso   1.000  N
  C197     1.0000 0.50668  0.40139  0.92470  Biso   1.000  C
  C198     1.0000 0.64473  0.33509  0.97128  Biso   1.000  C
  C199     1.0000 0.35114  0.45870  0.87798  Biso   1.000  C
  C200     1.0000 0.11878  0.13140  0.66422  Biso   1.000  C
  C201     1.0000 0.77992  0.94171  0.76411  Biso   1.000  C
  H260     1.0000 0.45173  0.40169  0.94860  Biso   1.000  H
  N41      1.0000 0.73913  0.30221  0.97874  Biso   1.000  N
  H261     1.0000 0.58637  0.33669  0.99410  Biso   1.000  H
  N42      1.0000 0.27172  0.45249  0.90703  Biso   1.000  N
  H262     1.0000 0.33178  0.48132  0.85121  Biso   1.000  H
  C202     1.0000 0.11699  0.13628  0.61180  Biso   1.000  C
  H263     1.0000 0.11717  0.13422  0.63161  Biso   1.000  H
  C203     1.0000 0.01246  0.16968  0.68271  Biso   1.000  C
  H264     1.0000 0.11286  0.08240  0.67259  Biso   1.000  H
  H265     1.0000 0.85002  0.96788  0.77489  Biso   1.000  H
  H266     1.0000 0.80619  0.91288  0.73899  Biso   1.000  H
  C204     1.0000 0.73205  0.89651  0.80051  Biso   1.000  C
  C205     1.0000 0.81900  0.89502  0.72880  Biso   1.000  C
  C206     1.0000 0.74980  0.26609  0.02150  Biso   1.000  C
  C207     1.0000 0.15437  0.48291  0.89839  Biso   1.000  C
  H267     1.0000 0.04169  0.11780  0.60059  Biso   1.000  H
  H268     1.0000 0.12550  0.18440  0.60280  Biso   1.000  H
  H269     1.0000 0.18440  0.10970  0.59970  Biso   1.000  H
  N43      1.0000 0.00206  0.15690  0.72976  Biso   1.000  N
  H270     1.0000 0.02250  0.21950  0.67740  Biso   1.000  H
  H271     1.0000 0.93850  0.15449  0.66761  Biso   1.000  H
  C208     1.0000 0.89547  0.15398  0.65930  Biso   1.000  C
  N44      1.0000 0.70784  0.93858  0.83921  Biso   1.000  N
  H272     1.0000 0.65737  0.87358  0.79072  Biso   1.000  H
  C209     1.0000 0.81793  0.84238  0.80951  Biso   1.000  C
  H273     1.0000 0.79166  0.86060  0.80789  Biso   1.000  H
  H274     1.0000 0.74962  0.88148  0.71100  Biso   1.000  H
  H275     1.0000 0.85558  0.85408  0.74189  Biso   1.000  H
  H276     1.0000 0.87772  0.91842  0.71011  Biso   1.000  H
  C210     1.0000 0.77535  0.19210  0.01451  Biso   1.000  C
  H277     1.0000 0.67208  0.27060  0.03772  Biso   1.000  H
  C211     1.0000 0.84814  0.29718  0.04919  Biso   1.000  C
  C212     1.0000 0.05486  0.43561  0.91319  Biso   1.000  C
  H278     1.0000 0.14612  0.49210  0.86641  Biso   1.000  H
  H279     1.0000 0.14783  0.52709  0.91422  Biso   1.000  H
  C213     1.0000 0.14424  0.54248  0.93449  Biso   1.000  C
  C214     1.0000 0.99731  0.20729  0.75485  Biso   1.000  C
  H280     1.0000 0.86948  0.10739  0.66669  Biso   1.000  H
  H281     1.0000 0.90722  0.15762  0.62739  Biso   1.000  H
  H282     1.0000 0.83416  0.18692  0.66870  Biso   1.000  H
  C215     1.0000 0.60403  0.93638  0.85530  Biso   1.000  C
  H283     1.0000 0.81945  0.81021  0.78472  Biso   1.000  H
  H284     1.0000 0.79453  0.81791  0.83641  Biso   1.000  H
  H285     1.0000 0.89771  0.86239  0.81340  Biso   1.000  H
  N45      1.0000 0.67781  0.15480  0.99555  Biso   1.000  N
  H286     1.0000 0.84608  0.18758  0.99509  Biso   1.000  H
  H287     1.0000 0.79606  0.17111  0.04329  Biso   1.000  H
  H288     1.0000 0.92470  0.29318  0.03359  Biso   1.000  H
  H289     1.0000 0.85298  0.27281  0.07741  Biso   1.000  H
  H290     1.0000 0.83030  0.34572  0.05460  Biso   1.000  H
  N46      1.0000 0.04160  0.37650  0.88352  Biso   1.000  N
  H291     1.0000 0.07234  0.41898  0.94339  Biso   1.000  H
  C216     1.0000 0.93823  0.47748  0.91441  Biso   1.000  C
  H292     1.0000 0.97848  0.46152  0.91408  Biso   1.000  H
  H293     1.0000 0.15652  0.52309  0.96400  Biso   1.000  H
  H294     1.0000 0.06455  0.56352  0.93291  Biso   1.000  H
  H295     1.0000 0.20538  0.57748  0.92879  Biso   1.000  H
  C217     1.0000 0.99274  0.20097  0.80357  Biso   1.000  C
  H296     1.0000 0.99659  0.25192  0.74219  Biso   1.000  H
  C218     1.0000 0.56800  0.97732  0.89219  Biso   1.000  C
  H297     1.0000 0.54702  0.90631  0.84251  Biso   1.000  H
  C219     1.0000 0.70220  0.11190  0.96499  Biso   1.000  C
  C220     1.0000 0.02349  0.31888  0.90100  Biso   1.000  C
  H298     1.0000 0.91896  0.49369  0.88461  Biso   1.000  H
  H299     1.0000 0.94854  0.51698  0.93410  Biso   1.000  H
  H300     1.0000 0.87270  0.44859  0.92529  Biso   1.000  H
  C221     1.0000 0.00233  0.25988  0.82853  Biso   1.000  C
  C222     1.0000 0.98602  0.13751  0.82378  Biso   1.000  C
  C223     1.0000 0.64778  0.02329  0.91161  Biso   1.000  C
  C224     1.0000 0.45352  0.97199  0.90891  Biso   1.000  C
  C225     1.0000 0.61641  0.06429  0.94620  Biso   1.000  C
  H301     1.0000 0.78180  0.11098  0.95401  Biso   1.000  H
  C226     1.0000 0.00601  0.25608  0.87465  Biso   1.000  C
  H302     1.0000 0.02098  0.31580  0.93218  Biso   1.000  H
  H303     1.0000 0.00654  0.30328  0.81439  Biso   1.000  H
  C227     1.0000 0.99014  0.13191  0.86951  Biso   1.000  C
  H304     1.0000 0.97840  0.09728  0.80631  Biso   1.000  H
  H305     1.0000 0.72712  0.02612  0.90040  Biso   1.000  H
  C228     1.0000 0.41847  0.01242  0.94580  Biso   1.000  C
  H306     1.0000 0.39785  0.94130  0.89579  Biso   1.000  H
  C229     1.0000 0.49861  0.05818  0.96350  Biso   1.000  C
  C230     1.0000 0.99892  0.19312  0.89490  Biso   1.000  C
  C231     1.0000 0.98969  0.06480  0.88989  Biso   1.000  C
  C232     1.0000 0.29807  0.00821  0.96449  Biso   1.000  C
  H307     1.0000 0.47494  0.08610  0.98770  Biso   1.000  H
  H308     1.0000 0.99991  0.19030  0.92618  Biso   1.000  H
  N47      1.0000 0.99928  0.05418  0.93083  Biso   1.000  N
  H309     1.0000 0.98180  0.02591  0.87109  Biso   1.000  H
  N48      1.0000 0.21614  0.96978  0.94989  Biso   1.000  N
  H310     1.0000 0.28041  0.03622  0.98929  Biso   1.000  H
  C233     1.0000 0.99857  0.98281  0.94629  Biso   1.000  C
  C234     1.0000 0.10524  0.96829  0.97531  Biso   1.000  C
  H311     1.0000 0.92389  0.97399  0.96291  Biso   1.000  H
  C235     1.0000 0.89099  0.96532  0.97461  Biso   1.000  C
  H312     1.0000 0.00009  0.95151  0.92051  Biso   1.000  H
  H313     1.0000 0.10919  0.00308  0.99911  Biso   1.000  H
  C236     1.0000 0.08023  0.89502  0.99449  Biso   1.000  C
  H314     1.0000 0.09583  0.92268  0.98919  Biso   1.000  H
  H315     1.0000 0.90354  0.92057  0.98859  Biso   1.000  H
  H316     1.0000 0.81900  0.96352  0.95609  Biso   1.000  H
  H317     1.0000 0.88077  0.00062  0.99730  Biso   1.000  H
  H318     1.0000 0.04724  0.86562  0.97119  Biso   1.000  H
  H319     1.0000 0.02259  0.89841  0.01879  Biso   1.000  H
  H320     1.0000 0.15527  0.87512  0.00541  Biso   1.000  H
