data_image0
_cell_length_a       17.558
_cell_length_b       17.558
_cell_length_c       28.692
_cell_angle_alpha    90
_cell_angle_beta     90
_cell_angle_gamma    120

_symmetry_space_group_name_H-M    "P 1"
_symmetry_int_tables_number       1

loop_
  _symmetry_equiv_pos_as_xyz
  'x, y, z'

loop_
  _atom_site_label
  _atom_site_occupancy
  _atom_site_fract_x
  _atom_site_fract_y
  _atom_site_fract_z
  _atom_site_thermal_displace_type
  _atom_site_B_iso_or_equiv
  _atom_site_type_symbol
  C1       1.0000 0.20389  0.73104  0.47790  Biso   1.000  C
  C2       1.0000 0.29519  0.79668  0.49770  Biso   1.000  C
  H1       1.0000 0.20270  0.67685  0.46741  Biso   1.000  H
  C3       1.0000 0.13689  0.70993  0.51711  Biso   1.000  C
  H2       1.0000 0.18993  0.75735  0.45100  Biso   1.000  H
  C4       1.0000 0.13686  0.71000  0.51711  Biso   1.000  C
  H3       1.0000 0.34036  0.81207  0.47330  Biso   1.000  H
  H4       1.0000 0.30922  0.76925  0.52401  Biso   1.000  H
  H5       1.0000 0.34042  0.81207  0.47330  Biso   1.000  H
  C5       1.0000 0.29644  0.87869  0.51429  Biso   1.000  C
  C6       1.0000 0.20386  0.73111  0.47790  Biso   1.000  C
  C7       1.0000 0.13523  0.78977  0.53381  Biso   1.000  C
  H6       1.0000 0.15163  0.68336  0.54360  Biso   1.000  H
  H7       1.0000 0.07754  0.66607  0.50579  Biso   1.000  H
  H8       1.0000 0.28576  0.90756  0.48749  Biso   1.000  H
  C8       1.0000 0.22603  0.85836  0.55221  Biso   1.000  C
  H9       1.0000 0.28582  0.90756  0.48749  Biso   1.000  H
  H10      1.0000 0.35543  0.91999  0.52712  Biso   1.000  H
  H11      1.0000 0.11779  0.81549  0.50760  Biso   1.000  H
  N1       1.0000 0.07212  0.76537  0.57211  Biso   1.000  N
  N2       1.0000 0.22521  0.93840  0.56389  Biso   1.000  N
  N3       1.0000 0.22515  0.93840  0.56389  Biso   1.000  N
  H12      1.0000 0.24023  0.83495  0.58072  Biso   1.000  H
  C9       1.0000 0.01659  0.79135  0.56730  Biso   1.000  C
  C10      1.0000 0.01653  0.79135  0.56730  Biso   1.000  C
  C11      1.0000 0.24316  0.96655  0.60449  Biso   1.000  C
  C12      1.0000 0.24321  0.96655  0.60449  Biso   1.000  C
  C13      1.0000 0.94387  0.76767  0.60132  Biso   1.000  C
  H13      1.0000 0.02159  0.82686  0.54130  Biso   1.000  H
  H14      1.0000 0.02164  0.82686  0.54130  Biso   1.000  H
  H15      1.0000 0.25438  0.93386  0.62711  Biso   1.000  H
  H16      1.0000 0.25444  0.93386  0.62711  Biso   1.000  H
  C14      1.0000 0.24757  0.05033  0.61850  Biso   1.000  C
  C15      1.0000 0.87218  0.77557  0.58779  Biso   1.000  C
  C16      1.0000 0.94616  0.73650  0.64551  Biso   1.000  C
  C17      1.0000 0.27878  0.08381  0.66269  Biso   1.000  C
  C18      1.0000 0.27883  0.08381  0.66269  Biso   1.000  C
  C19      1.0000 0.22436  0.09663  0.58779  Biso   1.000  C
  C20      1.0000 0.87669  0.71329  0.67622  Biso   1.000  C
  H17      1.0000 0.99515  0.73104  0.65482  Biso   1.000  H
  H18      1.0000 0.99524  0.73111  0.65482  Biso   1.000  H
  H19      1.0000 0.99518  0.73111  0.65482  Biso   1.000  H
  H20      1.0000 0.87064  0.79687  0.55761  Biso   1.000  H
  C21      1.0000 0.80265  0.75235  0.61850  Biso   1.000  C
  C22      1.0000 0.23231  0.17621  0.60132  Biso   1.000  C
  H21      1.0000 0.20310  0.07381  0.55761  Biso   1.000  H
  C23      1.0000 0.23225  0.17621  0.60132  Biso   1.000  C
  H22      1.0000 0.29459  0.05211  0.68371  Biso   1.000  H
  C24      1.0000 0.28676  0.16345  0.67622  Biso   1.000  C
  C25      1.0000 0.87865  0.67619  0.72330  Biso   1.000  C
  C26      1.0000 0.80494  0.72118  0.66269  Biso   1.000  C
  C27      1.0000 0.72335  0.75676  0.60449  Biso   1.000  C
  C28      1.0000 0.20862  0.22520  0.56730  Biso   1.000  C
  C29      1.0000 0.26355  0.20975  0.64551  Biso   1.000  C
  C30      1.0000 0.20857  0.22520  0.56730  Biso   1.000  C
  C31      1.0000 0.32383  0.20251  0.72330  Biso   1.000  C
  H23      1.0000 0.92886  0.67205  0.73170  Biso   1.000  H
  N4       1.0000 0.81724  0.65088  0.75160  Biso   1.000  N
  H24      1.0000 0.75753  0.70539  0.68371  Biso   1.000  H
  H25      1.0000 0.75747  0.70539  0.68371  Biso   1.000  H
  H26      1.0000 0.67949  0.74558  0.62711  Biso   1.000  H
  N5       1.0000 0.71322  0.77478  0.56389  Biso   1.000  N
  H27      1.0000 0.17309  0.19469  0.54130  Biso   1.000  H
  H28      1.0000 0.17312  0.19475  0.54130  Biso   1.000  H
  N6       1.0000 0.23456  0.30668  0.57211  Biso   1.000  N
  N7       1.0000 0.23459  0.30675  0.57211  Biso   1.000  N
  H29      1.0000 0.26887  0.26413  0.65482  Biso   1.000  H
  H30      1.0000 0.32793  0.25683  0.73170  Biso   1.000  H
  N8       1.0000 0.34907  0.16641  0.75160  Biso   1.000  N
  H31      1.0000 0.32787  0.25683  0.73170  Biso   1.000  H
  C32      1.0000 0.82748  0.61339  0.79681  Biso   1.000  C
  C33      1.0000 0.63235  0.77399  0.55221  Biso   1.000  C
  C34      1.0000 0.21019  0.34542  0.53381  Biso   1.000  C
  C35      1.0000 0.21024  0.34542  0.53381  Biso   1.000  C
  C36      1.0000 0.38661  0.21415  0.79681  Biso   1.000  C
  C37      1.0000 0.38663  0.21409  0.79681  Biso   1.000  C
  H32      1.0000 0.88751  0.62010  0.79799  Biso   1.000  H
  C38      1.0000 0.81832  0.66626  0.83650  Biso   1.000  C
  C39      1.0000 0.75874  0.51599  0.80120  Biso   1.000  C
  H33      1.0000 0.88745  0.62010  0.79799  Biso   1.000  H
  C40      1.0000 0.58218  0.70349  0.51429  Biso   1.000  C
  H34      1.0000 0.59484  0.75978  0.58072  Biso   1.000  H
  C41      1.0000 0.58224  0.70349  0.51429  Biso   1.000  C
  C42      1.0000 0.65455  0.86474  0.53381  Biso   1.000  C
  C43      1.0000 0.29000  0.42690  0.51711  Biso   1.000  C
  H35      1.0000 0.18455  0.30234  0.50760  Biso   1.000  H
  C44      1.0000 0.14162  0.36765  0.55221  Biso   1.000  C
  H36      1.0000 0.18449  0.30234  0.50760  Biso   1.000  H
  C45      1.0000 0.33372  0.15200  0.83650  Biso   1.000  C
  C46      1.0000 0.48401  0.24276  0.80120  Biso   1.000  C
  C47      1.0000 0.33366  0.15200  0.83650  Biso   1.000  C
  C48      1.0000 0.48403  0.24269  0.80120  Biso   1.000  C
  H37      1.0000 0.37987  0.26742  0.79799  Biso   1.000  H
  H38      1.0000 0.76105  0.66528  0.83361  Biso   1.000  H
  C49      1.0000 0.82296  0.62838  0.88370  Biso   1.000  C
  N9       1.0000 0.89056  0.75630  0.83361  Biso   1.000  N
  H39      1.0000 0.69919  0.50830  0.79719  Biso   1.000  H
  H40      1.0000 0.76790  0.48225  0.77642  Biso   1.000  H
  C50      1.0000 0.76473  0.48094  0.84822  Biso   1.000  C
  H41      1.0000 0.76784  0.48225  0.77642  Biso   1.000  H
  C51      1.0000 0.76476  0.48100  0.84822  Biso   1.000  C
  C52      1.0000 0.50147  0.70474  0.49770  Biso   1.000  C
  H42      1.0000 0.56462  0.64456  0.52712  Biso   1.000  H
  C53      1.0000 0.50151  0.70480  0.49770  Biso   1.000  C
  H43      1.0000 0.62177  0.71421  0.48749  Biso   1.000  H
  C54      1.0000 0.57310  0.86303  0.51711  Biso   1.000  C
  H44      1.0000 0.69772  0.88217  0.50760  Biso   1.000  H
  N10      1.0000 0.69324  0.92788  0.57211  Biso   1.000  N
  C55      1.0000 0.57314  0.86310  0.51711  Biso   1.000  C
  C56      1.0000 0.57305  0.86303  0.51711  Biso   1.000  C
  H45      1.0000 0.69766  0.88217  0.50760  Biso   1.000  H
  C57      1.0000 0.57308  0.86310  0.51711  Biso   1.000  C
  N11      1.0000 0.06157  0.28682  0.56389  Biso   1.000  N
  H46      1.0000 0.16495  0.40520  0.58072  Biso   1.000  H
  C58      1.0000 0.12126  0.41783  0.51429  Biso   1.000  C
  H47      1.0000 0.33390  0.41151  0.50579  Biso   1.000  H
  H48      1.0000 0.31657  0.46820  0.54360  Biso   1.000  H
  H49      1.0000 0.31663  0.46820  0.54360  Biso   1.000  H
  C59      1.0000 0.26887  0.47281  0.47790  Biso   1.000  C
  H50      1.0000 0.33385  0.41151  0.50579  Biso   1.000  H
  H51      1.0000 0.33468  0.09584  0.83361  Biso   1.000  H
  C60      1.0000 0.37160  0.19462  0.88370  Biso   1.000  C
  H52      1.0000 0.33474  0.09584  0.83361  Biso   1.000  H
  N12      1.0000 0.24366  0.13431  0.83361  Biso   1.000  N
  H53      1.0000 0.49170  0.19094  0.79719  Biso   1.000  H
  H54      1.0000 0.51775  0.28564  0.77642  Biso   1.000  H
  C61      1.0000 0.51893  0.28380  0.84822  Biso   1.000  C
  C62      1.0000 0.86925  0.81779  0.83180  Biso   1.000  C
  H55      1.0000 0.88250  0.63628  0.88791  Biso   1.000  H
  H56      1.0000 0.81313  0.66100  0.90879  Biso   1.000  H
  H57      1.0000 0.88244  0.63628  0.88791  Biso   1.000  H
  C63      1.0000 0.75406  0.53000  0.88739  Biso   1.000  C
  H58      1.0000 0.81307  0.66100  0.90879  Biso   1.000  H
  H59      1.0000 0.82272  0.48449  0.85100  Biso   1.000  H
  H60      1.0000 0.71881  0.41826  0.85041  Biso   1.000  H
  H61      1.0000 0.82266  0.48449  0.85100  Biso   1.000  H
  C64      1.0000 0.52721  0.79608  0.47790  Biso   1.000  C
  H62      1.0000 0.46005  0.69079  0.52401  Biso   1.000  H
  H63      1.0000 0.47165  0.65956  0.47330  Biso   1.000  H
  C65      1.0000 0.52716  0.79608  0.47790  Biso   1.000  C
  C66      1.0000 0.77475  0.98338  0.56730  Biso   1.000  C
  H64      1.0000 0.58847  0.92235  0.50579  Biso   1.000  H
  H65      1.0000 0.53177  0.84837  0.54360  Biso   1.000  H
  H66      1.0000 0.58853  0.92235  0.50579  Biso   1.000  H
  H67      1.0000 0.53183  0.84837  0.54360  Biso   1.000  H
  C67      1.0000 0.03340  0.27663  0.60449  Biso   1.000  C
  H68      1.0000 0.07998  0.43539  0.52712  Biso   1.000  H
  C68      1.0000 0.20330  0.49852  0.49770  Biso   1.000  C
  H69      1.0000 0.09247  0.37824  0.48749  Biso   1.000  H
  H70      1.0000 0.08001  0.43545  0.52712  Biso   1.000  H
  H71      1.0000 0.24257  0.43262  0.45100  Biso   1.000  H
  H72      1.0000 0.32305  0.52581  0.46741  Biso   1.000  H
  C69      1.0000 0.18221  0.05152  0.83180  Biso   1.000  C
  C70      1.0000 0.18215  0.05152  0.83180  Biso   1.000  C
  H73      1.0000 0.33902  0.15214  0.90879  Biso   1.000  H
  H74      1.0000 0.36375  0.24625  0.88791  Biso   1.000  H
  H75      1.0000 0.33897  0.15214  0.90879  Biso   1.000  H
  C71      1.0000 0.46994  0.22408  0.88739  Biso   1.000  C
  C72      1.0000 0.46997  0.22415  0.88739  Biso   1.000  C
  H76      1.0000 0.58168  0.30050  0.85041  Biso   1.000  H
  H77      1.0000 0.51552  0.33825  0.85100  Biso   1.000  H
  H78      1.0000 0.51543  0.33818  0.85100  Biso   1.000  H
  C73      1.0000 0.93758  0.91104  0.83149  Biso   1.000  C
  H79      1.0000 0.80913  0.80200  0.83061  Biso   1.000  H
  C74      1.0000 0.93752  0.91104  0.83149  Biso   1.000  C
  H80      1.0000 0.80908  0.80200  0.83061  Biso   1.000  H
  H81      1.0000 0.76137  0.50646  0.91740  Biso   1.000  H
  H82      1.0000 0.69426  0.52224  0.88659  Biso   1.000  H
  H83      1.0000 0.69429  0.52231  0.88659  Biso   1.000  H
  H84      1.0000 0.56741  0.80996  0.45100  Biso   1.000  H
  H85      1.0000 0.47416  0.79727  0.46741  Biso   1.000  H
  H86      1.0000 0.56736  0.80996  0.45100  Biso   1.000  H
  H87      1.0000 0.80529  0.97838  0.54130  Biso   1.000  H
  C75      1.0000 0.82377  0.05612  0.60132  Biso   1.000  C
  C76      1.0000 0.94967  0.19732  0.61850  Biso   1.000  C
  H88      1.0000 0.06613  0.32056  0.62711  Biso   1.000  H
  H89      1.0000 0.06604  0.32049  0.62711  Biso   1.000  H
  H90      1.0000 0.23073  0.53995  0.52401  Biso   1.000  H
  H91      1.0000 0.23064  0.53989  0.52401  Biso   1.000  H
  H92      1.0000 0.18795  0.52831  0.47330  Biso   1.000  H
  C77      1.0000 0.08890  0.02652  0.83149  Biso   1.000  C
  H93      1.0000 0.19800  0.00712  0.83061  Biso   1.000  H
  H94      1.0000 0.49351  0.25493  0.91740  Biso   1.000  H
  H95      1.0000 0.47770  0.17206  0.88659  Biso   1.000  H
  C78      1.0000 0.02555  0.93708  0.83110  Biso   1.000  C
  C79      1.0000 0.91144  0.97437  0.83110  Biso   1.000  C
  C80      1.0000 0.90340  0.12780  0.58779  Biso   1.000  C
  C81      1.0000 0.90335  0.12780  0.58779  Biso   1.000  C
  C82      1.0000 0.79026  0.05382  0.64551  Biso   1.000  C
  C83      1.0000 0.91617  0.19501  0.66269  Biso   1.000  C
  C84      1.0000 0.06295  0.08854  0.83110  Biso   1.000  C
  H96      1.0000 0.04340  0.89407  0.83051  Biso   1.000  H
  H97      1.0000 0.04335  0.89407  0.83051  Biso   1.000  H
  C85      1.0000 0.97346  0.06243  0.83149  Biso   1.000  C
  H98      1.0000 0.85064  0.95655  0.83051  Biso   1.000  H
  H99      1.0000 0.92615  0.12932  0.55761  Biso   1.000  H
  C86      1.0000 0.83658  0.12333  0.67622  Biso   1.000  C
  H100     1.0000 0.73587  0.00482  0.65482  Biso   1.000  H
  H101     1.0000 0.94791  0.24256  0.68371  Biso   1.000  H
  H102     1.0000 0.10586  0.14931  0.83051  Biso   1.000  H
  C87      1.0000 0.94851  0.13076  0.83180  Biso   1.000  C
  C88      1.0000 0.79752  0.12129  0.72330  Biso   1.000  C
  C89      1.0000 0.79746  0.12129  0.72330  Biso   1.000  C
  N13      1.0000 0.86572  0.10939  0.83361  Biso   1.000  N
  H103     1.0000 0.99289  0.19094  0.83061  Biso   1.000  H
  N14      1.0000 0.86570  0.10945  0.83361  Biso   1.000  N
  N15      1.0000 0.86566  0.10939  0.83361  Biso   1.000  N
  N16      1.0000 0.83358  0.18272  0.75160  Biso   1.000  N
  H104     1.0000 0.74315  0.07111  0.73170  Biso   1.000  H
  C90      1.0000 0.84801  0.18173  0.83650  Biso   1.000  C
  C91      1.0000 0.84796  0.18173  0.83650  Biso   1.000  C
  C92      1.0000 0.78594  0.17252  0.79681  Biso   1.000  C
  C93      1.0000 0.78589  0.17252  0.79681  Biso   1.000  C
  C94      1.0000 0.80538  0.17699  0.88370  Biso   1.000  C
  H105     1.0000 0.90419  0.23895  0.83361  Biso   1.000  H
  C95      1.0000 0.80541  0.17706  0.88370  Biso   1.000  C
  C96      1.0000 0.75729  0.24131  0.80120  Biso   1.000  C
  H106     1.0000 0.73260  0.11255  0.79799  Biso   1.000  H
  H107     1.0000 0.75384  0.11754  0.88791  Biso   1.000  H
  H108     1.0000 0.84788  0.18693  0.90879  Biso   1.000  H
  H109     1.0000 0.75378  0.11754  0.88791  Biso   1.000  H
  C97      1.0000 0.77588  0.24592  0.88739  Biso   1.000  C
  C98      1.0000 0.71619  0.23520  0.84822  Biso   1.000  C
  H110     1.0000 0.71441  0.23211  0.77642  Biso   1.000  H
  C99      1.0000 0.71622  0.23526  0.84822  Biso   1.000  C
  H111     1.0000 0.80909  0.30083  0.79719  Biso   1.000  H
  H112     1.0000 0.71436  0.23211  0.77642  Biso   1.000  H
  H113     1.0000 0.82798  0.30570  0.88659  Biso   1.000  H
  H114     1.0000 0.74506  0.23862  0.91740  Biso   1.000  H
  H115     1.0000 0.69951  0.28123  0.85041  Biso   1.000  H
  H116     1.0000 0.66185  0.17732  0.85100  Biso   1.000  H
  H117     1.0000 0.66179  0.17732  0.85100  Biso   1.000  H
  C100     1.0000 0.87870  0.29653  0.48571  Biso   1.000  C
  C101     1.0000 0.85834  0.22597  0.44779  Biso   1.000  C
  C102     1.0000 0.85843  0.22603  0.44779  Biso   1.000  C
  H118     1.0000 0.91998  0.35539  0.47288  Biso   1.000  H
  C103     1.0000 0.79672  0.29522  0.50230  Biso   1.000  C
  H119     1.0000 0.90757  0.28581  0.51251  Biso   1.000  H
  C104     1.0000 0.79666  0.29522  0.50230  Biso   1.000  C
  N17      1.0000 0.93837  0.22518  0.43611  Biso   1.000  N
  C105     1.0000 0.87867  0.29647  0.48571  Biso   1.000  C
  C106     1.0000 0.78984  0.13521  0.46619  Biso   1.000  C
  H120     1.0000 0.83501  0.24024  0.41932  Biso   1.000  H
  C107     1.0000 0.78978  0.13521  0.46619  Biso   1.000  C
  H121     1.0000 0.76929  0.30916  0.47599  Biso   1.000  H
  H122     1.0000 0.81213  0.34040  0.52670  Biso   1.000  H
  H123     1.0000 0.76926  0.30923  0.47599  Biso   1.000  H
  H124     1.0000 0.81207  0.34040  0.52670  Biso   1.000  H
  C108     1.0000 0.73105  0.20387  0.52210  Biso   1.000  C
  H125     1.0000 0.76932  0.30923  0.47599  Biso   1.000  H
  C109     1.0000 0.73114  0.20394  0.52210  Biso   1.000  C
  C110     1.0000 0.96657  0.24320  0.39551  Biso   1.000  C
  H126     1.0000 0.81553  0.11778  0.49240  Biso   1.000  H
  N18      1.0000 0.76537  0.07214  0.42789  Biso   1.000  N
  C111     1.0000 0.70999  0.13692  0.48289  Biso   1.000  C
  H127     1.0000 0.81547  0.11778  0.49240  Biso   1.000  H
  N19      1.0000 0.76543  0.07214  0.42789  Biso   1.000  N
  H128     1.0000 0.75743  0.18999  0.54900  Biso   1.000  H
  H129     1.0000 0.67692  0.20269  0.53259  Biso   1.000  H
  H130     1.0000 0.75737  0.18999  0.54900  Biso   1.000  H
  H131     1.0000 0.67686  0.20269  0.53259  Biso   1.000  H
  C112     1.0000 0.05027  0.24760  0.38150  Biso   1.000  C
  H132     1.0000 0.93389  0.25438  0.37289  Biso   1.000  H
  C113     1.0000 0.79141  0.01657  0.43270  Biso   1.000  C
  C114     1.0000 0.79138  0.01664  0.43270  Biso   1.000  C
  C115     1.0000 0.79135  0.01657  0.43270  Biso   1.000  C
  C116     1.0000 0.79144  0.01664  0.43270  Biso   1.000  C
  H133     1.0000 0.66609  0.07760  0.49421  Biso   1.000  H
  H134     1.0000 0.68338  0.15159  0.45640  Biso   1.000  H
  C117     1.0000 0.08380  0.27878  0.33731  Biso   1.000  C
  C118     1.0000 0.08374  0.27878  0.33731  Biso   1.000  C
  C119     1.0000 0.09659  0.22439  0.41221  Biso   1.000  C
  C120     1.0000 0.76768  0.94384  0.39872  Biso   1.000  C
  C121     1.0000 0.76762  0.94384  0.39872  Biso   1.000  C
  H135     1.0000 0.82688  0.02157  0.45870  Biso   1.000  H
  H136     1.0000 0.82691  0.02164  0.45870  Biso   1.000  H
  C122     1.0000 0.16338  0.28667  0.32378  Biso   1.000  C
  C123     1.0000 0.16342  0.28674  0.32378  Biso   1.000  C
  H137     1.0000 0.05205  0.29456  0.31629  Biso   1.000  H
  H138     1.0000 0.05209  0.29463  0.31629  Biso   1.000  H
  C124     1.0000 0.17623  0.23228  0.39872  Biso   1.000  C
  H139     1.0000 0.07380  0.20308  0.44239  Biso   1.000  H
  C125     1.0000 0.73648  0.94614  0.35449  Biso   1.000  C
  C126     1.0000 0.77558  0.87215  0.41221  Biso   1.000  C
  C127     1.0000 0.73642  0.94614  0.35449  Biso   1.000  C
  C128     1.0000 0.20249  0.32376  0.27670  Biso   1.000  C
  C129     1.0000 0.20252  0.32383  0.27670  Biso   1.000  C
  C130     1.0000 0.20243  0.32376  0.27670  Biso   1.000  C
  C131     1.0000 0.20967  0.26352  0.35449  Biso   1.000  C
  C132     1.0000 0.22522  0.20861  0.43270  Biso   1.000  C
  C133     1.0000 0.22516  0.20861  0.43270  Biso   1.000  C
  C134     1.0000 0.71323  0.87663  0.32378  Biso   1.000  C
  H140     1.0000 0.73102  0.99513  0.34522  Biso   1.000  H
  H141     1.0000 0.79686  0.87064  0.44239  Biso   1.000  H
  C135     1.0000 0.75233  0.80264  0.38150  Biso   1.000  C
  N20      1.0000 0.16640  0.34908  0.24840  Biso   1.000  N
  H142     1.0000 0.25679  0.32790  0.26830  Biso   1.000  H
  H143     1.0000 0.26408  0.26891  0.34522  Biso   1.000  H
  H144     1.0000 0.26414  0.26891  0.34522  Biso   1.000  H
  H145     1.0000 0.19470  0.17309  0.45870  Biso   1.000  H
  N21      1.0000 0.30672  0.23458  0.42789  Biso   1.000  N
  H146     1.0000 0.19465  0.17309  0.45870  Biso   1.000  H
  C136     1.0000 0.67620  0.87866  0.27670  Biso   1.000  C
  C137     1.0000 0.67615  0.87866  0.27670  Biso   1.000  C
  C138     1.0000 0.72119  0.80494  0.33731  Biso   1.000  C
  C139     1.0000 0.72113  0.80494  0.33731  Biso   1.000  C
  C140     1.0000 0.75675  0.72333  0.39551  Biso   1.000  C
  C141     1.0000 0.21410  0.38663  0.20319  Biso   1.000  C
  C142     1.0000 0.34538  0.21018  0.46619  Biso   1.000  C
  N22      1.0000 0.65085  0.81724  0.24840  Biso   1.000  N
  H147     1.0000 0.67208  0.92884  0.26830  Biso   1.000  H
  H148     1.0000 0.70542  0.75746  0.31629  Biso   1.000  H
  N23      1.0000 0.77478  0.71313  0.43611  Biso   1.000  N
  N24      1.0000 0.77472  0.71313  0.43611  Biso   1.000  N
  H149     1.0000 0.74553  0.67946  0.37289  Biso   1.000  H
  C143     1.0000 0.15198  0.33369  0.16350  Biso   1.000  C
  C144     1.0000 0.24267  0.48396  0.19880  Biso   1.000  C
  H150     1.0000 0.26739  0.37986  0.20201  Biso   1.000  H
  C145     1.0000 0.15204  0.33369  0.16350  Biso   1.000  C
  H151     1.0000 0.26742  0.37992  0.20201  Biso   1.000  H
  C146     1.0000 0.24270  0.48403  0.19880  Biso   1.000  C
  C147     1.0000 0.36758  0.14159  0.44779  Biso   1.000  C
  C148     1.0000 0.42688  0.29002  0.48289  Biso   1.000  C
  C149     1.0000 0.42693  0.29002  0.48289  Biso   1.000  C
  H152     1.0000 0.30231  0.18454  0.49240  Biso   1.000  H
  H153     1.0000 0.30223  0.18447  0.49240  Biso   1.000  H
  C150     1.0000 0.61340  0.82743  0.20319  Biso   1.000  C
  C151     1.0000 0.61334  0.82743  0.20319  Biso   1.000  C
  C152     1.0000 0.77398  0.63237  0.44779  Biso   1.000  C
  N25      1.0000 0.13434  0.24372  0.16639  Biso   1.000  N
  C153     1.0000 0.19465  0.37164  0.11630  Biso   1.000  C
  N26      1.0000 0.13428  0.24372  0.16639  Biso   1.000  N
  H154     1.0000 0.09575  0.33468  0.16639  Biso   1.000  H
  C154     1.0000 0.19459  0.37164  0.11630  Biso   1.000  C
  C155     1.0000 0.28383  0.51902  0.15178  Biso   1.000  C
  H155     1.0000 0.19087  0.49166  0.20281  Biso   1.000  H
  H156     1.0000 0.28562  0.51770  0.22362  Biso   1.000  H
  H157     1.0000 0.19090  0.49172  0.20281  Biso   1.000  H
  C156     1.0000 0.28377  0.51902  0.15178  Biso   1.000  C
  H158     1.0000 0.28556  0.51770  0.22362  Biso   1.000  H
  N27      1.0000 0.28682  0.06162  0.43611  Biso   1.000  N
  H159     1.0000 0.40520  0.16500  0.41932  Biso   1.000  H
  C157     1.0000 0.41783  0.12134  0.48571  Biso   1.000  C
  N28      1.0000 0.28676  0.06162  0.43611  Biso   1.000  N
  H160     1.0000 0.40515  0.16500  0.41932  Biso   1.000  H
  C158     1.0000 0.41777  0.12134  0.48571  Biso   1.000  C
  H161     1.0000 0.46818  0.31659  0.45640  Biso   1.000  H
  H162     1.0000 0.41145  0.33389  0.49421  Biso   1.000  H
  C159     1.0000 0.47276  0.26891  0.52210  Biso   1.000  C
  C160     1.0000 0.66626  0.81823  0.16350  Biso   1.000  C
  C161     1.0000 0.51595  0.75864  0.19880  Biso   1.000  C
  C162     1.0000 0.51601  0.75864  0.19880  Biso   1.000  C
  H163     1.0000 0.62007  0.88748  0.20201  Biso   1.000  H
  C163     1.0000 0.86474  0.65454  0.46619  Biso   1.000  C
  C164     1.0000 0.86480  0.65454  0.46619  Biso   1.000  C
  H164     1.0000 0.75979  0.59476  0.41932  Biso   1.000  H
  C165     1.0000 0.70341  0.58213  0.48571  Biso   1.000  C
  H165     1.0000 0.75973  0.59476  0.41932  Biso   1.000  H
  C166     1.0000 0.05153  0.18223  0.16820  Biso   1.000  C
  C167     1.0000 0.05148  0.18223  0.16820  Biso   1.000  C
  H166     1.0000 0.24620  0.36368  0.11209  Biso   1.000  H
  H167     1.0000 0.15208  0.33902  0.09121  Biso   1.000  H
  C168     1.0000 0.22410  0.46996  0.11261  Biso   1.000  C
  H168     1.0000 0.15214  0.33902  0.09121  Biso   1.000  H
  C169     1.0000 0.22413  0.47002  0.11261  Biso   1.000  C
  C170     1.0000 0.22408  0.47002  0.11261  Biso   1.000  C
  H169     1.0000 0.30047  0.58169  0.14959  Biso   1.000  H
  H170     1.0000 0.33821  0.51547  0.14900  Biso   1.000  H
  H171     1.0000 0.30053  0.58169  0.14959  Biso   1.000  H
  H172     1.0000 0.33824  0.51553  0.14900  Biso   1.000  H
  H173     1.0000 0.33815  0.51547  0.14900  Biso   1.000  H
  H174     1.0000 0.33818  0.51553  0.14900  Biso   1.000  H
  C171     1.0000 0.27659  0.03341  0.39551  Biso   1.000  C
  H175     1.0000 0.37819  0.09240  0.51251  Biso   1.000  H
  C172     1.0000 0.49850  0.20328  0.50230  Biso   1.000  C
  H176     1.0000 0.43539  0.08004  0.47288  Biso   1.000  H
  H177     1.0000 0.43542  0.07997  0.47288  Biso   1.000  H
  C173     1.0000 0.49844  0.20328  0.50230  Biso   1.000  C
  H178     1.0000 0.43261  0.24261  0.54900  Biso   1.000  H
  H179     1.0000 0.52577  0.32310  0.53259  Biso   1.000  H
  H180     1.0000 0.52583  0.32310  0.53259  Biso   1.000  H
  H181     1.0000 0.43256  0.24261  0.54900  Biso   1.000  H
  N29      1.0000 0.75625  0.89057  0.16639  Biso   1.000  N
  C174     1.0000 0.62836  0.82296  0.11630  Biso   1.000  C
  C175     1.0000 0.62842  0.82296  0.11630  Biso   1.000  C
  H182     1.0000 0.66525  0.76108  0.16639  Biso   1.000  H
  C176     1.0000 0.48097  0.76476  0.15178  Biso   1.000  C
  H183     1.0000 0.50829  0.69913  0.20281  Biso   1.000  H
  H184     1.0000 0.48228  0.76785  0.22362  Biso   1.000  H
  H185     1.0000 0.50833  0.69919  0.20281  Biso   1.000  H
  H186     1.0000 0.48223  0.76785  0.22362  Biso   1.000  H
  H187     1.0000 0.50824  0.69913  0.20281  Biso   1.000  H
  H188     1.0000 0.50827  0.69919  0.20281  Biso   1.000  H
  N30      1.0000 0.92791  0.69327  0.42789  Biso   1.000  N
  N31      1.0000 0.92785  0.69327  0.42789  Biso   1.000  N
  C177     1.0000 0.86307  0.57305  0.48289  Biso   1.000  C
  H189     1.0000 0.88221  0.69768  0.49240  Biso   1.000  H
  H190     1.0000 0.88216  0.69768  0.49240  Biso   1.000  H
  H191     1.0000 0.64457  0.56457  0.47288  Biso   1.000  H
  C178     1.0000 0.70476  0.50144  0.50230  Biso   1.000  C
  H192     1.0000 0.71418  0.62179  0.51251  Biso   1.000  H
  H193     1.0000 0.64463  0.56457  0.47288  Biso   1.000  H
  C179     1.0000 0.02652  0.08891  0.16851  Biso   1.000  C
  H194     1.0000 0.00709  0.19802  0.16939  Biso   1.000  H
  H195     1.0000 0.00714  0.19802  0.16939  Biso   1.000  H
  C180     1.0000 0.02646  0.08891  0.16851  Biso   1.000  C
  H196     1.0000 0.25489  0.49350  0.08260  Biso   1.000  H
  H197     1.0000 0.17205  0.47772  0.11341  Biso   1.000  H
  C181     1.0000 0.19727  0.94962  0.38150  Biso   1.000  C
  H198     1.0000 0.32044  0.06609  0.37289  Biso   1.000  H
  H199     1.0000 0.53989  0.23070  0.47599  Biso   1.000  H
  H200     1.0000 0.52833  0.18789  0.52670  Biso   1.000  H
  C182     1.0000 0.81782  0.86926  0.16820  Biso   1.000  C
  H201     1.0000 0.66099  0.81303  0.09121  Biso   1.000  H
  H202     1.0000 0.63627  0.88241  0.11209  Biso   1.000  H
  C183     1.0000 0.53000  0.75404  0.11261  Biso   1.000  C
  H203     1.0000 0.63631  0.88248  0.11209  Biso   1.000  H
  H204     1.0000 0.66093  0.81303  0.09121  Biso   1.000  H
  H205     1.0000 0.63622  0.88241  0.11209  Biso   1.000  H
  C184     1.0000 0.52994  0.75404  0.11261  Biso   1.000  C
  H206     1.0000 0.41825  0.71872  0.14959  Biso   1.000  H
  H207     1.0000 0.48450  0.82263  0.14900  Biso   1.000  H
  H208     1.0000 0.41834  0.71879  0.14959  Biso   1.000  H
  H209     1.0000 0.48445  0.82263  0.14900  Biso   1.000  H
  H210     1.0000 0.41829  0.71879  0.14959  Biso   1.000  H
  C185     1.0000 0.98335  0.77476  0.43270  Biso   1.000  C
  C186     1.0000 0.79610  0.52715  0.52210  Biso   1.000  C
  H211     1.0000 0.84835  0.53175  0.45640  Biso   1.000  H
  H212     1.0000 0.92231  0.58844  0.49421  Biso   1.000  H
  H213     1.0000 0.84840  0.53175  0.45640  Biso   1.000  H
  C187     1.0000 0.79604  0.52715  0.52210  Biso   1.000  C
  H214     1.0000 0.69079  0.46007  0.47599  Biso   1.000  H
  H215     1.0000 0.65956  0.47164  0.52670  Biso   1.000  H
  H216     1.0000 0.69074  0.46007  0.47599  Biso   1.000  H
  C188     1.0000 0.93710  0.02558  0.16890  Biso   1.000  C
  C189     1.0000 0.93704  0.02558  0.16890  Biso   1.000  C
  C190     1.0000 0.08850  0.06287  0.16890  Biso   1.000  C
  C191     1.0000 0.08854  0.06294  0.16890  Biso   1.000  C
  C192     1.0000 0.08845  0.06287  0.16890  Biso   1.000  C
  C193     1.0000 0.08848  0.06294  0.16890  Biso   1.000  C
  C194     1.0000 0.19495  0.91615  0.33731  Biso   1.000  C
  C195     1.0000 0.19500  0.91615  0.33731  Biso   1.000  C
  C196     1.0000 0.12782  0.90333  0.41221  Biso   1.000  C
  C197     1.0000 0.91107  0.93752  0.16851  Biso   1.000  C
  C198     1.0000 0.91101  0.93752  0.16851  Biso   1.000  C
  H217     1.0000 0.80197  0.80908  0.16939  Biso   1.000  H
  H218     1.0000 0.52232  0.69426  0.11341  Biso   1.000  H
  H219     1.0000 0.50642  0.76134  0.08260  Biso   1.000  H
  C199     1.0000 0.05608  0.82375  0.39872  Biso   1.000  C
  H220     1.0000 0.97838  0.80527  0.45870  Biso   1.000  H
  H221     1.0000 0.97833  0.80527  0.45870  Biso   1.000  H
  H222     1.0000 0.80998  0.56733  0.54900  Biso   1.000  H
  H223     1.0000 0.80992  0.56733  0.54900  Biso   1.000  H
  H224     1.0000 0.79722  0.47414  0.53259  Biso   1.000  H
  H225     1.0000 0.89407  0.04340  0.16949  Biso   1.000  H
  C200     1.0000 0.06241  0.97343  0.16851  Biso   1.000  C
  H226     1.0000 0.14925  0.10588  0.16949  Biso   1.000  H
  H227     1.0000 0.12932  0.92615  0.44239  Biso   1.000  H
  H228     1.0000 0.24246  0.94785  0.31629  Biso   1.000  H
  C201     1.0000 0.12329  0.83651  0.32378  Biso   1.000  C
  H229     1.0000 0.24252  0.94785  0.31629  Biso   1.000  H
  C202     1.0000 0.12326  0.83657  0.32378  Biso   1.000  C
  C203     1.0000 0.97442  0.91148  0.16890  Biso   1.000  C
  C204     1.0000 0.97436  0.91148  0.16890  Biso   1.000  C
  C205     1.0000 0.05378  0.79021  0.35449  Biso   1.000  C
  C206     1.0000 0.05375  0.79028  0.35449  Biso   1.000  C
  C207     1.0000 0.13067  0.94844  0.16820  Biso   1.000  C
  C208     1.0000 0.12130  0.79744  0.27670  Biso   1.000  C
  H230     1.0000 0.95659  0.85065  0.16949  Biso   1.000  H
  H231     1.0000 0.95653  0.85065  0.16949  Biso   1.000  H
  H232     1.0000 0.00477  0.73582  0.34522  Biso   1.000  H
  H233     1.0000 0.00475  0.73589  0.34522  Biso   1.000  H
  H234     1.0000 0.19091  0.99283  0.16939  Biso   1.000  H
  N32      1.0000 0.10944  0.86564  0.16639  Biso   1.000  N
  N33      1.0000 0.18264  0.83355  0.24840  Biso   1.000  N
  H235     1.0000 0.07107  0.74312  0.26830  Biso   1.000  H
  H236     1.0000 0.07110  0.74319  0.26830  Biso   1.000  H
  C209     1.0000 0.18169  0.84795  0.16350  Biso   1.000  C
  C210     1.0000 0.18164  0.84795  0.16350  Biso   1.000  C
  C211     1.0000 0.17252  0.78587  0.20319  Biso   1.000  C
  C212     1.0000 0.17696  0.80534  0.11630  Biso   1.000  C
  H237     1.0000 0.23888  0.90411  0.16639  Biso   1.000  H
  C213     1.0000 0.17702  0.80534  0.11630  Biso   1.000  C
  H238     1.0000 0.23885  0.90418  0.16639  Biso   1.000  H
  C214     1.0000 0.24126  0.75726  0.19880  Biso   1.000  C
  H239     1.0000 0.11248  0.73253  0.20201  Biso   1.000  H
  C215     1.0000 0.24131  0.75726  0.19880  Biso   1.000  C
  C216     1.0000 0.24589  0.77587  0.11261  Biso   1.000  C
  H240     1.0000 0.18690  0.84789  0.09121  Biso   1.000  H
  H241     1.0000 0.11749  0.75371  0.11209  Biso   1.000  H
  H242     1.0000 0.18684  0.84789  0.09121  Biso   1.000  H
  H243     1.0000 0.11746  0.75378  0.11209  Biso   1.000  H
  C217     1.0000 0.23517  0.71616  0.15178  Biso   1.000  C
  H244     1.0000 0.23203  0.71432  0.22362  Biso   1.000  H
  H245     1.0000 0.30077  0.80908  0.20281  Biso   1.000  H
  H246     1.0000 0.23212  0.71438  0.22362  Biso   1.000  H
  H247     1.0000 0.23209  0.71432  0.22362  Biso   1.000  H
  H248     1.0000 0.30083  0.80908  0.20281  Biso   1.000  H
  H249     1.0000 0.23856  0.74503  0.08260  Biso   1.000  H
  H250     1.0000 0.30565  0.82796  0.11341  Biso   1.000  H
  H251     1.0000 0.30571  0.82796  0.11341  Biso   1.000  H
  H252     1.0000 0.17728  0.66177  0.14900  Biso   1.000  H
  H253     1.0000 0.28121  0.69945  0.14959  Biso   1.000  H
  H254     1.0000 0.17734  0.66177  0.14900  Biso   1.000  H
  Ne1      1.0000 0.99839  0.01888  0.31352  Biso   1.000  Ne
  He1      1.0000 0.00002  0.99996  0.41760  Biso   1.000  He
  He2      1.0000 0.91645  0.08719  0.28329  Biso   1.000  He
  He3      1.0000 0.17568  0.08595  0.28241  Biso   1.000  He
  He4      1.0000 0.91226  0.82825  0.28310  Biso   1.000  He
  Ar1      1.0000 0.99994  0.99996  0.31384  Biso   1.000  Ar
  Ne2      1.0000 0.99591  0.00466  0.67885  Biso   1.000  Ne
  He5      1.0000 0.08458  0.17292  0.71709  Biso   1.000  He
  He6      1.0000 0.82314  0.90969  0.71780  Biso   1.000  He
  He7      1.0000 0.08825  0.91546  0.71709  Biso   1.000  He
  He8      1.0000 0.99996  0.99996  0.58241  Biso   1.000  He
  Ar2      1.0000 0.00002  0.00003  0.68615  Biso   1.000  Ar
