data_image0
_cell_length_a       15.424
_cell_length_b       10.157
_cell_length_c       20.557
_cell_angle_alpha    90
_cell_angle_beta     110.07
_cell_angle_gamma    90

_symmetry_space_group_name_H-M    "P 1"
_symmetry_int_tables_number       1

loop_
  _symmetry_equiv_pos_as_xyz
  'x, y, z'

loop_
  _atom_site_label
  _atom_site_occupancy
  _atom_site_fract_x
  _atom_site_fract_y
  _atom_site_fract_z
  _atom_site_thermal_displace_type
  _atom_site_B_iso_or_equiv
  _atom_site_type_symbol
  C1       1.0000 0.45815  0.32441  0.51775  Biso   1.000  C
  C2       1.0000 0.36915  0.38496  0.46875  Biso   1.000  C
  C3       1.0000 0.53868  0.41705  0.52401  Biso   1.000  C
  O1       1.0000 0.44555  0.30501  0.58207  Biso   1.000  O
  H1       1.0000 0.46906  0.23944  0.49936  Biso   1.000  H
  C4       1.0000 0.37895  0.41686  0.39930  Biso   1.000  C
  O2       1.0000 0.29707  0.28995  0.46000  Biso   1.000  O
  H2       1.0000 0.35487  0.46549  0.48926  Biso   1.000  H
  C5       1.0000 0.54199  0.44954  0.45228  Biso   1.000  C
  O3       1.0000 0.62369  0.36467  0.56783  Biso   1.000  O
  H3       1.0000 0.52763  0.49936  0.54478  Biso   1.000  H
  H4       1.0000 0.49186  0.27095  0.60947  Biso   1.000  H
  C6       1.0000 0.29545  0.49158  0.35197  Biso   1.000  C
  O4       1.0000 0.45634  0.50300  0.41018  Biso   1.000  O
  H5       1.0000 0.38785  0.33563  0.37667  Biso   1.000  H
  C7       1.0000 0.22257  0.32618  0.48180  Biso   1.000  C
  O5       1.0000 0.56347  0.33287  0.42427  Biso   1.000  O
  H6       1.0000 0.59081  0.51442  0.45710  Biso   1.000  H
  H7       1.0000 0.64316  0.31161  0.54618  Biso   1.000  H
  O6       1.0000 0.30710  0.51718  0.28744  Biso   1.000  O
  O7       1.0000 0.14386  0.36300  0.42582  Biso   1.000  O
  H8       1.0000 0.24177  0.40061  0.51386  Biso   1.000  H
  C8       1.0000 0.20176  0.20951  0.52008  Biso   1.000  C
  C9       1.0000 0.63644  0.33780  0.39542  Biso   1.000  C
  H9       1.0000 0.34040  0.58186  0.29122  Biso   1.000  H
  C10      1.0000 0.10698  0.26149  0.37538  Biso   1.000  C
  O8       1.0000 0.27939  0.17722  0.58010  Biso   1.000  O
  H10      1.0000 0.15086  0.23462  0.53567  Biso   1.000  H
  C11      1.0000 0.16965  0.09363  0.47114  Biso   1.000  C
  C12      1.0000 0.69995  0.22349  0.42711  Biso   1.000  C
  H11      1.0000 0.67019  0.42119  0.40769  Biso   1.000  H
  C13      1.0000 0.59721  0.32234  0.31716  Biso   1.000  C
  C14      1.0000 0.08716  0.13665  0.40930  Biso   1.000  C
  H12      1.0000 0.15124  0.24151  0.35207  Biso   1.000  H
  C15      1.0000 0.02005  0.32017  0.32338  Biso   1.000  C
  H13      1.0000 0.32727  0.19671  0.57337  Biso   1.000  H
  H14      1.0000 0.21976  0.06872  0.45441  Biso   1.000  H
  O9       1.0000 0.14592  0.98100  0.50361  Biso   1.000  O
  O10      1.0000 0.74218  0.24013  0.50029  Biso   1.000  O
  C16      1.0000 0.77339  0.20528  0.39319  Biso   1.000  C
  H15      1.0000 0.66239  0.14335  0.41898  Biso   1.000  H
  O11      1.0000 0.67421  0.32224  0.29215  Biso   1.000  O
  H16      1.0000 0.56596  0.23678  0.30639  Biso   1.000  H
  C17      1.0000 0.53019  0.42867  0.27822  Biso   1.000  C
  O12      1.0000 0.06724  0.03160  0.36036  Biso   1.000  O
  H17      1.0000 0.03395  0.15142  0.42421  Biso   1.000  H
  H18      1.0000 0.03609  0.39844  0.30287  Biso   1.000  H
  O13      1.0000 0.95423  0.35404  0.35580  Biso   1.000  O
  H19      1.0000 0.99273  0.25706  0.28661  Biso   1.000  H
  H20      1.0000 0.12138  0.92537  0.47419  Biso   1.000  H
  H21      1.0000 0.70287  0.23363  0.51868  Biso   1.000  H
  O14      1.0000 0.82305  0.08467  0.41360  Biso   1.000  O
  C18      1.0000 0.73078  0.21020  0.31421  Biso   1.000  C
  H22      1.0000 0.81760  0.27803  0.40821  Biso   1.000  H
  O15      1.0000 0.56627  0.55873  0.29557  Biso   1.000  O
  H23      1.0000 0.51497  0.41518  0.22891  Biso   1.000  H
  H24      1.0000 0.47360  0.42070  0.28858  Biso   1.000  H
  C19      1.0000 0.97353  0.99065  0.32996  Biso   1.000  C
  H25      1.0000 0.97611  0.41095  0.38522  Biso   1.000  H
  H26      1.0000 0.82468  0.06468  0.45259  Biso   1.000  H
  O16      1.0000 0.67890  0.09393  0.29220  Biso   1.000  O
  H27      1.0000 0.78037  0.21296  0.29448  Biso   1.000  H
  H28      1.0000 0.60408  0.57369  0.27661  Biso   1.000  H
  C20      1.0000 0.97328  0.84159  0.33721  Biso   1.000  C
  O17      1.0000 0.93597  0.02776  0.25988  Biso   1.000  O
  H29      1.0000 0.93689  0.02983  0.35559  Biso   1.000  H
  C21      1.0000 0.70109  0.01152  0.24362  Biso   1.000  C
  H30      1.0000 0.90922  0.81126  0.31820  Biso   1.000  H
  O18      1.0000 0.00900  0.80624  0.40878  Biso   1.000  O
  C22      1.0000 0.02644  0.77976  0.29526  Biso   1.000  C
  C23      1.0000 0.98641  0.97824  0.21736  Biso   1.000  C
  H31      1.0000 0.76551  0.02599  0.24740  Biso   1.000  H
  C24      1.0000 0.63702  0.04362  0.16987  Biso   1.000  C
  C25      1.0000 0.68880  0.87034  0.26325  Biso   1.000  C
  H32      1.0000 0.05675  0.84720  0.42799  Biso   1.000  H
  C26      1.0000 0.98891  0.82967  0.22083  Biso   1.000  C
  O19      1.0000 0.01684  0.64064  0.29665  Biso   1.000  O
  H33      1.0000 0.09187  0.80319  0.31582  Biso   1.000  H
  H34      1.0000 0.04964  0.01211  0.23497  Biso   1.000  H
  C27      1.0000 0.93837  0.03101  0.14465  Biso   1.000  C
  H35      1.0000 0.57271  0.04135  0.16790  Biso   1.000  H
  C28      1.0000 0.65742  0.17574  0.14460  Biso   1.000  C
  O20      1.0000 0.65064  0.94733  0.12254  Biso   1.000  O
  O21      1.0000 0.75718  0.84710  0.32954  Biso   1.000  O
  C29      1.0000 0.69911  0.77700  0.20882  Biso   1.000  C
  H36      1.0000 0.62721  0.85990  0.26651  Biso   1.000  H
  H37      1.0000 0.92669  0.79443  0.19779  Biso   1.000  H
  O22      1.0000 0.05010  0.77936  0.18779  Biso   1.000  O
  H38      1.0000 0.99339  0.62085  0.32561  Biso   1.000  H
  O23      1.0000 0.84518  0.98612  0.11554  Biso   1.000  O
  H39      1.0000 0.93892  0.12651  0.14600  Biso   1.000  H
  H40      1.0000 0.97243  0.00345  0.11508  Biso   1.000  H
  O24      1.0000 0.75222  0.18657  0.15242  Biso   1.000  O
  H41      1.0000 0.62010  0.18647  0.09617  Biso   1.000  H
  H42      1.0000 0.64122  0.24525  0.17070  Biso   1.000  H
  C30      1.0000 0.63288  0.81756  0.13787  Biso   1.000  C
  H43      1.0000 0.74479  0.89003  0.35901  Biso   1.000  H
  O25      1.0000 0.68166  0.64497  0.22296  Biso   1.000  O
  H44      1.0000 0.76243  0.78320  0.20861  Biso   1.000  H
  C31      1.0000 0.01308  0.70749  0.12585  Biso   1.000  C
  H45      1.0000 0.81282  0.02648  0.13310  Biso   1.000  H
  H46      1.0000 0.75899  0.24643  0.12782  Biso   1.000  H
  O26      1.0000 0.54301  0.80408  0.13968  Biso   1.000  O
  H47      1.0000 0.64059  0.75810  0.10270  Biso   1.000  H
  H48      1.0000 0.73057  0.60461  0.23777  Biso   1.000  H
  H49      1.0000 0.94763  0.69007  0.11741  Biso   1.000  H
  O27      1.0000 0.02158  0.77927  0.06930  Biso   1.000  O
  C32      1.0000 0.06477  0.57714  0.13522  Biso   1.000  C
  C33      1.0000 0.47341  0.74914  0.08007  Biso   1.000  C
  C34      1.0000 0.11572  0.80841  0.07639  Biso   1.000  C
  O28      1.0000 0.05571  0.51236  0.19338  Biso   1.000  O
  H50      1.0000 0.03722  0.52250  0.09400  Biso   1.000  H
  C35      1.0000 0.16588  0.60382  0.14424  Biso   1.000  C
  C36      1.0000 0.44618  0.61898  0.10488  Biso   1.000  C
  H51      1.0000 0.49952  0.73230  0.04361  Biso   1.000  H
  C37      1.0000 0.39271  0.84523  0.05360  Biso   1.000  C
  C38      1.0000 0.16689  0.67845  0.08053  Biso   1.000  C
  H52      1.0000 0.14429  0.85606  0.12000  Biso   1.000  H
  C39      1.0000 0.11541  0.89652  0.01802  Biso   1.000  C
  H53      1.0000 0.02558  0.55843  0.21058  Biso   1.000  H
  O29      1.0000 0.21626  0.48459  0.15247  Biso   1.000  O
  H54      1.0000 0.19348  0.65895  0.18531  Biso   1.000  H
  O30      1.0000 0.51838  0.52525  0.11844  Biso   1.000  O
  C40      1.0000 0.36026  0.56276  0.05013  Biso   1.000  C
  H55      1.0000 0.43280  0.63473  0.14750  Biso   1.000  H
  O31      1.0000 0.31685  0.77907  0.00326  Biso   1.000  O
  H56      1.0000 0.37437  0.87585  0.09219  Biso   1.000  H
  C41      1.0000 0.41338  0.96160  0.01559  Biso   1.000  C
  O32      1.0000 0.26075  0.69962  0.08659  Biso   1.000  O
  H57      1.0000 0.13590  0.62597  0.03900  Biso   1.000  H
  O33      1.0000 0.08023  0.82889  0.95329  Biso   1.000  O
  H58      1.0000 0.07747  0.97322  0.01699  Biso   1.000  H
  H59      1.0000 0.17766  0.92655  0.02527  Biso   1.000  H
  H60      1.0000 0.23816  0.46618  0.19370  Biso   1.000  H
  H61      1.0000 0.56482  0.55390  0.14838  Biso   1.000  H
  O34      1.0000 0.32767  0.44875  0.07484  Biso   1.000  O
  C42      1.0000 0.28552  0.66732  0.02776  Biso   1.000  C
  H62      1.0000 0.37649  0.53756  0.00979  Biso   1.000  H
  H63      1.0000 0.46368  0.01221  0.04718  Biso   1.000  H
  H64      1.0000 0.43306  0.93029  0.97825  Biso   1.000  H
  O35      1.0000 0.33494  0.04430  0.98783  Biso   1.000  O
  H65      1.0000 0.02384  0.82396  0.94127  Biso   1.000  H
  H66      1.0000 0.28099  0.42148  0.04480  Biso   1.000  H
  H67      1.0000 0.23144  0.63168  0.99104  Biso   1.000  H
  H68      1.0000 0.29205  0.00138  0.96168  Biso   1.000  H
  C43      1.0000 0.54174  0.82446  0.48222  Biso   1.000  C
  C44      1.0000 0.46127  0.91700  0.47595  Biso   1.000  C
  O36      1.0000 0.55440  0.80506  0.41790  Biso   1.000  O
  H69      1.0000 0.53089  0.73939  0.50060  Biso   1.000  H
  C45      1.0000 0.63080  0.88491  0.53121  Biso   1.000  C
  C46      1.0000 0.45796  0.94949  0.54768  Biso   1.000  C
  O37      1.0000 0.37620  0.86472  0.43214  Biso   1.000  O
  H70      1.0000 0.47226  0.99931  0.45518  Biso   1.000  H
  H71      1.0000 0.50809  0.77090  0.39050  Biso   1.000  H
  C47      1.0000 0.62094  0.91681  0.60066  Biso   1.000  C
  O38      1.0000 0.70281  0.78990  0.53997  Biso   1.000  O
  H72      1.0000 0.64508  0.96554  0.51070  Biso   1.000  H
  O39      1.0000 0.43642  0.83292  0.57570  Biso   1.000  O
  O40      1.0000 0.54361  0.00295  0.58979  Biso   1.000  O
  H73      1.0000 0.40914  0.01437  0.54287  Biso   1.000  H
  H74      1.0000 0.35673  0.81166  0.45379  Biso   1.000  H
  H75      1.0000 0.61204  0.83568  0.62330  Biso   1.000  H
  C48      1.0000 0.70444  0.99163  0.64800  Biso   1.000  C
  C49      1.0000 0.77738  0.82623  0.51816  Biso   1.000  C
  C50      1.0000 0.36345  0.83785  0.60455  Biso   1.000  C
  O41      1.0000 0.69285  0.01723  0.71253  Biso   1.000  O
  O42      1.0000 0.85609  0.86305  0.57415  Biso   1.000  O
  H76      1.0000 0.75818  0.90066  0.48610  Biso   1.000  H
  C51      1.0000 0.79815  0.70956  0.47994  Biso   1.000  C
  C52      1.0000 0.29993  0.72354  0.57285  Biso   1.000  C
  H77      1.0000 0.32976  0.92124  0.59227  Biso   1.000  H
  C53      1.0000 0.40274  0.82229  0.68280  Biso   1.000  C
  H78      1.0000 0.65957  0.08182  0.70880  Biso   1.000  H
  C54      1.0000 0.89297  0.76154  0.62459  Biso   1.000  C
  O43      1.0000 0.72056  0.67727  0.41986  Biso   1.000  O
  H79      1.0000 0.84909  0.73467  0.46430  Biso   1.000  H
  C55      1.0000 0.83024  0.59358  0.52883  Biso   1.000  C
  O44      1.0000 0.25771  0.74008  0.49967  Biso   1.000  O
  C56      1.0000 0.22656  0.70533  0.60677  Biso   1.000  C
  H80      1.0000 0.33756  0.64330  0.58098  Biso   1.000  H
  O45      1.0000 0.32568  0.82219  0.70782  Biso   1.000  O
  H81      1.0000 0.43392  0.73683  0.69357  Biso   1.000  H
  C57      1.0000 0.46976  0.92872  0.72175  Biso   1.000  C
  C58      1.0000 0.91279  0.63661  0.59067  Biso   1.000  C
  H82      1.0000 0.84865  0.74156  0.64790  Biso   1.000  H
  C59      1.0000 0.97984  0.82022  0.67659  Biso   1.000  C
  H83      1.0000 0.67268  0.69676  0.42660  Biso   1.000  H
  O46      1.0000 0.85403  0.48105  0.49636  Biso   1.000  O
  H84      1.0000 0.78015  0.56877  0.54561  Biso   1.000  H
  H85      1.0000 0.29708  0.73358  0.48129  Biso   1.000  H
  O47      1.0000 0.17693  0.58472  0.58642  Biso   1.000  O
  C60      1.0000 0.26910  0.71025  0.68575  Biso   1.000  C
  H86      1.0000 0.18237  0.77799  0.59181  Biso   1.000  H
  H87      1.0000 0.48494  0.91523  0.77110  Biso   1.000  H
  H88      1.0000 0.52636  0.92074  0.71139  Biso   1.000  H
  O48      1.0000 0.43369  0.05868  0.70440  Biso   1.000  O
  O49      1.0000 0.93271  0.53165  0.63961  Biso   1.000  O
  H89      1.0000 0.96596  0.65147  0.57580  Biso   1.000  H
  H90      1.0000 0.96387  0.89840  0.69710  Biso   1.000  H
  O50      1.0000 0.04566  0.85399  0.64417  Biso   1.000  O
  H91      1.0000 0.00722  0.75711  0.71336  Biso   1.000  H
  H92      1.0000 0.87857  0.42532  0.52577  Biso   1.000  H
  H93      1.0000 0.17527  0.56473  0.54737  Biso   1.000  H
  O51      1.0000 0.32108  0.59388  0.70782  Biso   1.000  O
  H94      1.0000 0.21952  0.71291  0.70549  Biso   1.000  H
  H95      1.0000 0.39583  0.07374  0.72341  Biso   1.000  H
  C61      1.0000 0.02643  0.49060  0.67001  Biso   1.000  C
  H96      1.0000 0.02387  0.91090  0.61480  Biso   1.000  H
  C62      1.0000 0.29886  0.51157  0.75634  Biso   1.000  C
  O52      1.0000 0.06399  0.52781  0.74008  Biso   1.000  O
  H97      1.0000 0.06300  0.52978  0.64437  Biso   1.000  H
  C63      1.0000 0.02663  0.34164  0.66281  Biso   1.000  C
  C64      1.0000 0.31115  0.37029  0.73672  Biso   1.000  C
  H98      1.0000 0.23444  0.52604  0.75256  Biso   1.000  H
  C65      1.0000 0.36293  0.54366  0.83009  Biso   1.000  C
  C66      1.0000 0.01354  0.47819  0.78260  Biso   1.000  C
  O53      1.0000 0.99096  0.30619  0.59119  Biso   1.000  O
  C67      1.0000 0.97344  0.27971  0.70471  Biso   1.000  C
  H99      1.0000 0.09074  0.31121  0.68177  Biso   1.000  H
  O54      1.0000 0.24271  0.34715  0.67042  Biso   1.000  O
  C68      1.0000 0.30084  0.27705  0.79115  Biso   1.000  C
  H100     1.0000 0.37276  0.35995  0.73351  Biso   1.000  H
  O55      1.0000 0.34934  0.44728  0.87748  Biso   1.000  O
  H101     1.0000 0.42724  0.54130  0.83206  Biso   1.000  H
  C69      1.0000 0.34253  0.67569  0.85537  Biso   1.000  C
  H102     1.0000 0.95025  0.51216  0.76499  Biso   1.000  H
  C70      1.0000 0.01105  0.32962  0.77913  Biso   1.000  C
  C71      1.0000 0.06152  0.53106  0.85532  Biso   1.000  C
  H103     1.0000 0.94314  0.34725  0.57197  Biso   1.000  H
  O56      1.0000 0.98305  0.14059  0.70331  Biso   1.000  O
  H104     1.0000 0.90805  0.30324  0.68420  Biso   1.000  H
  H105     1.0000 0.25519  0.38998  0.64101  Biso   1.000  H
  O57      1.0000 0.31832  0.14492  0.77706  Biso   1.000  O
  C72      1.0000 0.36701  0.31752  0.86210  Biso   1.000  C
  H106     1.0000 0.23753  0.28325  0.79135  Biso   1.000  H
  O58      1.0000 0.24769  0.68662  0.84760  Biso   1.000  O
  H107     1.0000 0.37985  0.68652  0.90379  Biso   1.000  H
  H108     1.0000 0.35873  0.74520  0.82927  Biso   1.000  H
  O59      1.0000 0.94979  0.27931  0.81217  Biso   1.000  O
  H109     1.0000 0.07320  0.29438  0.80218  Biso   1.000  H
  O60      1.0000 0.15470  0.48617  0.88442  Biso   1.000  O
  H110     1.0000 0.06103  0.62656  0.85397  Biso   1.000  H
  H111     1.0000 0.02752  0.50340  0.88489  Biso   1.000  H
  H112     1.0000 0.00650  0.12080  0.67436  Biso   1.000  H
  H113     1.0000 0.26932  0.10456  0.76220  Biso   1.000  H
  O61      1.0000 0.45694  0.30403  0.86029  Biso   1.000  O
  H114     1.0000 0.35929  0.25815  0.89727  Biso   1.000  H
  H115     1.0000 0.24092  0.74638  0.87220  Biso   1.000  H
  C73      1.0000 0.98680  0.20754  0.87412  Biso   1.000  C
  H116     1.0000 0.18713  0.52653  0.86687  Biso   1.000  H
  C74      1.0000 0.52654  0.24909  0.91990  Biso   1.000  C
  C75      1.0000 0.93512  0.07709  0.86474  Biso   1.000  C
  O62      1.0000 0.97837  0.27922  0.93067  Biso   1.000  O
  H117     1.0000 0.05232  0.19002  0.88256  Biso   1.000  H
  C76      1.0000 0.55373  0.11903  0.89514  Biso   1.000  C
  H118     1.0000 0.50043  0.23235  0.95636  Biso   1.000  H
  C77      1.0000 0.60724  0.34518  0.94636  Biso   1.000  C
  C78      1.0000 0.83401  0.10377  0.85573  Biso   1.000  C
  O63      1.0000 0.94418  0.01231  0.80658  Biso   1.000  O
  H119     1.0000 0.96273  0.02255  0.90597  Biso   1.000  H
  C79      1.0000 0.88423  0.30846  0.92358  Biso   1.000  C
  O64      1.0000 0.48157  0.02520  0.88152  Biso   1.000  O
  C80      1.0000 0.63963  0.06272  0.94983  Biso   1.000  C
  H120     1.0000 0.56715  0.13469  0.85247  Biso   1.000  H
  O65      1.0000 0.68304  0.27902  0.99670  Biso   1.000  O
  H121     1.0000 0.62551  0.37580  0.90778  Biso   1.000  H
  C81      1.0000 0.58651  0.46165  0.98438  Biso   1.000  C
  C82      1.0000 0.83306  0.17840  0.91943  Biso   1.000  C
  H122     1.0000 0.80641  0.15891  0.81466  Biso   1.000  H
  O66      1.0000 0.78372  0.98464  0.84755  Biso   1.000  O
  H123     1.0000 0.97437  0.05838  0.78939  Biso   1.000  H
  H124     1.0000 0.85566  0.35601  0.87997  Biso   1.000  H
  C83      1.0000 0.88456  0.39648  0.98199  Biso   1.000  C
  H125     1.0000 0.43514  0.05385  0.85159  Biso   1.000  H
  C84      1.0000 0.71446  0.16727  0.97226  Biso   1.000  C
  H126     1.0000 0.62339  0.03751  0.99018  Biso   1.000  H
  O67      1.0000 0.67222  0.94871  0.92513  Biso   1.000  O
  H127     1.0000 0.53620  0.51226  0.95279  Biso   1.000  H
  O68      1.0000 0.66497  0.54435  0.01219  Biso   1.000  O
  H128     1.0000 0.56689  0.43034  0.02172  Biso   1.000  H
  O69      1.0000 0.73922  0.19957  0.91342  Biso   1.000  O
  H129     1.0000 0.86405  0.12592  0.96097  Biso   1.000  H
  H130     1.0000 0.76172  0.96623  0.80627  Biso   1.000  H
  H131     1.0000 0.92242  0.47317  0.98298  Biso   1.000  H
  H132     1.0000 0.82222  0.42650  0.97469  Biso   1.000  H
  O70      1.0000 0.91966  0.32894  0.04668  Biso   1.000  O
  H133     1.0000 0.76851  0.13173  0.00893  Biso   1.000  H
  H134     1.0000 0.71889  0.92153  0.95517  Biso   1.000  H
  H135     1.0000 0.70792  0.50143  0.03834  Biso   1.000  H
  H136     1.0000 0.97611  0.32391  0.05870  Biso   1.000  H
