data_image0
_cell_length_a       14.865
_cell_length_b       15.086
_cell_length_c       15.349
_cell_angle_alpha    100.49
_cell_angle_beta     98.18
_cell_angle_gamma    111.9

_symmetry_space_group_name_H-M    "P 1"
_symmetry_int_tables_number       1

loop_
  _symmetry_equiv_pos_as_xyz
  'x, y, z'

loop_
  _atom_site_label
  _atom_site_occupancy
  _atom_site_fract_x
  _atom_site_fract_y
  _atom_site_fract_z
  _atom_site_thermal_displace_type
  _atom_site_B_iso_or_equiv
  _atom_site_type_symbol
  C1       1.0000 0.51059  0.40662  0.58013  Biso   1.000  C
  N1       1.0000 0.44628  0.38859  0.63480  Biso   1.000  N
  H1       1.0000 0.49566  0.43020  0.52899  Biso   1.000  H
  C2       1.0000 0.59704  0.39208  0.59517  Biso   1.000  C
  B1       1.0000 0.34489  0.40188  0.61192  Biso   1.000  B
  C3       1.0000 0.46536  0.35269  0.70793  Biso   1.000  C
  C4       1.0000 0.61545  0.35502  0.66851  Biso   1.000  C
  H2       1.0000 0.64238  0.40718  0.55670  Biso   1.000  H
  C5       1.0000 0.25527  0.30577  0.54629  Biso   1.000  C
  O1       1.0000 0.37536  0.49647  0.57747  Biso   1.000  O
  O2       1.0000 0.32198  0.43750  0.70310  Biso   1.000  O
  C6       1.0000 0.54957  0.33825  0.72489  Biso   1.000  C
  H3       1.0000 0.41963  0.33808  0.74613  Biso   1.000  H
  O3       1.0000 0.69067  0.33321  0.69363  Biso   1.000  O
  C7       1.0000 0.26627  0.23390  0.48950  Biso   1.000  C
  C8       1.0000 0.16056  0.29369  0.54860  Biso   1.000  C
  C9       1.0000 0.38018  0.56642  0.64434  Biso   1.000  C
  C10      1.0000 0.34874  0.53297  0.71937  Biso   1.000  C
  O4       1.0000 0.57997  0.30526  0.79332  Biso   1.000  O
  B2       1.0000 0.67987  0.30687  0.78419  Biso   1.000  B
  C11      1.0000 0.18485  0.15391  0.43353  Biso   1.000  C
  H4       1.0000 0.33128  0.23820  0.48773  Biso   1.000  H
  C12      1.0000 0.08045  0.21395  0.49638  Biso   1.000  C
  H5       1.0000 0.15024  0.34317  0.58857  Biso   1.000  H
  C13      1.0000 0.41369  0.66899  0.64890  Biso   1.000  C
  C14      1.0000 0.34348  0.59577  0.79189  Biso   1.000  C
  N2       1.0000 0.76439  0.39748  0.86038  Biso   1.000  N
  C15      1.0000 0.68976  0.20468  0.78923  Biso   1.000  C
  H6       1.0000 0.19473  0.10608  0.39097  Biso   1.000  H
  C16      1.0000 0.09213  0.14232  0.43809  Biso   1.000  C
  H7       1.0000 0.01540  0.20805  0.50060  Biso   1.000  H
  C17      1.0000 0.41040  0.73123  0.72761  Biso   1.000  C
  H8       1.0000 0.43736  0.69469  0.60049  Biso   1.000  H
  N3       1.0000 0.37567  0.69540  0.79509  Biso   1.000  N
  H9       1.0000 0.31792  0.57170  0.84023  Biso   1.000  H
  C18      1.0000 0.74486  0.41769  0.94468  Biso   1.000  C
  C19      1.0000 0.85029  0.45019  0.84411  Biso   1.000  C
  C20      1.0000 0.77545  0.19270  0.80578  Biso   1.000  C
  C21      1.0000 0.60135  0.11716  0.77098  Biso   1.000  C
  C22      1.0000 0.00014  0.04497  0.38008  Biso   1.000  C
  H10      1.0000 0.43330  0.80023  0.73272  Biso   1.000  H
  B3       1.0000 0.36704  0.76833  0.88040  Biso   1.000  B
  H11      1.0000 0.68305  0.37816  0.95591  Biso   1.000  H
  C23      1.0000 0.81413  0.49429  0.01182  Biso   1.000  C
  H12      1.0000 0.86248  0.43519  0.78528  Biso   1.000  H
  C24      1.0000 0.92280  0.52749  0.91227  Biso   1.000  C
  H13      1.0000 0.83667  0.24960  0.82130  Biso   1.000  H
  C25      1.0000 0.77870  0.10078  0.80149  Biso   1.000  C
  C26      1.0000 0.60322  0.02688  0.76540  Biso   1.000  C
  H14      1.0000 0.53873  0.12178  0.76240  Biso   1.000  H
  H15      1.0000 0.02344  0.00340  0.34079  Biso   1.000  H
  H16      1.0000 0.95361  0.06246  0.34249  Biso   1.000  H
  H17      1.0000 0.96625  0.00860  0.42120  Biso   1.000  H
  O5       1.0000 0.44671  0.86782  0.88748  Biso   1.000  O
  O6       1.0000 0.40250  0.74083  0.96552  Biso   1.000  O
  C27      1.0000 0.25783  0.76319  0.87012  Biso   1.000  C
  C28      1.0000 0.90442  0.55020  0.99193  Biso   1.000  C
  O7       1.0000 0.81133  0.52725  0.09829  Biso   1.000  O
  H18      1.0000 0.98567  0.56390  0.90110  Biso   1.000  H
  H19      1.0000 0.84125  0.09635  0.81231  Biso   1.000  H
  C29      1.0000 0.69235  0.01666  0.78160  Biso   1.000  C
  H20      1.0000 0.54230  0.96983  0.75008  Biso   1.000  H
  C30      1.0000 0.51941  0.88717  0.96020  Biso   1.000  C
  C31      1.0000 0.49186  0.81273  0.00753  Biso   1.000  C
  C32      1.0000 0.19872  0.75352  0.78623  Biso   1.000  C
  C33      1.0000 0.22043  0.77907  0.94373  Biso   1.000  C
  O8       1.0000 0.96595  0.62040  0.06867  Biso   1.000  O
  B4       1.0000 0.90286  0.61411  0.13989  Biso   1.000  B
  C34      1.0000 0.69688  0.91763  0.77459  Biso   1.000  C
  C35      1.0000 0.60792  0.96781  0.99227  Biso   1.000  C
  C36      1.0000 0.55293  0.81665  0.08617  Biso   1.000  C
  H21      1.0000 0.22058  0.73889  0.73231  Biso   1.000  H
  C37      1.0000 0.10799  0.76433  0.77861  Biso   1.000  C
  C38      1.0000 0.13161  0.79062  0.94032  Biso   1.000  C
  H22      1.0000 0.25686  0.78261  0.00119  Biso   1.000  H
  N4       1.0000 0.88023  0.71215  0.14718  Biso   1.000  N
  C39      1.0000 0.95975  0.61487  0.23672  Biso   1.000  C
  H23      1.0000 0.67653  0.89272  0.82661  Biso   1.000  H
  H24      1.0000 0.76525  0.92465  0.77493  Biso   1.000  H
  H25      1.0000 0.65204  0.87093  0.71787  Biso   1.000  H
  C40      1.0000 0.67013  0.97016  0.07351  Biso   1.000  C
  H26      1.0000 0.62710  0.01942  0.96232  Biso   1.000  H
  N5       1.0000 0.64225  0.89751  0.11722  Biso   1.000  N
  H27      1.0000 0.53407  0.76598  0.11722  Biso   1.000  H
  H28      1.0000 0.06890  0.75672  0.72087  Biso   1.000  H
  C41      1.0000 0.07679  0.78701  0.85998  Biso   1.000  C
  H29      1.0000 0.10899  0.80119  0.99452  Biso   1.000  H
  C42      1.0000 0.80013  0.71217  0.17707  Biso   1.000  C
  C43      1.0000 0.94373  0.79427  0.13159  Biso   1.000  C
  C44      1.0000 0.94763  0.52409  0.25762  Biso   1.000  C
  C45      1.0000 0.02937  0.69770  0.30624  Biso   1.000  C
  H30      1.0000 0.73288  0.02458  0.09761  Biso   1.000  H
  B5       1.0000 0.71575  0.90980  0.20900  Biso   1.000  B
  C46      1.0000 0.98004  0.80261  0.85541  Biso   1.000  C
  C47      1.0000 0.77882  0.79187  0.18749  Biso   1.000  C
  H31      1.0000 0.75740  0.65455  0.19130  Biso   1.000  H
  C48      1.0000 0.92985  0.88096  0.14432  Biso   1.000  C
  H32      1.0000 0.00069  0.79312  0.11102  Biso   1.000  H
  H33      1.0000 0.90049  0.46406  0.21643  Biso   1.000  H
  C49      1.0000 0.00315  0.52058  0.33729  Biso   1.000  C
  H34      1.0000 0.03951  0.76087  0.29677  Biso   1.000  H
  C50      1.0000 0.08378  0.69610  0.38583  Biso   1.000  C
  O9       1.0000 0.81909  0.95292  0.19321  Biso   1.000  O
  O10      1.0000 0.70234  0.80471  0.21261  Biso   1.000  O
  C51      1.0000 0.69257  0.96447  0.29493  Biso   1.000  C
  H35      1.0000 0.99619  0.87317  0.87693  Biso   1.000  H
  H36      1.0000 0.94121  0.76661  0.89402  Biso   1.000  H
  H37      1.0000 0.94093  0.77799  0.79229  Biso   1.000  H
  C52      1.0000 0.84825  0.87911  0.17339  Biso   1.000  C
  H38      1.0000 0.97565  0.93887  0.13288  Biso   1.000  H
  H39      1.0000 0.99469  0.45774  0.34689  Biso   1.000  H
  C53      1.0000 0.06776  0.60199  0.40068  Biso   1.000  C
  H40      1.0000 0.12998  0.75527  0.42880  Biso   1.000  H
  C54      1.0000 0.70258  0.93608  0.37583  Biso   1.000  C
  C55      1.0000 0.66832  0.04512  0.30031  Biso   1.000  C
  C56      1.0000 0.13336  0.59719  0.48314  Biso   1.000  C
  C57      1.0000 0.68571  0.98340  0.45638  Biso   1.000  C
  H41      1.0000 0.72149  0.88268  0.37698  Biso   1.000  H
  H42      1.0000 0.66182  0.06900  0.24768  Biso   1.000  H
  C58      1.0000 0.65294  0.09286  0.38032  Biso   1.000  C
  H43      1.0000 0.14693  0.65339  0.53420  Biso   1.000  H
  H44      1.0000 0.19627  0.59957  0.46884  Biso   1.000  H
  H45      1.0000 0.09927  0.53540  0.49961  Biso   1.000  H
  H46      1.0000 0.69051  0.96028  0.50969  Biso   1.000  H
  C59      1.0000 0.66179  0.06434  0.45638  Biso   1.000  C
  H47      1.0000 0.63551  0.14740  0.37991  Biso   1.000  H
  C60      1.0000 0.63967  0.11481  0.53979  Biso   1.000  C
  H48      1.0000 0.68733  0.18420  0.56042  Biso   1.000  H
  H49      1.0000 0.64538  0.08172  0.58833  Biso   1.000  H
  H50      1.0000 0.57182  0.11129  0.52481  Biso   1.000  H
  C61      1.0000 0.48955  0.59342  0.41991  Biso   1.000  C
  N6       1.0000 0.55387  0.61145  0.36523  Biso   1.000  N
  H51      1.0000 0.50447  0.56982  0.47098  Biso   1.000  H
  C62      1.0000 0.40306  0.60787  0.40479  Biso   1.000  C
  B6       1.0000 0.65523  0.59809  0.38811  Biso   1.000  B
  C63      1.0000 0.53475  0.64728  0.29211  Biso   1.000  C
  C64      1.0000 0.38470  0.64502  0.33153  Biso   1.000  C
  H52      1.0000 0.35774  0.59279  0.44333  Biso   1.000  H
  O11      1.0000 0.62474  0.50348  0.42250  Biso   1.000  O
  O12      1.0000 0.67814  0.56252  0.29687  Biso   1.000  O
  C65      1.0000 0.74483  0.69418  0.45368  Biso   1.000  C
  C66      1.0000 0.45053  0.66170  0.27508  Biso   1.000  C
  H53      1.0000 0.58042  0.66189  0.25391  Biso   1.000  H
  O13      1.0000 0.30947  0.66683  0.30640  Biso   1.000  O
  C67      1.0000 0.61997  0.43363  0.35570  Biso   1.000  C
  C68      1.0000 0.65136  0.46698  0.28060  Biso   1.000  C
  C69      1.0000 0.73385  0.76612  0.51047  Biso   1.000  C
  C70      1.0000 0.83957  0.70633  0.45137  Biso   1.000  C
  O14      1.0000 0.42015  0.69471  0.20672  Biso   1.000  O
  B7       1.0000 0.32022  0.69308  0.21578  Biso   1.000  B
  C71      1.0000 0.58641  0.33096  0.35107  Biso   1.000  C
  C72      1.0000 0.65662  0.40418  0.20808  Biso   1.000  C
  H54      1.0000 0.66886  0.76184  0.51231  Biso   1.000  H
  C73      1.0000 0.81529  0.84613  0.56651  Biso   1.000  C
  C74      1.0000 0.91964  0.78600  0.50359  Biso   1.000  C
  H55      1.0000 0.84986  0.65679  0.41140  Biso   1.000  H
  N7       1.0000 0.23574  0.60254  0.13958  Biso   1.000  N
  C75      1.0000 0.31035  0.79529  0.21081  Biso   1.000  C
  C76      1.0000 0.58974  0.26881  0.27243  Biso   1.000  C
  H56      1.0000 0.56274  0.30527  0.39948  Biso   1.000  H
  N8       1.0000 0.62446  0.30463  0.20488  Biso   1.000  N
  H57      1.0000 0.68222  0.42834  0.15981  Biso   1.000  H
  H58      1.0000 0.80536  0.89387  0.60900  Biso   1.000  H
  C77      1.0000 0.90799  0.85770  0.56188  Biso   1.000  C
  H59      1.0000 0.98470  0.79190  0.49937  Biso   1.000  H
  C78      1.0000 0.25526  0.58233  0.05529  Biso   1.000  C
  C79      1.0000 0.14982  0.54978  0.15593  Biso   1.000  C
  C80      1.0000 0.22468  0.80732  0.19419  Biso   1.000  C
  C81      1.0000 0.39875  0.88279  0.22899  Biso   1.000  C
  H60      1.0000 0.56684  0.19981  0.26732  Biso   1.000  H
  B8       1.0000 0.63310  0.23171  0.11963  Biso   1.000  B
  C82      1.0000 0.99996  0.95498  0.61989  Biso   1.000  C
  H61      1.0000 0.31707  0.62181  0.04412  Biso   1.000  H
  C83      1.0000 0.18601  0.50575  0.98822  Biso   1.000  C
  H62      1.0000 0.13764  0.56483  0.21469  Biso   1.000  H
  C84      1.0000 0.07732  0.47253  0.08770  Biso   1.000  C
  H63      1.0000 0.16346  0.75043  0.17867  Biso   1.000  H
  C85      1.0000 0.22135  0.89925  0.19848  Biso   1.000  C
  C86      1.0000 0.39691  0.97314  0.23457  Biso   1.000  C
  H64      1.0000 0.46138  0.87819  0.23763  Biso   1.000  H
  O15      1.0000 0.55342  0.13221  0.11248  Biso   1.000  O
  O16      1.0000 0.59764  0.25921  0.03452  Biso   1.000  O
  C87      1.0000 0.74229  0.23678  0.12992  Biso   1.000  C
  H65      1.0000 0.97669  0.99662  0.65918  Biso   1.000  H
  H66      1.0000 0.04649  0.93749  0.65748  Biso   1.000  H
  H67      1.0000 0.03389  0.99144  0.57883  Biso   1.000  H
  C88      1.0000 0.09572  0.44984  0.00810  Biso   1.000  C
  O17      1.0000 0.18877  0.47270  0.90168  Biso   1.000  O
  H68      1.0000 0.01446  0.43612  0.09887  Biso   1.000  H
  H69      1.0000 0.15886  0.90361  0.18772  Biso   1.000  H
  C89      1.0000 0.30777  0.98331  0.21843  Biso   1.000  C
  H70      1.0000 0.45780  0.03013  0.24989  Biso   1.000  H
  C90      1.0000 0.48071  0.11280  0.03983  Biso   1.000  C
  C91      1.0000 0.50828  0.18731  0.99251  Biso   1.000  C
  C92      1.0000 0.80142  0.24652  0.21380  Biso   1.000  C
  C93      1.0000 0.77968  0.22090  0.05631  Biso   1.000  C
  O18      1.0000 0.03418  0.37963  0.93130  Biso   1.000  O
  B9       1.0000 0.09727  0.38591  0.86008  Biso   1.000  B
  C94      1.0000 0.30315  0.08232  0.22538  Biso   1.000  C
  C95      1.0000 0.39220  0.03222  0.00769  Biso   1.000  C
  C96      1.0000 0.44717  0.18330  0.91380  Biso   1.000  C
  H71      1.0000 0.77953  0.26108  0.26773  Biso   1.000  H
  C97      1.0000 0.89209  0.23571  0.22143  Biso   1.000  C
  C98      1.0000 0.86854  0.20942  0.05971  Biso   1.000  C
  H72      1.0000 0.74327  0.21742  0.99877  Biso   1.000  H
  N9       1.0000 0.11987  0.28780  0.85279  Biso   1.000  N
  C99      1.0000 0.04036  0.38510  0.76332  Biso   1.000  C
  H73      1.0000 0.32359  0.10725  0.17343  Biso   1.000  H
  H74      1.0000 0.23487  0.07532  0.22511  Biso   1.000  H
  H75      1.0000 0.34806  0.12902  0.28210  Biso   1.000  H
  H76      1.0000 0.37295  0.98055  0.03772  Biso   1.000  H
  C100     1.0000 0.32999  0.02981  0.92653  Biso   1.000  C
  N10      1.0000 0.35789  0.10253  0.88282  Biso   1.000  N
  H77      1.0000 0.46604  0.23399  0.88282  Biso   1.000  H
  H78      1.0000 0.93122  0.24331  0.27910  Biso   1.000  H
  C101     1.0000 0.92333  0.21301  0.13999  Biso   1.000  C
  H79      1.0000 0.89106  0.19878  0.00552  Biso   1.000  H
  C102     1.0000 0.19999  0.28785  0.82290  Biso   1.000  C
  C103     1.0000 0.05637  0.20568  0.86838  Biso   1.000  C
  C104     1.0000 0.97077  0.30234  0.69380  Biso   1.000  C
  C105     1.0000 0.05251  0.47595  0.74242  Biso   1.000  C
  H80      1.0000 0.26723  0.97539  0.90243  Biso   1.000  H
  B10      1.0000 0.28439  0.09024  0.79103  Biso   1.000  B
  C106     1.0000 0.02010  0.19743  0.14462  Biso   1.000  C
  C107     1.0000 0.22128  0.20808  0.81248  Biso   1.000  C
  H81      1.0000 0.24270  0.34541  0.80867  Biso   1.000  H
  C108     1.0000 0.07027  0.11901  0.85572  Biso   1.000  C
  H82      1.0000 0.99946  0.20692  0.88901  Biso   1.000  H
  H83      1.0000 0.96058  0.23908  0.70320  Biso   1.000  H
  C109     1.0000 0.91636  0.30394  0.61420  Biso   1.000  C
  C110     1.0000 0.99698  0.47944  0.66268  Biso   1.000  C
  H84      1.0000 0.09956  0.53591  0.78361  Biso   1.000  H
  O19      1.0000 0.18105  0.04712  0.80683  Biso   1.000  O
  O20      1.0000 0.29780  0.19533  0.78742  Biso   1.000  O
  C111     1.0000 0.30755  0.03550  0.70510  Biso   1.000  C
  H85      1.0000 0.00392  0.12680  0.12311  Biso   1.000  H
  H86      1.0000 0.05893  0.23343  0.10602  Biso   1.000  H
  H87      1.0000 0.05916  0.22196  0.20767  Biso   1.000  H
  C112     1.0000 0.15187  0.12091  0.82657  Biso   1.000  C
  H88      1.0000 0.02445  0.06108  0.86709  Biso   1.000  H
  H89      1.0000 0.87012  0.24469  0.57117  Biso   1.000  H
  C113     1.0000 0.93236  0.39803  0.59929  Biso   1.000  C
  H90      1.0000 0.00541  0.54222  0.65308  Biso   1.000  H
  C114     1.0000 0.33182  0.95492  0.69972  Biso   1.000  C
  C115     1.0000 0.29753  0.06389  0.62421  Biso   1.000  C
  C116     1.0000 0.86679  0.40285  0.51690  Biso   1.000  C
  H91      1.0000 0.33830  0.93102  0.75229  Biso   1.000  H
  C117     1.0000 0.34718  0.90711  0.61972  Biso   1.000  C
  C118     1.0000 0.31442  0.01662  0.54359  Biso   1.000  C
  H92      1.0000 0.27864  0.11734  0.62299  Biso   1.000  H
  H93      1.0000 0.85320  0.34663  0.46577  Biso   1.000  H
  H94      1.0000 0.80385  0.40040  0.53120  Biso   1.000  H
  H95      1.0000 0.90087  0.46464  0.50042  Biso   1.000  H
  H96      1.0000 0.36463  0.85264  0.62013  Biso   1.000  H
  C119     1.0000 0.33831  0.93561  0.54359  Biso   1.000  C
  H97      1.0000 0.30962  0.03974  0.49028  Biso   1.000  H
  C120     1.0000 0.36046  0.88521  0.46018  Biso   1.000  C
  H98      1.0000 0.31281  0.81584  0.43962  Biso   1.000  H
  H99      1.0000 0.35477  0.91832  0.41170  Biso   1.000  H
  H100     1.0000 0.42832  0.88875  0.47523  Biso   1.000  H
  Ne1      1.0000 0.58771  0.58648  0.93623  Biso   1.000  Ne
  He1      1.0000 0.57131  0.57040  0.94872  Biso   1.000  He
  He2      1.0000 0.59720  0.59516  0.93037  Biso   1.000  He
  Ar1      1.0000 0.58824  0.58653  0.93658  Biso   1.000  Ar
  Ne2      1.0000 0.41241  0.41352  0.06377  Biso   1.000  Ne
  He3      1.0000 0.40873  0.41040  0.06545  Biso   1.000  He
  He4      1.0000 0.42363  0.42464  0.05490  Biso   1.000  He
  Ar2      1.0000 0.41179  0.41332  0.06329  Biso   1.000  Ar
