data_image0
_cell_length_a       25.454
_cell_length_b       11.067
_cell_length_c       18.796
_cell_angle_alpha    90
_cell_angle_beta     103.54
_cell_angle_gamma    90

_symmetry_space_group_name_H-M    "P 1"
_symmetry_int_tables_number       1

loop_
  _symmetry_equiv_pos_as_xyz
  'x, y, z'

loop_
  _atom_site_label
  _atom_site_occupancy
  _atom_site_fract_x
  _atom_site_fract_y
  _atom_site_fract_z
  _atom_site_thermal_displace_type
  _atom_site_B_iso_or_equiv
  _atom_site_type_symbol
  C1       1.0000 0.77249  0.49779  0.42197  Biso   1.000  C
  C2       1.0000 0.79608  0.39080  0.45322  Biso   1.000  C
  H1       1.0000 0.74469  0.49480  0.38000  Biso   1.000  H
  C3       1.0000 0.78969  0.60685  0.45262  Biso   1.000  C
  C4       1.0000 0.83813  0.39604  0.51397  Biso   1.000  C
  H2       1.0000 0.78341  0.31662  0.43308  Biso   1.000  H
  H3       1.0000 0.77318  0.67778  0.43188  Biso   1.000  H
  C5       1.0000 0.83159  0.61173  0.51408  Biso   1.000  C
  C6       1.0000 0.86937  0.28978  0.55539  Biso   1.000  C
  C7       1.0000 0.85663  0.50764  0.54461  Biso   1.000  C
  H4       1.0000 0.84298  0.68609  0.53520  Biso   1.000  H
  H5       1.0000 0.85650  0.21117  0.53432  Biso   1.000  H
  C8       1.0000 0.86505  0.30406  0.63469  Biso   1.000  C
  C9       1.0000 0.92861  0.31327  0.55627  Biso   1.000  C
  C10      1.0000 0.90332  0.49661  0.61132  Biso   1.000  C
  C11      1.0000 0.84540  0.21966  0.67578  Biso   1.000  C
  C12      1.0000 0.88334  0.41610  0.66457  Biso   1.000  C
  C13      1.0000 0.94704  0.42487  0.58653  Biso   1.000  C
  C14      1.0000 0.96253  0.23692  0.53022  Biso   1.000  C
  H6       1.0000 0.91620  0.57513  0.63239  Biso   1.000  H
  H7       1.0000 0.83390  0.14430  0.65630  Biso   1.000  H
  C15      1.0000 0.84306  0.24912  0.74632  Biso   1.000  C
  C16      1.0000 0.88023  0.44420  0.73521  Biso   1.000  C
  C17      1.0000 0.00016  0.45839  0.59151  Biso   1.000  C
  H8       1.0000 0.95020  0.16274  0.50981  Biso   1.000  H
  C18      1.0000 0.01512  0.27297  0.53514  Biso   1.000  C
  O1       1.0000 0.81973  0.16129  0.78293  Biso   1.000  O
  C19      1.0000 0.85901  0.36116  0.77587  Biso   1.000  C
  H9       1.0000 0.89238  0.51875  0.75530  Biso   1.000  H
  H10      1.0000 0.01289  0.53185  0.61269  Biso   1.000  H
  C20      1.0000 0.03428  0.38231  0.56502  Biso   1.000  C
  O2       1.0000 0.04641  0.19536  0.50225  Biso   1.000  O
  C21      1.0000 0.83963  0.13689  0.85489  Biso   1.000  C
  H11      1.0000 0.85548  0.38068  0.82272  Biso   1.000  H
  H12      1.0000 0.06979  0.40490  0.56732  Biso   1.000  H
  C22      1.0000 0.09486  0.15262  0.54051  Biso   1.000  C
  N1       1.0000 0.88710  0.17855  0.88992  Biso   1.000  N
  C23      1.0000 0.80815  0.06397  0.88910  Biso   1.000  C
  N2       1.0000 0.11290  0.17855  0.61012  Biso   1.000  N
  C24      1.0000 0.12365  0.08268  0.50138  Biso   1.000  C
  C25      1.0000 0.90509  0.15262  0.95947  Biso   1.000  C
  Cl1      1.0000 0.74664  0.00931  0.84171  Biso   1.000  Cl
  C26      1.0000 0.82672  0.03804  0.96177  Biso   1.000  C
  C27      1.0000 0.16036  0.13689  0.64508  Biso   1.000  C
  Cl2      1.0000 0.09927  0.05548  0.40944  Biso   1.000  Cl
  C28      1.0000 0.17327  0.03804  0.53821  Biso   1.000  C
  O3       1.0000 0.95360  0.19536  0.99778  Biso   1.000  O
  C29      1.0000 0.87634  0.08268  0.99860  Biso   1.000  C
  H13      1.0000 0.80618  0.99096  0.98612  Biso   1.000  H
  O4       1.0000 0.18022  0.16129  0.71705  Biso   1.000  O
  C30      1.0000 0.19185  0.06397  0.61088  Biso   1.000  C
  H14      1.0000 0.19378  0.99096  0.51391  Biso   1.000  H
  C31      1.0000 0.98488  0.27297  0.96489  Biso   1.000  C
  Cl3      1.0000 0.90073  0.05548  0.09059  Biso   1.000  Cl
  C32      1.0000 0.15694  0.24912  0.75371  Biso   1.000  C
  Cl4      1.0000 0.25331  0.00931  0.65827  Biso   1.000  Cl
  C33      1.0000 0.96569  0.38231  0.93501  Biso   1.000  C
  C34      1.0000 0.03746  0.23692  0.96976  Biso   1.000  C
  C35      1.0000 0.15459  0.21966  0.82419  Biso   1.000  C
  C36      1.0000 0.14098  0.36116  0.72410  Biso   1.000  C
  C37      1.0000 0.99980  0.45839  0.90847  Biso   1.000  C
  H15      1.0000 0.93021  0.40490  0.93271  Biso   1.000  H
  H16      1.0000 0.04979  0.16274  0.99017  Biso   1.000  H
  C38      1.0000 0.07138  0.31327  0.94371  Biso   1.000  C
  C39      1.0000 0.13494  0.30406  0.86529  Biso   1.000  C
  H17      1.0000 0.16609  0.14430  0.84368  Biso   1.000  H
  H18      1.0000 0.14448  0.38068  0.67732  Biso   1.000  H
  C40      1.0000 0.11977  0.44420  0.76482  Biso   1.000  C
  H19      1.0000 0.98710  0.53185  0.88729  Biso   1.000  H
  C41      1.0000 0.05296  0.42487  0.91350  Biso   1.000  C
  C42      1.0000 0.13062  0.28978  0.94459  Biso   1.000  C
  C43      1.0000 0.11665  0.41610  0.83541  Biso   1.000  C
  H20      1.0000 0.10757  0.51875  0.74468  Biso   1.000  H
  C44      1.0000 0.09664  0.49661  0.88871  Biso   1.000  C
  H21      1.0000 0.14350  0.21117  0.96571  Biso   1.000  H
  C45      1.0000 0.16183  0.39604  0.98607  Biso   1.000  C
  H22      1.0000 0.08379  0.57513  0.86759  Biso   1.000  H
  C46      1.0000 0.14337  0.50764  0.95542  Biso   1.000  C
  C47      1.0000 0.20392  0.39080  0.04681  Biso   1.000  C
  C48      1.0000 0.16840  0.61173  0.98590  Biso   1.000  C
  H23      1.0000 0.21659  0.31662  0.06689  Biso   1.000  H
  C49      1.0000 0.22750  0.49779  0.07800  Biso   1.000  C
  H24      1.0000 0.15697  0.68609  0.96478  Biso   1.000  H
  C50      1.0000 0.21027  0.60685  0.04741  Biso   1.000  C
  H25      1.0000 0.25527  0.49480  0.11998  Biso   1.000  H
  H26      1.0000 0.22677  0.67778  0.06810  Biso   1.000  H
  C51      1.0000 0.77249  0.49779  0.42197  Biso   1.000  C
  C52      1.0000 0.79608  0.39080  0.45322  Biso   1.000  C
  H27      1.0000 0.74469  0.49480  0.38000  Biso   1.000  H
  C53      1.0000 0.78969  0.60685  0.45262  Biso   1.000  C
  C54      1.0000 0.83813  0.39604  0.51397  Biso   1.000  C
  H28      1.0000 0.78341  0.31662  0.43308  Biso   1.000  H
  H29      1.0000 0.77318  0.67778  0.43188  Biso   1.000  H
  C55      1.0000 0.83159  0.61173  0.51408  Biso   1.000  C
  C56      1.0000 0.86937  0.28978  0.55539  Biso   1.000  C
  C57      1.0000 0.85663  0.50764  0.54461  Biso   1.000  C
  H30      1.0000 0.84298  0.68609  0.53520  Biso   1.000  H
  H31      1.0000 0.85650  0.21117  0.53432  Biso   1.000  H
  C58      1.0000 0.86505  0.30406  0.63469  Biso   1.000  C
  C59      1.0000 0.92861  0.31327  0.55627  Biso   1.000  C
  C60      1.0000 0.90332  0.49661  0.61132  Biso   1.000  C
  C61      1.0000 0.84540  0.21966  0.67578  Biso   1.000  C
  C62      1.0000 0.88334  0.41610  0.66457  Biso   1.000  C
  C63      1.0000 0.94704  0.42487  0.58653  Biso   1.000  C
  C64      1.0000 0.96253  0.23692  0.53022  Biso   1.000  C
  H32      1.0000 0.91620  0.57513  0.63239  Biso   1.000  H
  H33      1.0000 0.83390  0.14430  0.65630  Biso   1.000  H
  C65      1.0000 0.84306  0.24912  0.74632  Biso   1.000  C
  C66      1.0000 0.88023  0.44420  0.73521  Biso   1.000  C
  C67      1.0000 0.00016  0.45839  0.59151  Biso   1.000  C
  H34      1.0000 0.95020  0.16274  0.50981  Biso   1.000  H
  C68      1.0000 0.01512  0.27297  0.53514  Biso   1.000  C
  O5       1.0000 0.81973  0.16129  0.78293  Biso   1.000  O
  C69      1.0000 0.85901  0.36116  0.77587  Biso   1.000  C
  H35      1.0000 0.89238  0.51875  0.75530  Biso   1.000  H
  H36      1.0000 0.01289  0.53185  0.61269  Biso   1.000  H
  C70      1.0000 0.03428  0.38231  0.56502  Biso   1.000  C
  O6       1.0000 0.04641  0.19536  0.50225  Biso   1.000  O
  C71      1.0000 0.83963  0.13689  0.85489  Biso   1.000  C
  H37      1.0000 0.85548  0.38068  0.82272  Biso   1.000  H
  H38      1.0000 0.06979  0.40490  0.56732  Biso   1.000  H
  C72      1.0000 0.09486  0.15262  0.54051  Biso   1.000  C
  N3       1.0000 0.88710  0.17855  0.88992  Biso   1.000  N
  C73      1.0000 0.80815  0.06397  0.88910  Biso   1.000  C
  N4       1.0000 0.11290  0.17855  0.61012  Biso   1.000  N
  C74      1.0000 0.12365  0.08268  0.50138  Biso   1.000  C
  C75      1.0000 0.90509  0.15262  0.95947  Biso   1.000  C
  Cl5      1.0000 0.74664  0.00931  0.84171  Biso   1.000  Cl
  C76      1.0000 0.82672  0.03804  0.96177  Biso   1.000  C
  C77      1.0000 0.16036  0.13689  0.64508  Biso   1.000  C
  Cl6      1.0000 0.09927  0.05548  0.40944  Biso   1.000  Cl
  C78      1.0000 0.17327  0.03804  0.53821  Biso   1.000  C
  O7       1.0000 0.95360  0.19536  0.99778  Biso   1.000  O
  C79      1.0000 0.87634  0.08268  0.99860  Biso   1.000  C
  H39      1.0000 0.80618  0.99096  0.98612  Biso   1.000  H
  O8       1.0000 0.18022  0.16129  0.71705  Biso   1.000  O
  C80      1.0000 0.19185  0.06397  0.61088  Biso   1.000  C
  H40      1.0000 0.19378  0.99096  0.51391  Biso   1.000  H
  C81      1.0000 0.98488  0.27297  0.96489  Biso   1.000  C
  Cl7      1.0000 0.90073  0.05548  0.09059  Biso   1.000  Cl
  C82      1.0000 0.15694  0.24912  0.75371  Biso   1.000  C
  Cl8      1.0000 0.25331  0.00931  0.65827  Biso   1.000  Cl
  C83      1.0000 0.96569  0.38231  0.93501  Biso   1.000  C
  C84      1.0000 0.03746  0.23692  0.96976  Biso   1.000  C
  C85      1.0000 0.15459  0.21966  0.82419  Biso   1.000  C
  C86      1.0000 0.14098  0.36116  0.72410  Biso   1.000  C
  C87      1.0000 0.99980  0.45839  0.90847  Biso   1.000  C
  H41      1.0000 0.93021  0.40490  0.93271  Biso   1.000  H
  H42      1.0000 0.04979  0.16274  0.99017  Biso   1.000  H
  C88      1.0000 0.07138  0.31327  0.94371  Biso   1.000  C
  C89      1.0000 0.13494  0.30406  0.86529  Biso   1.000  C
  H43      1.0000 0.16609  0.14430  0.84368  Biso   1.000  H
  H44      1.0000 0.14448  0.38068  0.67732  Biso   1.000  H
  C90      1.0000 0.11977  0.44420  0.76482  Biso   1.000  C
  H45      1.0000 0.98710  0.53185  0.88729  Biso   1.000  H
  C91      1.0000 0.05296  0.42487  0.91350  Biso   1.000  C
  C92      1.0000 0.13062  0.28978  0.94459  Biso   1.000  C
  C93      1.0000 0.11665  0.41610  0.83541  Biso   1.000  C
  H46      1.0000 0.10757  0.51875  0.74468  Biso   1.000  H
  C94      1.0000 0.09664  0.49661  0.88871  Biso   1.000  C
  H47      1.0000 0.14350  0.21117  0.96571  Biso   1.000  H
  C95      1.0000 0.16183  0.39604  0.98607  Biso   1.000  C
  H48      1.0000 0.08379  0.57513  0.86759  Biso   1.000  H
  C96      1.0000 0.14337  0.50764  0.95542  Biso   1.000  C
  C97      1.0000 0.20392  0.39080  0.04681  Biso   1.000  C
  C98      1.0000 0.16840  0.61173  0.98590  Biso   1.000  C
  H49      1.0000 0.21659  0.31662  0.06689  Biso   1.000  H
  C99      1.0000 0.22750  0.49779  0.07800  Biso   1.000  C
  H50      1.0000 0.15697  0.68609  0.96478  Biso   1.000  H
  C100     1.0000 0.21027  0.60685  0.04741  Biso   1.000  C
  H51      1.0000 0.25527  0.49480  0.11998  Biso   1.000  H
  H52      1.0000 0.22677  0.67778  0.06810  Biso   1.000  H
  C101     1.0000 0.67327  0.53800  0.53821  Biso   1.000  C
  C102     1.0000 0.62365  0.58263  0.50138  Biso   1.000  C
  C103     1.0000 0.69185  0.56402  0.61088  Biso   1.000  C
  H53      1.0000 0.69378  0.49101  0.51391  Biso   1.000  H
  C104     1.0000 0.59486  0.65257  0.54051  Biso   1.000  C
  Cl9      1.0000 0.59927  0.55553  0.40944  Biso   1.000  Cl
  C105     1.0000 0.66036  0.63685  0.64508  Biso   1.000  C
  Cl10     1.0000 0.75331  0.50935  0.65827  Biso   1.000  Cl
  O9       1.0000 0.54641  0.69540  0.50225  Biso   1.000  O
  N5       1.0000 0.61290  0.67859  0.61012  Biso   1.000  N
  O10      1.0000 0.68022  0.66125  0.71705  Biso   1.000  O
  C106     1.0000 0.51512  0.77293  0.53514  Biso   1.000  C
  C107     1.0000 0.65694  0.74907  0.75371  Biso   1.000  C
  C108     1.0000 0.46253  0.73688  0.53022  Biso   1.000  C
  C109     1.0000 0.53428  0.88226  0.56502  Biso   1.000  C
  C110     1.0000 0.65459  0.71971  0.82419  Biso   1.000  C
  C111     1.0000 0.64098  0.86112  0.72410  Biso   1.000  C
  C112     1.0000 0.42861  0.81323  0.55627  Biso   1.000  C
  H54      1.0000 0.45020  0.66269  0.50981  Biso   1.000  H
  C113     1.0000 0.50016  0.95834  0.59151  Biso   1.000  C
  H55      1.0000 0.56979  0.90485  0.56732  Biso   1.000  H
  C114     1.0000 0.63494  0.80410  0.86529  Biso   1.000  C
  H56      1.0000 0.66609  0.64426  0.84368  Biso   1.000  H
  H57      1.0000 0.64448  0.88064  0.67732  Biso   1.000  H
  C115     1.0000 0.61977  0.94416  0.76482  Biso   1.000  C
  C116     1.0000 0.36937  0.78974  0.55539  Biso   1.000  C
  C117     1.0000 0.44704  0.92482  0.58653  Biso   1.000  C
  H58      1.0000 0.51289  0.03190  0.61269  Biso   1.000  H
  C118     1.0000 0.63062  0.78974  0.94459  Biso   1.000  C
  C119     1.0000 0.61665  0.91606  0.83541  Biso   1.000  C
  H59      1.0000 0.60757  0.01879  0.74468  Biso   1.000  H
  C120     1.0000 0.33813  0.89609  0.51397  Biso   1.000  C
  H60      1.0000 0.35650  0.71112  0.53432  Biso   1.000  H
  C121     1.0000 0.36505  0.80410  0.63469  Biso   1.000  C
  C122     1.0000 0.40332  0.99657  0.61132  Biso   1.000  C
  C123     1.0000 0.57138  0.81323  0.94371  Biso   1.000  C
  H61      1.0000 0.64350  0.71112  0.96571  Biso   1.000  H
  C124     1.0000 0.66183  0.89609  0.98607  Biso   1.000  C
  C125     1.0000 0.59664  0.99657  0.88871  Biso   1.000  C
  C126     1.0000 0.29608  0.89076  0.45322  Biso   1.000  C
  C127     1.0000 0.35663  0.00768  0.54461  Biso   1.000  C
  C128     1.0000 0.34540  0.71971  0.67578  Biso   1.000  C
  C129     1.0000 0.38334  0.91606  0.66457  Biso   1.000  C
  H62      1.0000 0.41620  0.07518  0.63239  Biso   1.000  H
  C130     1.0000 0.53746  0.73688  0.96976  Biso   1.000  C
  C131     1.0000 0.55296  0.92482  0.91350  Biso   1.000  C
  C132     1.0000 0.64337  0.00768  0.95542  Biso   1.000  C
  C133     1.0000 0.70392  0.89076  0.04681  Biso   1.000  C
  H63      1.0000 0.58379  0.07518  0.86759  Biso   1.000  H
  H64      1.0000 0.28341  0.81657  0.43308  Biso   1.000  H
  C134     1.0000 0.27249  0.99774  0.42197  Biso   1.000  C
  C135     1.0000 0.33159  0.11186  0.51408  Biso   1.000  C
  H65      1.0000 0.33390  0.64426  0.65630  Biso   1.000  H
  C136     1.0000 0.34306  0.74907  0.74632  Biso   1.000  C
  C137     1.0000 0.38023  0.94416  0.73521  Biso   1.000  C
  C138     1.0000 0.48488  0.77293  0.96489  Biso   1.000  C
  H66      1.0000 0.54979  0.66269  0.99017  Biso   1.000  H
  C139     1.0000 0.49980  0.95834  0.90847  Biso   1.000  C
  C140     1.0000 0.66840  0.11186  0.98590  Biso   1.000  C
  H67      1.0000 0.71659  0.81657  0.06689  Biso   1.000  H
  C141     1.0000 0.72750  0.99774  0.07800  Biso   1.000  C
  H68      1.0000 0.24469  0.99476  0.38000  Biso   1.000  H
  C142     1.0000 0.28969  0.10698  0.45262  Biso   1.000  C
  H69      1.0000 0.34298  0.18605  0.53520  Biso   1.000  H
  O11      1.0000 0.31973  0.66125  0.78293  Biso   1.000  O
  C143     1.0000 0.35901  0.86112  0.77587  Biso   1.000  C
  H70      1.0000 0.39238  0.01879  0.75530  Biso   1.000  H
  O12      1.0000 0.45360  0.69540  0.99778  Biso   1.000  O
  C144     1.0000 0.46569  0.88226  0.93501  Biso   1.000  C
  H71      1.0000 0.48710  0.03190  0.88729  Biso   1.000  H
  H72      1.0000 0.65697  0.18605  0.96478  Biso   1.000  H
  C145     1.0000 0.71027  0.10698  0.04741  Biso   1.000  C
  H73      1.0000 0.75527  0.99476  0.11998  Biso   1.000  H
  H74      1.0000 0.27318  0.17783  0.43188  Biso   1.000  H
  C146     1.0000 0.33963  0.63685  0.85489  Biso   1.000  C
  H75      1.0000 0.35548  0.88064  0.82272  Biso   1.000  H
  C147     1.0000 0.40509  0.65257  0.95947  Biso   1.000  C
  H76      1.0000 0.43021  0.90485  0.93271  Biso   1.000  H
  H77      1.0000 0.72677  0.17783  0.06810  Biso   1.000  H
  N6       1.0000 0.38710  0.67859  0.88992  Biso   1.000  N
  C148     1.0000 0.30815  0.56402  0.88910  Biso   1.000  C
  C149     1.0000 0.37634  0.58263  0.99860  Biso   1.000  C
  Cl11     1.0000 0.24664  0.50935  0.84171  Biso   1.000  Cl
  C150     1.0000 0.32672  0.53800  0.96177  Biso   1.000  C
  Cl12     1.0000 0.40073  0.55553  0.09059  Biso   1.000  Cl
  H78      1.0000 0.30618  0.49101  0.98612  Biso   1.000  H
  C151     1.0000 0.63060  0.21017  0.44458  Biso   1.000  C
  C152     1.0000 0.57138  0.18668  0.44375  Biso   1.000  C
  H79      1.0000 0.64349  0.28879  0.46570  Biso   1.000  H
  C153     1.0000 0.63497  0.19590  0.36528  Biso   1.000  C
  C154     1.0000 0.66186  0.10391  0.48606  Biso   1.000  C
  C155     1.0000 0.53746  0.26312  0.46980  Biso   1.000  C
  C156     1.0000 0.55298  0.07509  0.41349  Biso   1.000  C
  C157     1.0000 0.61664  0.08385  0.33540  Biso   1.000  C
  C158     1.0000 0.65458  0.28029  0.32418  Biso   1.000  C
  C159     1.0000 0.64336  0.99232  0.45541  Biso   1.000  C
  C160     1.0000 0.70391  0.10915  0.54680  Biso   1.000  C
  C161     1.0000 0.48490  0.22698  0.46488  Biso   1.000  C
  H80      1.0000 0.54979  0.33731  0.49022  Biso   1.000  H
  C162     1.0000 0.49982  0.04157  0.40846  Biso   1.000  C
  C163     1.0000 0.59667  0.00343  0.38870  Biso   1.000  C
  C164     1.0000 0.61976  0.05584  0.26481  Biso   1.000  C
  H81      1.0000 0.66609  0.35565  0.34372  Biso   1.000  H
  C165     1.0000 0.65693  0.25093  0.25370  Biso   1.000  C
  C166     1.0000 0.66843  0.88823  0.48589  Biso   1.000  C
  H82      1.0000 0.71657  0.18343  0.56688  Biso   1.000  H
  C167     1.0000 0.72753  0.00217  0.57799  Biso   1.000  C
  O13      1.0000 0.45358  0.30460  0.49777  Biso   1.000  O
  C168     1.0000 0.46571  0.11774  0.43500  Biso   1.000  C
  H83      1.0000 0.48709  0.96810  0.38728  Biso   1.000  H
  H84      1.0000 0.58378  0.92482  0.36758  Biso   1.000  H
  C169     1.0000 0.64101  0.13879  0.22409  Biso   1.000  C
  H85      1.0000 0.60760  0.98121  0.24472  Biso   1.000  H
  O14      1.0000 0.68025  0.33866  0.21703  Biso   1.000  O
  C170     1.0000 0.71030  0.89311  0.54740  Biso   1.000  C
  H86      1.0000 0.65701  0.81395  0.46482  Biso   1.000  H
  H87      1.0000 0.75530  0.00524  0.62002  Biso   1.000  H
  C171     1.0000 0.40513  0.34743  0.45952  Biso   1.000  C
  H88      1.0000 0.43019  0.09506  0.43270  Biso   1.000  H
  H89      1.0000 0.64451  0.11927  0.17730  Biso   1.000  H
  C172     1.0000 0.66034  0.36306  0.14507  Biso   1.000  C
  H90      1.0000 0.72680  0.82217  0.56809  Biso   1.000  H
  N7       1.0000 0.38708  0.32141  0.38991  Biso   1.000  N
  C173     1.0000 0.37633  0.41728  0.49859  Biso   1.000  C
  N8       1.0000 0.61289  0.32141  0.11010  Biso   1.000  N
  C174     1.0000 0.69188  0.43598  0.11093  Biso   1.000  C
  C175     1.0000 0.33966  0.36306  0.35488  Biso   1.000  C
  C176     1.0000 0.32672  0.46200  0.46181  Biso   1.000  C
  Cl13     1.0000 0.40072  0.44447  0.59058  Biso   1.000  Cl
  C177     1.0000 0.59489  0.34743  0.04050  Biso   1.000  C
  C178     1.0000 0.67330  0.46200  0.03820  Biso   1.000  C
  Cl14     1.0000 0.75335  0.49065  0.15832  Biso   1.000  Cl
  O15      1.0000 0.31976  0.33866  0.28298  Biso   1.000  O
  C179     1.0000 0.30813  0.43598  0.38909  Biso   1.000  C
  H91      1.0000 0.30621  0.50899  0.48611  Biso   1.000  H
  O16      1.0000 0.54639  0.30460  0.00224  Biso   1.000  O
  C180     1.0000 0.62365  0.41728  0.00142  Biso   1.000  C
  H92      1.0000 0.69381  0.50899  0.01390  Biso   1.000  H
  C181     1.0000 0.34309  0.25093  0.24631  Biso   1.000  C
  Cl15     1.0000 0.24667  0.49065  0.34170  Biso   1.000  Cl
  C182     1.0000 0.51511  0.22698  0.03513  Biso   1.000  C
  Cl16     1.0000 0.59926  0.44447  0.90943  Biso   1.000  Cl
  C183     1.0000 0.34539  0.28029  0.17577  Biso   1.000  C
  C184     1.0000 0.35901  0.13879  0.27592  Biso   1.000  C
  C185     1.0000 0.46252  0.26312  0.03021  Biso   1.000  C
  C186     1.0000 0.53430  0.11774  0.06501  Biso   1.000  C
  C187     1.0000 0.36504  0.19590  0.13468  Biso   1.000  C
  H93      1.0000 0.33389  0.35565  0.15629  Biso   1.000  H
  H94      1.0000 0.35551  0.11927  0.32271  Biso   1.000  H
  C188     1.0000 0.38026  0.05584  0.23520  Biso   1.000  C
  C189     1.0000 0.42860  0.18668  0.05626  Biso   1.000  C
  H95      1.0000 0.45019  0.33731  0.00980  Biso   1.000  H
  C190     1.0000 0.50019  0.04157  0.09155  Biso   1.000  C
  H96      1.0000 0.56982  0.09506  0.06731  Biso   1.000  H
  C191     1.0000 0.36941  0.21017  0.05544  Biso   1.000  C
  C192     1.0000 0.38332  0.08385  0.16455  Biso   1.000  C
  H97      1.0000 0.39241  0.98121  0.25529  Biso   1.000  H
  C193     1.0000 0.44703  0.07509  0.08652  Biso   1.000  C
  H98      1.0000 0.51288  0.96810  0.11268  Biso   1.000  H
  H99      1.0000 0.35649  0.28879  0.03431  Biso   1.000  H
  C194     1.0000 0.33816  0.10391  0.01395  Biso   1.000  C
  C195     1.0000 0.40335  0.00343  0.11131  Biso   1.000  C
  C196     1.0000 0.35661  0.99232  0.04460  Biso   1.000  C
  C197     1.0000 0.29607  0.10915  0.95321  Biso   1.000  C
  H100     1.0000 0.41618  0.92482  0.13238  Biso   1.000  H
  C198     1.0000 0.33158  0.88823  0.01412  Biso   1.000  C
  H101     1.0000 0.28340  0.18343  0.93313  Biso   1.000  H
  C199     1.0000 0.27249  0.00217  0.92202  Biso   1.000  C
  C200     1.0000 0.28972  0.89311  0.95261  Biso   1.000  C
  H102     1.0000 0.34300  0.81395  0.03519  Biso   1.000  H
  H103     1.0000 0.24471  0.00524  0.87999  Biso   1.000  H
  H104     1.0000 0.27322  0.82217  0.93192  Biso   1.000  H
  C201     1.0000 0.82672  0.96196  0.46181  Biso   1.000  C
  C202     1.0000 0.80813  0.93594  0.38909  Biso   1.000  C
  C203     1.0000 0.87633  0.91723  0.49859  Biso   1.000  C
  H105     1.0000 0.80621  0.00904  0.48611  Biso   1.000  H
  C204     1.0000 0.83966  0.86302  0.35488  Biso   1.000  C
  Cl17     1.0000 0.74667  0.99060  0.34170  Biso   1.000  Cl
  C205     1.0000 0.90513  0.84738  0.45952  Biso   1.000  C
  Cl18     1.0000 0.90072  0.94443  0.59058  Biso   1.000  Cl
  O17      1.0000 0.81976  0.83862  0.28298  Biso   1.000  O
  N9       1.0000 0.88708  0.82136  0.38991  Biso   1.000  N
  O18      1.0000 0.95358  0.80455  0.49777  Biso   1.000  O
  C206     1.0000 0.84309  0.75088  0.24631  Biso   1.000  C
  C207     1.0000 0.98490  0.72694  0.46488  Biso   1.000  C
  C208     1.0000 0.84539  0.78025  0.17577  Biso   1.000  C
  C209     1.0000 0.85901  0.63875  0.27592  Biso   1.000  C
  C210     1.0000 0.96571  0.61769  0.43500  Biso   1.000  C
  C211     1.0000 0.03746  0.76308  0.46980  Biso   1.000  C
  C212     1.0000 0.86504  0.69585  0.13468  Biso   1.000  C
  H106     1.0000 0.83389  0.85570  0.15629  Biso   1.000  H
  H107     1.0000 0.85551  0.61923  0.32271  Biso   1.000  H
  C213     1.0000 0.88026  0.55580  0.23520  Biso   1.000  C
  C214     1.0000 0.99982  0.54161  0.40846  Biso   1.000  C
  H108     1.0000 0.93019  0.59510  0.43270  Biso   1.000  H
  H109     1.0000 0.04979  0.83726  0.49022  Biso   1.000  H
  C215     1.0000 0.07138  0.68664  0.44375  Biso   1.000  C
  C216     1.0000 0.86941  0.71013  0.05544  Biso   1.000  C
  C217     1.0000 0.88332  0.58390  0.16455  Biso   1.000  C
  H110     1.0000 0.89241  0.48116  0.25529  Biso   1.000  H
  H111     1.0000 0.98709  0.46806  0.38728  Biso   1.000  H
  C218     1.0000 0.05298  0.57504  0.41349  Biso   1.000  C
  C219     1.0000 0.13060  0.71013  0.44458  Biso   1.000  C
  H112     1.0000 0.85649  0.78874  0.03431  Biso   1.000  H
  C220     1.0000 0.92860  0.68664  0.05626  Biso   1.000  C
  C221     1.0000 0.83816  0.60387  0.01395  Biso   1.000  C
  C222     1.0000 0.90335  0.50339  0.11131  Biso   1.000  C
  C223     1.0000 0.09667  0.50339  0.38870  Biso   1.000  C
  H113     1.0000 0.14349  0.78874  0.46570  Biso   1.000  H
  C224     1.0000 0.13497  0.69585  0.36528  Biso   1.000  C
  C225     1.0000 0.16186  0.60387  0.48606  Biso   1.000  C
  C226     1.0000 0.94703  0.57504  0.08652  Biso   1.000  C
  C227     1.0000 0.96252  0.76308  0.03021  Biso   1.000  C
  C228     1.0000 0.85661  0.49227  0.04460  Biso   1.000  C
  C229     1.0000 0.79607  0.60920  0.95321  Biso   1.000  C
  H114     1.0000 0.91618  0.42478  0.13238  Biso   1.000  H
  C230     1.0000 0.11664  0.58390  0.33540  Biso   1.000  C
  H115     1.0000 0.08378  0.42478  0.36758  Biso   1.000  H
  C231     1.0000 0.14336  0.49227  0.45541  Biso   1.000  C
  C232     1.0000 0.15458  0.78025  0.32418  Biso   1.000  C
  C233     1.0000 0.20391  0.60920  0.54680  Biso   1.000  C
  C234     1.0000 0.00019  0.54161  0.09155  Biso   1.000  C
  H116     1.0000 0.95019  0.83726  0.00980  Biso   1.000  H
  C235     1.0000 0.01511  0.72694  0.03513  Biso   1.000  C
  C236     1.0000 0.83158  0.38818  0.01412  Biso   1.000  C
  H117     1.0000 0.78340  0.68338  0.93313  Biso   1.000  H
  C237     1.0000 0.77249  0.50221  0.92202  Biso   1.000  C
  C238     1.0000 0.11976  0.55580  0.26481  Biso   1.000  C
  C239     1.0000 0.16843  0.38818  0.48589  Biso   1.000  C
  H118     1.0000 0.16609  0.85570  0.34372  Biso   1.000  H
  C240     1.0000 0.15693  0.75088  0.25370  Biso   1.000  C
  H119     1.0000 0.21657  0.68338  0.56688  Biso   1.000  H
  C241     1.0000 0.22753  0.50221  0.57799  Biso   1.000  C
  H120     1.0000 0.01288  0.46806  0.11268  Biso   1.000  H
  C242     1.0000 0.03430  0.61769  0.06501  Biso   1.000  C
  O19      1.0000 0.04639  0.80455  0.00224  Biso   1.000  O
  H121     1.0000 0.84300  0.31391  0.03519  Biso   1.000  H
  C243     1.0000 0.78972  0.39306  0.95261  Biso   1.000  C
  H122     1.0000 0.74471  0.50520  0.87999  Biso   1.000  H
  C244     1.0000 0.14101  0.63875  0.22409  Biso   1.000  C
  H123     1.0000 0.10760  0.48116  0.24472  Biso   1.000  H
  C245     1.0000 0.21030  0.39306  0.54740  Biso   1.000  C
  H124     1.0000 0.15701  0.31391  0.46482  Biso   1.000  H
  O20      1.0000 0.18025  0.83862  0.21703  Biso   1.000  O
  H125     1.0000 0.25530  0.50520  0.62002  Biso   1.000  H
  H126     1.0000 0.06982  0.59510  0.06731  Biso   1.000  H
  C246     1.0000 0.09489  0.84738  0.04050  Biso   1.000  C
  H127     1.0000 0.77322  0.32222  0.93192  Biso   1.000  H
  H128     1.0000 0.14451  0.61923  0.17730  Biso   1.000  H
  H129     1.0000 0.22680  0.32222  0.56809  Biso   1.000  H
  C247     1.0000 0.16034  0.86302  0.14507  Biso   1.000  C
  N10      1.0000 0.11289  0.82136  0.11010  Biso   1.000  N
  C248     1.0000 0.12365  0.91723  0.00142  Biso   1.000  C
  C249     1.0000 0.19188  0.93594  0.11093  Biso   1.000  C
  Cl19     1.0000 0.09926  0.94443  0.90943  Biso   1.000  Cl
  C250     1.0000 0.17330  0.96196  0.03820  Biso   1.000  C
  Cl20     1.0000 0.25335  0.99060  0.15832  Biso   1.000  Cl
  H130     1.0000 0.19381  0.00904  0.01390  Biso   1.000  H
  C251     1.0000 0.82672  0.96196  0.46181  Biso   1.000  C
  C252     1.0000 0.80813  0.93594  0.38909  Biso   1.000  C
  C253     1.0000 0.87633  0.91723  0.49859  Biso   1.000  C
  H131     1.0000 0.80621  0.00904  0.48611  Biso   1.000  H
  C254     1.0000 0.83966  0.86302  0.35488  Biso   1.000  C
  Cl21     1.0000 0.74667  0.99060  0.34170  Biso   1.000  Cl
  C255     1.0000 0.90513  0.84738  0.45952  Biso   1.000  C
  Cl22     1.0000 0.90072  0.94443  0.59058  Biso   1.000  Cl
  O21      1.0000 0.81976  0.83862  0.28298  Biso   1.000  O
  N11      1.0000 0.88708  0.82136  0.38991  Biso   1.000  N
  O22      1.0000 0.95358  0.80455  0.49777  Biso   1.000  O
  C256     1.0000 0.84309  0.75088  0.24631  Biso   1.000  C
  C257     1.0000 0.98490  0.72694  0.46488  Biso   1.000  C
  C258     1.0000 0.84539  0.78025  0.17577  Biso   1.000  C
  C259     1.0000 0.85901  0.63875  0.27592  Biso   1.000  C
  C260     1.0000 0.96571  0.61769  0.43500  Biso   1.000  C
  C261     1.0000 0.03746  0.76308  0.46980  Biso   1.000  C
  C262     1.0000 0.86504  0.69585  0.13468  Biso   1.000  C
  H132     1.0000 0.83389  0.85570  0.15629  Biso   1.000  H
  H133     1.0000 0.85551  0.61923  0.32271  Biso   1.000  H
  C263     1.0000 0.88026  0.55580  0.23520  Biso   1.000  C
  C264     1.0000 0.99982  0.54161  0.40846  Biso   1.000  C
  H134     1.0000 0.93019  0.59510  0.43270  Biso   1.000  H
  H135     1.0000 0.04979  0.83726  0.49022  Biso   1.000  H
  C265     1.0000 0.07138  0.68664  0.44375  Biso   1.000  C
  C266     1.0000 0.86941  0.71013  0.05544  Biso   1.000  C
  C267     1.0000 0.88332  0.58390  0.16455  Biso   1.000  C
  H136     1.0000 0.89241  0.48116  0.25529  Biso   1.000  H
  H137     1.0000 0.98709  0.46806  0.38728  Biso   1.000  H
  C268     1.0000 0.05298  0.57504  0.41349  Biso   1.000  C
  C269     1.0000 0.13060  0.71013  0.44458  Biso   1.000  C
  H138     1.0000 0.85649  0.78874  0.03431  Biso   1.000  H
  C270     1.0000 0.92860  0.68664  0.05626  Biso   1.000  C
  C271     1.0000 0.83816  0.60387  0.01395  Biso   1.000  C
  C272     1.0000 0.90335  0.50339  0.11131  Biso   1.000  C
  C273     1.0000 0.09667  0.50339  0.38870  Biso   1.000  C
  H139     1.0000 0.14349  0.78874  0.46570  Biso   1.000  H
  C274     1.0000 0.13497  0.69585  0.36528  Biso   1.000  C
  C275     1.0000 0.16186  0.60387  0.48606  Biso   1.000  C
  C276     1.0000 0.94703  0.57504  0.08652  Biso   1.000  C
  C277     1.0000 0.96252  0.76308  0.03021  Biso   1.000  C
  C278     1.0000 0.85661  0.49227  0.04460  Biso   1.000  C
  C279     1.0000 0.79607  0.60920  0.95321  Biso   1.000  C
  H140     1.0000 0.91618  0.42478  0.13238  Biso   1.000  H
  C280     1.0000 0.11664  0.58390  0.33540  Biso   1.000  C
  H141     1.0000 0.08378  0.42478  0.36758  Biso   1.000  H
  C281     1.0000 0.14336  0.49227  0.45541  Biso   1.000  C
  C282     1.0000 0.15458  0.78025  0.32418  Biso   1.000  C
  C283     1.0000 0.20391  0.60920  0.54680  Biso   1.000  C
  C284     1.0000 0.00019  0.54161  0.09155  Biso   1.000  C
  H142     1.0000 0.95019  0.83726  0.00980  Biso   1.000  H
  C285     1.0000 0.01511  0.72694  0.03513  Biso   1.000  C
  C286     1.0000 0.83158  0.38818  0.01412  Biso   1.000  C
  H143     1.0000 0.78340  0.68338  0.93313  Biso   1.000  H
  C287     1.0000 0.77249  0.50221  0.92202  Biso   1.000  C
  C288     1.0000 0.11976  0.55580  0.26481  Biso   1.000  C
  C289     1.0000 0.16843  0.38818  0.48589  Biso   1.000  C
  H144     1.0000 0.16609  0.85570  0.34372  Biso   1.000  H
  C290     1.0000 0.15693  0.75088  0.25370  Biso   1.000  C
  H145     1.0000 0.21657  0.68338  0.56688  Biso   1.000  H
  C291     1.0000 0.22753  0.50221  0.57799  Biso   1.000  C
  H146     1.0000 0.01288  0.46806  0.11268  Biso   1.000  H
  C292     1.0000 0.03430  0.61769  0.06501  Biso   1.000  C
  O23      1.0000 0.04639  0.80455  0.00224  Biso   1.000  O
  H147     1.0000 0.84300  0.31391  0.03519  Biso   1.000  H
  C293     1.0000 0.78972  0.39306  0.95261  Biso   1.000  C
  H148     1.0000 0.74471  0.50520  0.87999  Biso   1.000  H
  C294     1.0000 0.14101  0.63875  0.22409  Biso   1.000  C
  H149     1.0000 0.10760  0.48116  0.24472  Biso   1.000  H
  C295     1.0000 0.21030  0.39306  0.54740  Biso   1.000  C
  H150     1.0000 0.15701  0.31391  0.46482  Biso   1.000  H
  O24      1.0000 0.18025  0.83862  0.21703  Biso   1.000  O
  H151     1.0000 0.25530  0.50520  0.62002  Biso   1.000  H
  H152     1.0000 0.06982  0.59510  0.06731  Biso   1.000  H
  C296     1.0000 0.09489  0.84738  0.04050  Biso   1.000  C
  H153     1.0000 0.77322  0.32222  0.93192  Biso   1.000  H
  H154     1.0000 0.14451  0.61923  0.17730  Biso   1.000  H
  H155     1.0000 0.22680  0.32222  0.56809  Biso   1.000  H
  C297     1.0000 0.16034  0.86302  0.14507  Biso   1.000  C
  N12      1.0000 0.11289  0.82136  0.11010  Biso   1.000  N
  C298     1.0000 0.12365  0.91723  0.00142  Biso   1.000  C
  C299     1.0000 0.19188  0.93594  0.11093  Biso   1.000  C
  Cl23     1.0000 0.09926  0.94443  0.90943  Biso   1.000  Cl
  C300     1.0000 0.17330  0.96196  0.03820  Biso   1.000  C
  Cl24     1.0000 0.25335  0.99060  0.15832  Biso   1.000  Cl
  H156     1.0000 0.19381  0.00904  0.01390  Biso   1.000  H
