data_image0
_cell_length_a       18.025
_cell_length_b       15.364
_cell_length_c       15.541
_cell_angle_alpha    103.83
_cell_angle_beta     113.06
_cell_angle_gamma    98.61

_symmetry_space_group_name_H-M    "P 1"
_symmetry_int_tables_number       1

loop_
  _symmetry_equiv_pos_as_xyz
  'x, y, z'

loop_
  _atom_site_label
  _atom_site_occupancy
  _atom_site_fract_x
  _atom_site_fract_y
  _atom_site_fract_z
  _atom_site_thermal_displace_type
  _atom_site_B_iso_or_equiv
  _atom_site_type_symbol
  C1       1.0000 0.64669  0.71157  0.34118  Biso   1.000  C
  C2       1.0000 0.71572  0.68181  0.31979  Biso   1.000  C
  C3       1.0000 0.67310  0.81730  0.38780  Biso   1.000  C
  H1       1.0000 0.63689  0.68236  0.38677  Biso   1.000  H
  O1       1.0000 0.57100  0.68521  0.25089  Biso   1.000  O
  O2       1.0000 0.69270  0.58167  0.28256  Biso   1.000  O
  H2       1.0000 0.72328  0.70749  0.27087  Biso   1.000  H
  C4       1.0000 0.79731  0.71683  0.41704  Biso   1.000  C
  C5       1.0000 0.75538  0.84757  0.48202  Biso   1.000  C
  H3       1.0000 0.68149  0.84551  0.34088  Biso   1.000  H
  O3       1.0000 0.61081  0.84881  0.41060  Biso   1.000  O
  C6       1.0000 0.69047  0.54012  0.18998  Biso   1.000  C
  H4       1.0000 0.79027  0.68768  0.46388  Biso   1.000  H
  O4       1.0000 0.81778  0.81639  0.45878  Biso   1.000  O
  C7       1.0000 0.87050  0.69592  0.40001  Biso   1.000  C
  O5       1.0000 0.74373  0.81141  0.55203  Biso   1.000  O
  H5       1.0000 0.77309  0.91582  0.50933  Biso   1.000  H
  C8       1.0000 0.60492  0.46869  0.12478  Biso   1.000  C
  O6       1.0000 0.75359  0.49573  0.19930  Biso   1.000  O
  H6       1.0000 0.69670  0.58787  0.15949  Biso   1.000  H
  H7       1.0000 0.92143  0.72448  0.46152  Biso   1.000  H
  H8       1.0000 0.86280  0.62910  0.38077  Biso   1.000  H
  O7       1.0000 0.87952  0.72779  0.32778  Biso   1.000  O
  C9       1.0000 0.76258  0.87699  0.64550  Biso   1.000  C
  C10      1.0000 0.59568  0.39529  0.17200  Biso   1.000  C
  H9       1.0000 0.60228  0.43883  0.06009  Biso   1.000  H
  O8       1.0000 0.54011  0.51422  0.11101  Biso   1.000  O
  C11      1.0000 0.75163  0.42361  0.24341  Biso   1.000  C
  C12      1.0000 0.68929  0.85220  0.66800  Biso   1.000  C
  H10      1.0000 0.76999  0.94028  0.64173  Biso   1.000  H
  C13      1.0000 0.84299  0.87053  0.72602  Biso   1.000  C
  C14      1.0000 0.66688  0.35046  0.18717  Biso   1.000  C
  H11      1.0000 0.59694  0.42423  0.23623  Biso   1.000  H
  O9       1.0000 0.51802  0.32479  0.10961  Biso   1.000  O
  H12      1.0000 0.76161  0.45158  0.31202  Biso   1.000  H
  C15      1.0000 0.82291  0.38312  0.24341  Biso   1.000  C
  C16      1.0000 0.71096  0.91239  0.77087  Biso   1.000  C
  H13      1.0000 0.67722  0.78644  0.66334  Biso   1.000  H
  O10      1.0000 0.61747  0.86919  0.59858  Biso   1.000  O
  H14      1.0000 0.83867  0.80481  0.72017  Biso   1.000  H
  C17      1.0000 0.92081  0.91089  0.71581  Biso   1.000  C
  O11      1.0000 0.85711  0.92072  0.82379  Biso   1.000  O
  O12      1.0000 0.66299  0.29060  0.24460  Biso   1.000  O
  H15      1.0000 0.66113  0.31369  0.12293  Biso   1.000  H
  H16      1.0000 0.87478  0.43253  0.27731  Biso   1.000  H
  H17      1.0000 0.82801  0.33868  0.27909  Biso   1.000  H
  O13      1.0000 0.80971  0.33840  0.14631  Biso   1.000  O
  C18      1.0000 0.78933  0.89700  0.84510  Biso   1.000  C
  H18      1.0000 0.72291  0.97793  0.77442  Biso   1.000  H
  O14      1.0000 0.64371  0.89262  0.79603  Biso   1.000  O
  H19      1.0000 0.97071  0.90899  0.76969  Biso   1.000  H
  H20      1.0000 0.91809  0.87402  0.65401  Biso   1.000  H
  O15      1.0000 0.92509  0.00413  0.71758  Biso   1.000  O
  C19      1.0000 0.65888  0.19662  0.20619  Biso   1.000  C
  O16      1.0000 0.77060  0.80252  0.83948  Biso   1.000  O
  H21      1.0000 0.80309  0.93650  0.91200  Biso   1.000  H
  C20      1.0000 0.58101  0.13499  0.19782  Biso   1.000  C
  H22      1.0000 0.65620  0.18488  0.14010  Biso   1.000  H
  O17      1.0000 0.73108  0.17461  0.26747  Biso   1.000  O
  C21      1.0000 0.78407  0.78138  0.92858  Biso   1.000  C
  C22      1.0000 0.58433  0.14891  0.29751  Biso   1.000  C
  H23      1.0000 0.57981  0.06999  0.17037  Biso   1.000  H
  O18      1.0000 0.50873  0.15152  0.13181  Biso   1.000  O
  C23      1.0000 0.74029  0.18202  0.36568  Biso   1.000  C
  C24      1.0000 0.70259  0.72223  0.91371  Biso   1.000  C
  C25      1.0000 0.85060  0.72848  0.94812  Biso   1.000  C
  H24      1.0000 0.80309  0.83921  0.98424  Biso   1.000  H
  O19      1.0000 0.51040  0.08690  0.28767  Biso   1.000  O
  H25      1.0000 0.58633  0.21359  0.32712  Biso   1.000  H
  C26      1.0000 0.66119  0.12608  0.36338  Biso   1.000  C
  H26      1.0000 0.74939  0.24770  0.40068  Biso   1.000  H
  C27      1.0000 0.81731  0.15379  0.41978  Biso   1.000  C
  C28      1.0000 0.71850  0.69099  0.00400  Biso   1.000  C
  H27      1.0000 0.68129  0.66743  0.85443  Biso   1.000  H
  O20      1.0000 0.64191  0.77479  0.90290  Biso   1.000  O
  O21      1.0000 0.85965  0.69672  0.03094  Biso   1.000  O
  H28      1.0000 0.83348  0.67459  0.88921  Biso   1.000  H
  C29      1.0000 0.93650  0.78801  0.97447  Biso   1.000  C
  H29      1.0000 0.65541  0.05941  0.33777  Biso   1.000  H
  O22      1.0000 0.66979  0.14889  0.46137  Biso   1.000  O
  O23      1.0000 0.80730  0.06167  0.37419  Biso   1.000  O
  C30      1.0000 0.78503  0.63944  0.01872  Biso   1.000  C
  O24      1.0000 0.64441  0.63282  0.99467  Biso   1.000  O
  H30      1.0000 0.73893  0.74650  0.06239  Biso   1.000  H
  H31      1.0000 0.97710  0.75186  0.98727  Biso   1.000  H
  H32      1.0000 0.93493  0.80968  0.92022  Biso   1.000  H
  O25      1.0000 0.95984  0.86599  0.06158  Biso   1.000  O
  C31      1.0000 0.67609  0.07939  0.50629  Biso   1.000  C
  O26      1.0000 0.75503  0.55821  0.93561  Biso   1.000  O
  H33      1.0000 0.79611  0.62138  0.07808  Biso   1.000  H
  H34      1.0000 0.67047  0.02151  0.45796  Biso   1.000  H
  C32      1.0000 0.60458  0.06308  0.53478  Biso   1.000  C
  O27      1.0000 0.75389  0.10252  0.58911  Biso   1.000  O
  C33      1.0000 0.75232  0.46998  0.95093  Biso   1.000  C
  H35      1.0000 0.60873  0.01339  0.56454  Biso   1.000  H
  C34      1.0000 0.61281  0.15112  0.60968  Biso   1.000  C
  O28      1.0000 0.52670  0.03550  0.44930  Biso   1.000  O
  C35      1.0000 0.76849  0.18598  0.66748  Biso   1.000  C
  C36      1.0000 0.66542  0.40599  0.88040  Biso   1.000  C
  C37      1.0000 0.81730  0.42952  0.92599  Biso   1.000  C
  H36      1.0000 0.76373  0.47672  0.01961  Biso   1.000  H
  H37      1.0000 0.60858  0.20130  0.58067  Biso   1.000  H
  C38      1.0000 0.69821  0.17723  0.69893  Biso   1.000  C
  O29      1.0000 0.54768  0.13546  0.63877  Biso   1.000  O
  H38      1.0000 0.77090  0.23951  0.64358  Biso   1.000  H
  C39      1.0000 0.85331  0.19869  0.75170  Biso   1.000  C
  C40      1.0000 0.66267  0.30930  0.88877  Biso   1.000  C
  H39      1.0000 0.65299  0.40341  0.81239  Biso   1.000  H
  O30      1.0000 0.60451  0.44020  0.90660  Biso   1.000  O
  O31      1.0000 0.80928  0.33588  0.92910  Biso   1.000  O
  H40      1.0000 0.81098  0.43111  0.86086  Biso   1.000  H
  C41      1.0000 0.90600  0.48202  0.00518  Biso   1.000  C
  H41      1.0000 0.70050  0.13026  0.73216  Biso   1.000  H
  O32      1.0000 0.70791  0.26607  0.76488  Biso   1.000  O
  H42      1.0000 0.89498  0.19928  0.72669  Biso   1.000  H
  H43      1.0000 0.86919  0.25862  0.80203  Biso   1.000  H
  O33      1.0000 0.85357  0.12811  0.79507  Biso   1.000  O
  C42      1.0000 0.72897  0.27408  0.86397  Biso   1.000  C
  H44      1.0000 0.67552  0.31314  0.95722  Biso   1.000  H
  O34      1.0000 0.58212  0.24618  0.82490  Biso   1.000  O
  H45      1.0000 0.94542  0.45619  0.98631  Biso   1.000  H
  H46      1.0000 0.91640  0.54681  0.00822  Biso   1.000  H
  O35      1.0000 0.92075  0.47812  0.09962  Biso   1.000  O
  H47      1.0000 0.72821  0.21249  0.87152  Biso   1.000  H
  C43      1.0000 0.35093  0.64710  0.21374  Biso   1.000  C
  C44      1.0000 0.32552  0.60854  0.10413  Biso   1.000  C
  H48      1.0000 0.35997  0.59797  0.24378  Biso   1.000  H
  C45      1.0000 0.28119  0.68511  0.22728  Biso   1.000  C
  O36      1.0000 0.42582  0.72222  0.25992  Biso   1.000  O
  C46      1.0000 0.24180  0.53312  0.05292  Biso   1.000  C
  H49      1.0000 0.31838  0.65919  0.07601  Biso   1.000  H
  O37      1.0000 0.38721  0.57092  0.08629  Biso   1.000  O
  C47      1.0000 0.19911  0.60589  0.17288  Biso   1.000  C
  H50      1.0000 0.27431  0.73650  0.20049  Biso   1.000  H
  O38      1.0000 0.30309  0.71714  0.33082  Biso   1.000  O
  O39      1.0000 0.25304  0.45814  0.09073  Biso   1.000  O
  O40      1.0000 0.17939  0.56947  0.07090  Biso   1.000  O
  H51      1.0000 0.22419  0.51073  0.98150  Biso   1.000  H
  H52      1.0000 0.20533  0.55633  0.20263  Biso   1.000  H
  C48      1.0000 0.12589  0.64098  0.17740  Biso   1.000  C
  C49      1.0000 0.30331  0.80988  0.37182  Biso   1.000  C
  C50      1.0000 0.23102  0.36757  0.02131  Biso   1.000  C
  H53      1.0000 0.07452  0.59100  0.13780  Biso   1.000  H
  H54      1.0000 0.13371  0.65982  0.24519  Biso   1.000  H
  O41      1.0000 0.11901  0.71678  0.14202  Biso   1.000  O
  H55      1.0000 0.29658  0.84172  0.32260  Biso   1.000  H
  C51      1.0000 0.38772  0.85813  0.46092  Biso   1.000  C
  O42      1.0000 0.23787  0.81307  0.39927  Biso   1.000  O
  C52      1.0000 0.30398  0.32662  0.05847  Biso   1.000  C
  C53      1.0000 0.15072  0.30840  0.01451  Biso   1.000  C
  H56      1.0000 0.22106  0.37272  0.95619  Biso   1.000  H
  H57      1.0000 0.38872  0.92279  0.48942  Biso   1.000  H
  C54      1.0000 0.39761  0.81021  0.53789  Biso   1.000  C
  O43      1.0000 0.45367  0.85886  0.43317  Biso   1.000  O
  C55      1.0000 0.24100  0.77110  0.47269  Biso   1.000  C
  C56      1.0000 0.27898  0.22680  0.99408  Biso   1.000  C
  H58      1.0000 0.31822  0.32920  0.12692  Biso   1.000  H
  O44      1.0000 0.37359  0.38060  0.05528  Biso   1.000  O
  O45      1.0000 0.13385  0.21207  0.95907  Biso   1.000  O
  H59      1.0000 0.15678  0.31380  0.08119  Biso   1.000  H
  C57      1.0000 0.07419  0.33659  0.95878  Biso   1.000  C
  H60      1.0000 0.39728  0.74548  0.51110  Biso   1.000  H
  C58      1.0000 0.32491  0.81219  0.56483  Biso   1.000  C
  O46      1.0000 0.47461  0.85818  0.62522  Biso   1.000  O
  H61      1.0000 0.23293  0.70399  0.44523  Biso   1.000  H
  C59      1.0000 0.16821  0.78611  0.49512  Biso   1.000  C
  C60      1.0000 0.20247  0.17287  0.99489  Biso   1.000  C
  O47      1.0000 0.34467  0.18372  0.02368  Biso   1.000  O
  H62      1.0000 0.26470  0.22578  0.92621  Biso   1.000  H
  H63      1.0000 0.02450  0.29281  0.94893  Biso   1.000  H
  H64      1.0000 0.07677  0.39784  0.99734  Biso   1.000  H
  O48      1.0000 0.06886  0.33837  0.86708  Biso   1.000  O
  H65      1.0000 0.32943  0.87642  0.59962  Biso   1.000  H
  O49      1.0000 0.33116  0.75686  0.62907  Biso   1.000  O
  H66      1.0000 0.11626  0.75877  0.43458  Biso   1.000  H
  H67      1.0000 0.16552  0.75452  0.54130  Biso   1.000  H
  O50      1.0000 0.17627  0.88252  0.53626  Biso   1.000  O
  O51      1.0000 0.22330  0.17692  0.09480  Biso   1.000  O
  H68      1.0000 0.18688  0.10790  0.95323  Biso   1.000  H
  C61      1.0000 0.33224  0.79794  0.72203  Biso   1.000  C
  C62      1.0000 0.20688  0.09180  0.11382  Biso   1.000  C
  H69      1.0000 0.33459  0.86386  0.73216  Biso   1.000  H
  C63      1.0000 0.40918  0.78942  0.80210  Biso   1.000  C
  O52      1.0000 0.26001  0.75269  0.72388  Biso   1.000  O
  C64      1.0000 0.28789  0.08731  0.19242  Biso   1.000  C
  H70      1.0000 0.18739  0.03899  0.05306  Biso   1.000  H
  C65      1.0000 0.14062  0.08999  0.15090  Biso   1.000  C
  C66      1.0000 0.40600  0.68824  0.79033  Biso   1.000  C
  H71      1.0000 0.40990  0.81842  0.86590  Biso   1.000  H
  O53      1.0000 0.48388  0.83712  0.80306  Biso   1.000  O
  C67      1.0000 0.24902  0.65473  0.71403  Biso   1.000  C
  C68      1.0000 0.27101  0.00208  0.22262  Biso   1.000  C
  H72      1.0000 0.30928  0.14339  0.25052  Biso   1.000  H
  O54      1.0000 0.34842  0.08413  0.15453  Biso   1.000  O
  H73      1.0000 0.15919  0.14628  0.20796  Biso   1.000  H
  C69      1.0000 0.05599  0.08670  0.07438  Biso   1.000  C
  O55      1.0000 0.12908  0.00997  0.18199  Biso   1.000  O
  C70      1.0000 0.32748  0.64136  0.79307  Biso   1.000  C
  H74      1.0000 0.40578  0.65737  0.72728  Biso   1.000  H
  O56      1.0000 0.47751  0.68178  0.87130  Biso   1.000  O
  H75      1.0000 0.23971  0.61899  0.64757  Biso   1.000  H
  C71      1.0000 0.17273  0.62593  0.72802  Biso   1.000  C
  C72      1.0000 0.20310  0.00510  0.25762  Biso   1.000  C
  H76      1.0000 0.25026  0.94659  0.16408  Biso   1.000  H
  O57      1.0000 0.34458  0.99467  0.29707  Biso   1.000  O
  H77      1.0000 0.06371  0.13773  0.04922  Biso   1.000  H
  H78      1.0000 0.02119  0.09887  0.10768  Biso   1.000  H
  O58      1.0000 0.02071  0.02263  0.01021  Biso   1.000  O
  O59      1.0000 0.99242  0.05674  0.08163  Biso   1.000  O
  O60      1.0000 0.02799  0.00111  0.98438  Biso   1.000  O
  O61      1.0000 0.31992  0.54352  0.77102  Biso   1.000  O
  H79      1.0000 0.33078  0.66742  0.85887  Biso   1.000  H
  H80      1.0000 0.16330  0.56077  0.72358  Biso   1.000  H
  O62      1.0000 0.18698  0.67898  0.82097  Biso   1.000  O
  H81      1.0000 0.18309  0.66182  0.79411  Biso   1.000  H
  O63      1.0000 0.10028  0.63752  0.66008  Biso   1.000  O
  O64      1.0000 0.23341  0.08271  0.34332  Biso   1.000  O
  H82      1.0000 0.19062  0.94840  0.27361  Biso   1.000  H
  C73      1.0000 0.31290  0.50220  0.84073  Biso   1.000  C
  C74      1.0000 0.23422  0.06709  0.43132  Biso   1.000  C
  C75      1.0000 0.38159  0.45360  0.86997  Biso   1.000  C
  O65      1.0000 0.23386  0.43580  0.79936  Biso   1.000  O
  H83      1.0000 0.31970  0.55058  0.89928  Biso   1.000  H
  C76      1.0000 0.32030  0.11858  0.51643  Biso   1.000  C
  H84      1.0000 0.22330  0.00032  0.42207  Biso   1.000  H
  C77      1.0000 0.16803  0.10491  0.45560  Biso   1.000  C
  C78      1.0000 0.37248  0.38028  0.77938  Biso   1.000  C
  H85      1.0000 0.37532  0.42262  0.91600  Biso   1.000  H
  O66      1.0000 0.46252  0.51969  0.91889  Biso   1.000  O
  C79      1.0000 0.21718  0.36047  0.71189  Biso   1.000  C
  C80      1.0000 0.32109  0.11009  0.60938  Biso   1.000  C
  H86      1.0000 0.33310  0.18452  0.52168  Biso   1.000  H
  O67      1.0000 0.37999  0.07759  0.49512  Biso   1.000  O
  H87      1.0000 0.17319  0.16863  0.45323  Biso   1.000  H
  C81      1.0000 0.07990  0.04519  0.38329  Biso   1.000  C
  O68      1.0000 0.17548  0.10497  0.54959  Biso   1.000  O
  C82      1.0000 0.28722  0.31118  0.73372  Biso   1.000  C
  H88      1.0000 0.37728  0.40959  0.73157  Biso   1.000  H
  O69      1.0000 0.43589  0.33338  0.80728  Biso   1.000  O
  H89      1.0000 0.21309  0.38518  0.65808  Biso   1.000  H
  C83      1.0000 0.13293  0.29463  0.68361  Biso   1.000  C
  C84      1.0000 0.25460  0.15122  0.62988  Biso   1.000  C
  H90      1.0000 0.30720  0.04382  0.60198  Biso   1.000  H
  O70      1.0000 0.40091  0.15440  0.69213  Biso   1.000  O
  H91      1.0000 0.03959  0.07299  0.39831  Biso   1.000  H
  H92      1.0000 0.06990  0.04242  0.31661  Biso   1.000  H
  O71      1.0000 0.06822  0.95017  0.38921  Biso   1.000  O
  O72      1.0000 0.27560  0.24768  0.64298  Biso   1.000  O
  H93      1.0000 0.28477  0.27707  0.77879  Biso   1.000  H
  H94      1.0000 0.09191  0.33000  0.67792  Biso   1.000  H
  H95      1.0000 0.11450  0.24868  0.61930  Biso   1.000  H
  O73      1.0000 0.13509  0.24832  0.75170  Biso   1.000  O
  H96      1.0000 0.25441  0.14251  0.69028  Biso   1.000  H
  Ne1      1.0000 0.25808  0.41731  0.40518  Biso   1.000  Ne
  He1      1.0000 0.34408  0.44099  0.44182  Biso   1.000  He
  He2      1.0000 0.18585  0.41396  0.38948  Biso   1.000  He
  Ar1      1.0000 0.28972  0.42807  0.43294  Biso   1.000  Ar
  Ne2      1.0000 0.72292  0.49557  0.58617  Biso   1.000  Ne
  He3      1.0000 0.79932  0.50146  0.61706  Biso   1.000  He
  He4      1.0000 0.58102  0.47392  0.53029  Biso   1.000  He
  Ar2      1.0000 0.69466  0.48439  0.57847  Biso   1.000  Ar
