data_image0
_cell_length_a       18.129
_cell_length_b       15.411
_cell_length_c       15.585
_cell_angle_alpha    103.97
_cell_angle_beta     112.89
_cell_angle_gamma    98.79

_symmetry_space_group_name_H-M    "P 1"
_symmetry_int_tables_number       1

loop_
  _symmetry_equiv_pos_as_xyz
  'x, y, z'

loop_
  _atom_site_label
  _atom_site_occupancy
  _atom_site_fract_x
  _atom_site_fract_y
  _atom_site_fract_z
  _atom_site_thermal_displace_type
  _atom_site_B_iso_or_equiv
  _atom_site_type_symbol
  C1       1.0000 0.64210  0.70688  0.33783  Biso   1.000  C
  C2       1.0000 0.71099  0.67841  0.31768  Biso   1.000  C
  C3       1.0000 0.66782  0.81292  0.38609  Biso   1.000  C
  H1       1.0000 0.63241  0.67709  0.38277  Biso   1.000  H
  O1       1.0000 0.56701  0.67930  0.24802  Biso   1.000  O
  O2       1.0000 0.68813  0.57743  0.27931  Biso   1.000  O
  H2       1.0000 0.71830  0.70421  0.26898  Biso   1.000  H
  C4       1.0000 0.79149  0.71272  0.41199  Biso   1.000  C
  C5       1.0000 0.74980  0.84270  0.47767  Biso   1.000  C
  H3       1.0000 0.67617  0.84118  0.33938  Biso   1.000  H
  O3       1.0000 0.60533  0.84471  0.40742  Biso   1.000  O
  C6       1.0000 0.68448  0.53489  0.18663  Biso   1.000  C
  H4       1.0000 0.78362  0.68378  0.45841  Biso   1.000  H
  C7       1.0000 0.86478  0.69049  0.39797  Biso   1.000  C
  O4       1.0000 0.81141  0.81193  0.45561  Biso   1.000  O
  O5       1.0000 0.73784  0.80731  0.54933  Biso   1.000  O
  H5       1.0000 0.76779  0.91080  0.50468  Biso   1.000  H
  C8       1.0000 0.59976  0.46480  0.12117  Biso   1.000  C
  O6       1.0000 0.74810  0.49009  0.19519  Biso   1.000  O
  H6       1.0000 0.69110  0.58259  0.15637  Biso   1.000  H
  H7       1.0000 0.91493  0.71810  0.46003  Biso   1.000  H
  H8       1.0000 0.85617  0.62358  0.37709  Biso   1.000  H
  O7       1.0000 0.87439  0.72581  0.32588  Biso   1.000  O
  C9       1.0000 0.75841  0.87321  0.64349  Biso   1.000  C
  C10      1.0000 0.59022  0.39062  0.16781  Biso   1.000  C
  H9       1.0000 0.59746  0.43519  0.05667  Biso   1.000  H
  O8       1.0000 0.53572  0.50881  0.10752  Biso   1.000  O
  C11      1.0000 0.74589  0.41878  0.23902  Biso   1.000  C
  C12      1.0000 0.68431  0.84983  0.66622  Biso   1.000  C
  H10      1.0000 0.76723  0.93651  0.64031  Biso   1.000  H
  C13      1.0000 0.83789  0.86456  0.72237  Biso   1.000  C
  C14      1.0000 0.66191  0.34531  0.18338  Biso   1.000  C
  H11      1.0000 0.59130  0.41940  0.23194  Biso   1.000  H
  O9       1.0000 0.51341  0.32081  0.10641  Biso   1.000  O
  H12      1.0000 0.75532  0.44729  0.30713  Biso   1.000  H
  C15      1.0000 0.81758  0.37898  0.24109  Biso   1.000  C
  C16      1.0000 0.70702  0.90939  0.76953  Biso   1.000  C
  H13      1.0000 0.67162  0.78411  0.66120  Biso   1.000  H
  O10      1.0000 0.61311  0.86637  0.59582  Biso   1.000  O
  C17      1.0000 0.91611  0.90628  0.71359  Biso   1.000  C
  O11      1.0000 0.85168  0.91646  0.82067  Biso   1.000  O
  O12      1.0000 0.65772  0.28572  0.24101  Biso   1.000  O
  H14      1.0000 0.65618  0.30809  0.11933  Biso   1.000  H
  H15      1.0000 0.86911  0.42868  0.27459  Biso   1.000  H
  H16      1.0000 0.82260  0.33537  0.27732  Biso   1.000  H
  O13      1.0000 0.80391  0.33212  0.14169  Biso   1.000  O
  C18      1.0000 0.78401  0.89407  0.84258  Biso   1.000  C
  H17      1.0000 0.71987  0.97458  0.77307  Biso   1.000  H
  O14      1.0000 0.63931  0.89202  0.79469  Biso   1.000  O
  H18      1.0000 0.96533  0.90453  0.76761  Biso   1.000  H
  H19      1.0000 0.91412  0.86999  0.65212  Biso   1.000  H
  O15      1.0000 0.92038  0.99960  0.71617  Biso   1.000  O
  C19      1.0000 0.65453  0.19063  0.20323  Biso   1.000  C
  O16      1.0000 0.76468  0.79877  0.83616  Biso   1.000  O
  H20      1.0000 0.79820  0.93372  0.90937  Biso   1.000  H
  C20      1.0000 0.57562  0.12983  0.19312  Biso   1.000  C
  H21      1.0000 0.65238  0.17879  0.13741  Biso   1.000  H
  O17      1.0000 0.72522  0.17027  0.26352  Biso   1.000  O
  C21      1.0000 0.77877  0.77920  0.92597  Biso   1.000  C
  C22      1.0000 0.57989  0.14668  0.29717  Biso   1.000  C
  H22      1.0000 0.57323  0.06453  0.16582  Biso   1.000  H
  O18      1.0000 0.50279  0.14749  0.12862  Biso   1.000  O
  C23      1.0000 0.73329  0.17753  0.36122  Biso   1.000  C
  C24      1.0000 0.69731  0.71904  0.91262  Biso   1.000  C
  C25      1.0000 0.84453  0.72491  0.94413  Biso   1.000  C
  H23      1.0000 0.79841  0.83722  0.98132  Biso   1.000  H
  O19      1.0000 0.50568  0.08360  0.28499  Biso   1.000  O
  H24      1.0000 0.58231  0.21143  0.32691  Biso   1.000  H
  C26      1.0000 0.65553  0.12294  0.35923  Biso   1.000  C
  H25      1.0000 0.74648  0.24300  0.39982  Biso   1.000  H
  C27      1.0000 0.80811  0.13972  0.40550  Biso   1.000  C
  C28      1.0000 0.71460  0.68909  0.00301  Biso   1.000  C
  H26      1.0000 0.67540  0.66403  0.85343  Biso   1.000  H
  O20      1.0000 0.63809  0.77232  0.90302  Biso   1.000  O
  O21      1.0000 0.85481  0.69326  0.02759  Biso   1.000  O
  H27      1.0000 0.82710  0.67111  0.88502  Biso   1.000  H
  C29      1.0000 0.93088  0.78463  0.97099  Biso   1.000  C
  H28      1.0000 0.64879  0.05612  0.33252  Biso   1.000  H
  O22      1.0000 0.66452  0.14503  0.45671  Biso   1.000  O
  H29      1.0000 0.85411  0.17171  0.39753  Biso   1.000  H
  H30      1.0000 0.82503  0.15480  0.47583  Biso   1.000  H
  O23      1.0000 0.79470  0.04901  0.36683  Biso   1.000  O
  C30      1.0000 0.78191  0.63508  0.01659  Biso   1.000  C
  O24      1.0000 0.64069  0.63029  0.99320  Biso   1.000  O
  H31      1.0000 0.73519  0.74448  0.06153  Biso   1.000  H
  H32      1.0000 0.97071  0.74841  0.98456  Biso   1.000  H
  H33      1.0000 0.92960  0.80469  0.91630  Biso   1.000  H
  O25      1.0000 0.95509  0.86266  0.05496  Biso   1.000  O
  C31      1.0000 0.67249  0.07570  0.50202  Biso   1.000  C
  O26      1.0000 0.75040  0.55481  0.93261  Biso   1.000  O
  H34      1.0000 0.79359  0.61683  0.07563  Biso   1.000  H
  H35      1.0000 0.66742  0.01790  0.45391  Biso   1.000  H
  C32      1.0000 0.59991  0.05888  0.53088  Biso   1.000  C
  O27      1.0000 0.74919  0.09927  0.58548  Biso   1.000  O
  C33      1.0000 0.74799  0.46808  0.94737  Biso   1.000  C
  H36      1.0000 0.60401  0.00931  0.56039  Biso   1.000  H
  C34      1.0000 0.60891  0.14691  0.60689  Biso   1.000  C
  O28      1.0000 0.52219  0.03070  0.44631  Biso   1.000  O
  C35      1.0000 0.76431  0.18311  0.66430  Biso   1.000  C
  C36      1.0000 0.66108  0.40189  0.87697  Biso   1.000  C
  C37      1.0000 0.81268  0.42658  0.92273  Biso   1.000  C
  H37      1.0000 0.75942  0.47519  0.01593  Biso   1.000  H
  H38      1.0000 0.60479  0.19690  0.57811  Biso   1.000  H
  C38      1.0000 0.69300  0.17347  0.69448  Biso   1.000  C
  O29      1.0000 0.54418  0.13187  0.63640  Biso   1.000  O
  H39      1.0000 0.76683  0.23633  0.64061  Biso   1.000  H
  C39      1.0000 0.84842  0.19568  0.74680  Biso   1.000  C
  C40      1.0000 0.65907  0.30640  0.88598  Biso   1.000  C
  H40      1.0000 0.64842  0.39871  0.80901  Biso   1.000  H
  O30      1.0000 0.60092  0.43720  0.90391  Biso   1.000  O
  O31      1.0000 0.80479  0.33328  0.92398  Biso   1.000  O
  H41      1.0000 0.80631  0.42828  0.85779  Biso   1.000  H
  C41      1.0000 0.90109  0.47950  0.00028  Biso   1.000  C
  H42      1.0000 0.69534  0.12680  0.72783  Biso   1.000  H
  O32      1.0000 0.70332  0.26271  0.76112  Biso   1.000  O
  H43      1.0000 0.88938  0.19626  0.72127  Biso   1.000  H
  H44      1.0000 0.86449  0.25538  0.79742  Biso   1.000  H
  O33      1.0000 0.84859  0.12451  0.78982  Biso   1.000  O
  C42      1.0000 0.72459  0.27121  0.86133  Biso   1.000  C
  H45      1.0000 0.67200  0.31090  0.95438  Biso   1.000  H
  O34      1.0000 0.57921  0.24399  0.82347  Biso   1.000  O
  H46      1.0000 0.93979  0.45360  0.98058  Biso   1.000  H
  H47      1.0000 0.91118  0.54391  0.00279  Biso   1.000  H
  O35      1.0000 0.91718  0.47650  0.09540  Biso   1.000  O
  H48      1.0000 0.72401  0.20992  0.86922  Biso   1.000  H
  C43      1.0000 0.34679  0.64459  0.21017  Biso   1.000  C
  C44      1.0000 0.32242  0.60538  0.10221  Biso   1.000  C
  H49      1.0000 0.35547  0.59557  0.23998  Biso   1.000  H
  C45      1.0000 0.27758  0.68228  0.22493  Biso   1.000  C
  O36      1.0000 0.42159  0.71937  0.25799  Biso   1.000  O
  C46      1.0000 0.23821  0.53008  0.05018  Biso   1.000  C
  H50      1.0000 0.31551  0.65578  0.07431  Biso   1.000  H
  O37      1.0000 0.38351  0.56824  0.08354  Biso   1.000  O
  C47      1.0000 0.19513  0.60453  0.16840  Biso   1.000  C
  H51      1.0000 0.27179  0.73441  0.19939  Biso   1.000  H
  O38      1.0000 0.29791  0.71317  0.32617  Biso   1.000  O
  O39      1.0000 0.24882  0.45531  0.08818  Biso   1.000  O
  O40      1.0000 0.17692  0.56769  0.06723  Biso   1.000  O
  H52      1.0000 0.22143  0.50741  0.97912  Biso   1.000  H
  H53      1.0000 0.19948  0.55469  0.19747  Biso   1.000  H
  C48      1.0000 0.12340  0.64043  0.17172  Biso   1.000  C
  C49      1.0000 0.29879  0.80500  0.36868  Biso   1.000  C
  C50      1.0000 0.22647  0.36439  0.01889  Biso   1.000  C
  H54      1.0000 0.07211  0.59090  0.13076  Biso   1.000  H
  H55      1.0000 0.12998  0.65747  0.23887  Biso   1.000  H
  O41      1.0000 0.11703  0.71601  0.14014  Biso   1.000  O
  H56      1.0000 0.29301  0.83773  0.32071  Biso   1.000  H
  C51      1.0000 0.38307  0.85309  0.45937  Biso   1.000  C
  O42      1.0000 0.23440  0.80972  0.39731  Biso   1.000  O
  C52      1.0000 0.29959  0.32361  0.05660  Biso   1.000  C
  C53      1.0000 0.14713  0.30662  0.01240  Biso   1.000  C
  H57      1.0000 0.21681  0.36909  0.95388  Biso   1.000  H
  H58      1.0000 0.38453  0.91779  0.48793  Biso   1.000  H
  C54      1.0000 0.39229  0.80549  0.53612  Biso   1.000  C
  O43      1.0000 0.44919  0.85357  0.43059  Biso   1.000  O
  C55      1.0000 0.23627  0.76657  0.47000  Biso   1.000  C
  C56      1.0000 0.27392  0.22367  0.99210  Biso   1.000  C
  H59      1.0000 0.31419  0.32682  0.12508  Biso   1.000  H
  O44      1.0000 0.36882  0.37648  0.05158  Biso   1.000  O
  O45      1.0000 0.13079  0.20972  0.95912  Biso   1.000  O
  H60      1.0000 0.15393  0.31283  0.07933  Biso   1.000  H
  C57      1.0000 0.07031  0.33521  0.95831  Biso   1.000  C
  H61      1.0000 0.39121  0.74082  0.50852  Biso   1.000  H
  C58      1.0000 0.32068  0.80662  0.56187  Biso   1.000  C
  O46      1.0000 0.46953  0.85174  0.62113  Biso   1.000  O
  H62      1.0000 0.22811  0.69979  0.44151  Biso   1.000  H
  C59      1.0000 0.16401  0.77950  0.49022  Biso   1.000  C
  C60      1.0000 0.19700  0.17020  0.99351  Biso   1.000  C
  O47      1.0000 0.34030  0.17988  0.02140  Biso   1.000  O
  H63      1.0000 0.25937  0.22257  0.92429  Biso   1.000  H
  H64      1.0000 0.02089  0.29202  0.94952  Biso   1.000  H
  H65      1.0000 0.07380  0.39678  0.99661  Biso   1.000  H
  O48      1.0000 0.06503  0.33523  0.86481  Biso   1.000  O
  H66      1.0000 0.32559  0.87066  0.59737  Biso   1.000  H
  O49      1.0000 0.32658  0.75139  0.62570  Biso   1.000  O
  H67      1.0000 0.11319  0.75348  0.42882  Biso   1.000  H
  H68      1.0000 0.15973  0.74571  0.53390  Biso   1.000  H
  O50      1.0000 0.17180  0.87599  0.53457  Biso   1.000  O
  O51      1.0000 0.21921  0.17390  0.09328  Biso   1.000  O
  H69      1.0000 0.18058  0.10531  0.95130  Biso   1.000  H
  C61      1.0000 0.32732  0.79223  0.71780  Biso   1.000  C
  C62      1.0000 0.20230  0.08930  0.11320  Biso   1.000  C
  H70      1.0000 0.32926  0.85788  0.72747  Biso   1.000  H
  C63      1.0000 0.40539  0.78509  0.79964  Biso   1.000  C
  O52      1.0000 0.25648  0.74732  0.72267  Biso   1.000  O
  C64      1.0000 0.28382  0.08391  0.19032  Biso   1.000  C
  H71      1.0000 0.18201  0.03637  0.05247  Biso   1.000  H
  C65      1.0000 0.13658  0.08848  0.15039  Biso   1.000  C
  C66      1.0000 0.40241  0.68330  0.78820  Biso   1.000  C
  H72      1.0000 0.40638  0.81478  0.86332  Biso   1.000  H
  O53      1.0000 0.47811  0.83220  0.79890  Biso   1.000  O
  C67      1.0000 0.24639  0.65139  0.71359  Biso   1.000  C
  H73      1.0000 0.30629  0.13991  0.24847  Biso   1.000  H
  O54      1.0000 0.34289  0.07891  0.15150  Biso   1.000  O
  C68      1.0000 0.26710  0.99869  0.22028  Biso   1.000  C
  H74      1.0000 0.15490  0.14498  0.20699  Biso   1.000  H
  C69      1.0000 0.05180  0.08287  0.07357  Biso   1.000  C
  O55      1.0000 0.12572  0.00801  0.18168  Biso   1.000  O
  C70      1.0000 0.32371  0.63689  0.79078  Biso   1.000  C
  H75      1.0000 0.40193  0.65222  0.72510  Biso   1.000  H
  O56      1.0000 0.47402  0.67838  0.86767  Biso   1.000  O
  H76      1.0000 0.23699  0.61584  0.64732  Biso   1.000  H
  C71      1.0000 0.16860  0.62182  0.72702  Biso   1.000  C
  C72      1.0000 0.19842  0.00209  0.25540  Biso   1.000  C
  H77      1.0000 0.24628  0.94328  0.16190  Biso   1.000  H
  O57      1.0000 0.33928  0.99093  0.29400  Biso   1.000  O
  H78      1.0000 0.01429  0.08569  0.10412  Biso   1.000  H
  H79      1.0000 0.05628  0.13688  0.05262  Biso   1.000  H
  O58      1.0000 0.98740  0.04801  0.07298  Biso   1.000  O
  O59      1.0000 0.01928  0.00899  0.99661  Biso   1.000  O
  O60      1.0000 0.31610  0.53908  0.76872  Biso   1.000  O
  H80      1.0000 0.32748  0.66279  0.85683  Biso   1.000  H
  H81      1.0000 0.16071  0.55790  0.72628  Biso   1.000  H
  H82      1.0000 0.17672  0.66038  0.79093  Biso   1.000  H
  O61      1.0000 0.09823  0.62871  0.65493  Biso   1.000  O
  O62      1.0000 0.18201  0.67793  0.82303  Biso   1.000  O
  O63      1.0000 0.22939  0.07933  0.34211  Biso   1.000  O
  H83      1.0000 0.18542  0.94523  0.27060  Biso   1.000  H
  C73      1.0000 0.30870  0.49800  0.83794  Biso   1.000  C
  C74      1.0000 0.23087  0.06339  0.43007  Biso   1.000  C
  C75      1.0000 0.37901  0.44962  0.86790  Biso   1.000  C
  O64      1.0000 0.23081  0.43156  0.79727  Biso   1.000  O
  H84      1.0000 0.31529  0.54650  0.89623  Biso   1.000  H
  C76      1.0000 0.31601  0.11331  0.51339  Biso   1.000  C
  C77      1.0000 0.16499  0.09990  0.45347  Biso   1.000  C
  H85      1.0000 0.21981  0.99649  0.42019  Biso   1.000  H
  C78      1.0000 0.36952  0.37579  0.77779  Biso   1.000  C
  H86      1.0000 0.37370  0.41959  0.91483  Biso   1.000  H
  O65      1.0000 0.45840  0.51609  0.91453  Biso   1.000  O
  C79      1.0000 0.21431  0.35536  0.71138  Biso   1.000  C
  C80      1.0000 0.31638  0.10597  0.60807  Biso   1.000  C
  H87      1.0000 0.32890  0.17910  0.51863  Biso   1.000  H
  O66      1.0000 0.37630  0.07311  0.49287  Biso   1.000  O
  H88      1.0000 0.17043  0.16348  0.45162  Biso   1.000  H
  O67      1.0000 0.17318  0.10021  0.54910  Biso   1.000  O
  C81      1.0000 0.07717  0.04089  0.38166  Biso   1.000  C
  C82      1.0000 0.28389  0.30721  0.73197  Biso   1.000  C
  H89      1.0000 0.37430  0.40493  0.73012  Biso   1.000  H
  O68      1.0000 0.43269  0.32962  0.80517  Biso   1.000  O
  C83      1.0000 0.13011  0.29078  0.68260  Biso   1.000  C
  C84      1.0000 0.25141  0.14642  0.62703  Biso   1.000  C
  H90      1.0000 0.30201  0.03983  0.60083  Biso   1.000  H
  O69      1.0000 0.39767  0.14972  0.68968  Biso   1.000  O
  H91      1.0000 0.03761  0.06877  0.39738  Biso   1.000  H
  H92      1.0000 0.06709  0.03850  0.31518  Biso   1.000  H
  O70      1.0000 0.06529  0.94758  0.38668  Biso   1.000  O
  O71      1.0000 0.27276  0.24320  0.64157  Biso   1.000  O
  H93      1.0000 0.28160  0.27299  0.77683  Biso   1.000  H
  H94      1.0000 0.08968  0.32638  0.67588  Biso   1.000  H
  H95      1.0000 0.11197  0.24417  0.61877  Biso   1.000  H
  O72      1.0000 0.13140  0.24561  0.75152  Biso   1.000  O
  H96      1.0000 0.25140  0.13802  0.68732  Biso   1.000  H
  Ne1      1.0000 0.25747  0.41913  0.40835  Biso   1.000  Ne
  He1      1.0000 0.36425  0.43841  0.44574  Biso   1.000  He
  He2      1.0000 0.18371  0.41009  0.38621  Biso   1.000  He
  Ar1      1.0000 0.28703  0.42492  0.42852  Biso   1.000  Ar
  Ne2      1.0000 0.71803  0.49070  0.58244  Biso   1.000  Ne
  He3      1.0000 0.79190  0.49825  0.61256  Biso   1.000  He
  He4      1.0000 0.64214  0.48173  0.55412  Biso   1.000  He
  Ar2      1.0000 0.68509  0.48067  0.57217  Biso   1.000  Ar
