data_image0
_cell_length_a       17.97
_cell_length_b       15.393
_cell_length_c       15.514
_cell_angle_alpha    103.18
_cell_angle_beta     113.22
_cell_angle_gamma    98.91

_symmetry_space_group_name_H-M    "P 1"
_symmetry_int_tables_number       1

loop_
  _symmetry_equiv_pos_as_xyz
  'x, y, z'

loop_
  _atom_site_label
  _atom_site_occupancy
  _atom_site_fract_x
  _atom_site_fract_y
  _atom_site_fract_z
  _atom_site_thermal_displace_type
  _atom_site_B_iso_or_equiv
  _atom_site_type_symbol
  O1       1.0000 0.69344  0.58332  0.28323  Biso   1.000  O
  C1       1.0000 0.69149  0.54421  0.19008  Biso   1.000  C
  C2       1.0000 0.71699  0.68299  0.32060  Biso   1.000  C
  C3       1.0000 0.60717  0.47348  0.12408  Biso   1.000  C
  O2       1.0000 0.75570  0.50043  0.19829  Biso   1.000  O
  H1       1.0000 0.69760  0.59322  0.16063  Biso   1.000  H
  C4       1.0000 0.64619  0.71168  0.34028  Biso   1.000  C
  H2       1.0000 0.72570  0.70951  0.27243  Biso   1.000  H
  C5       1.0000 0.79777  0.71657  0.41878  Biso   1.000  C
  C6       1.0000 0.59682  0.39859  0.17062  Biso   1.000  C
  H3       1.0000 0.60489  0.44523  0.05941  Biso   1.000  H
  O3       1.0000 0.54072  0.51783  0.11121  Biso   1.000  O
  C7       1.0000 0.75442  0.42789  0.24210  Biso   1.000  C
  C8       1.0000 0.67289  0.81682  0.38608  Biso   1.000  C
  H4       1.0000 0.63609  0.68243  0.38593  Biso   1.000  H
  O4       1.0000 0.57058  0.68550  0.24949  Biso   1.000  O
  H5       1.0000 0.78931  0.68781  0.46562  Biso   1.000  H
  O5       1.0000 0.81819  0.81587  0.45889  Biso   1.000  O
  C9       1.0000 0.87192  0.69449  0.40362  Biso   1.000  C
  C10      1.0000 0.66869  0.35440  0.18579  Biso   1.000  C
  H6       1.0000 0.59727  0.42607  0.23447  Biso   1.000  H
  O6       1.0000 0.51960  0.32728  0.10706  Biso   1.000  O
  H7       1.0000 0.76529  0.45470  0.31098  Biso   1.000  H
  C11      1.0000 0.82561  0.38711  0.23988  Biso   1.000  C
  C12      1.0000 0.75537  0.84829  0.48027  Biso   1.000  C
  H8       1.0000 0.68114  0.84484  0.33873  Biso   1.000  H
  O7       1.0000 0.61089  0.84883  0.40872  Biso   1.000  O
  H9       1.0000 0.92280  0.72312  0.46540  Biso   1.000  H
  H10      1.0000 0.86379  0.62792  0.38571  Biso   1.000  H
  O8       1.0000 0.88190  0.72521  0.33118  Biso   1.000  O
  O9       1.0000 0.66443  0.29352  0.24180  Biso   1.000  O
  H11      1.0000 0.66269  0.31870  0.12127  Biso   1.000  H
  H12      1.0000 0.87808  0.43598  0.27361  Biso   1.000  H
  H13      1.0000 0.83100  0.34199  0.27509  Biso   1.000  H
  O10      1.0000 0.81149  0.34369  0.14176  Biso   1.000  O
  O11      1.0000 0.74252  0.81292  0.55078  Biso   1.000  O
  H14      1.0000 0.77328  0.91617  0.50609  Biso   1.000  H
  C13      1.0000 0.66430  0.20111  0.20517  Biso   1.000  C
  C14      1.0000 0.76190  0.87768  0.64460  Biso   1.000  C
  C15      1.0000 0.58478  0.13687  0.19459  Biso   1.000  C
  H15      1.0000 0.66369  0.19040  0.14021  Biso   1.000  H
  O12      1.0000 0.73661  0.18248  0.27006  Biso   1.000  O
  C16      1.0000 0.68820  0.85259  0.66628  Biso   1.000  C
  H16      1.0000 0.76938  0.94078  0.64053  Biso   1.000  H
  C17      1.0000 0.84333  0.87120  0.72532  Biso   1.000  C
  C18      1.0000 0.58619  0.14910  0.29352  Biso   1.000  C
  H17      1.0000 0.58468  0.07271  0.16781  Biso   1.000  H
  O13      1.0000 0.51209  0.15239  0.12719  Biso   1.000  O
  C19      1.0000 0.74362  0.19069  0.36610  Biso   1.000  C
  C20      1.0000 0.70970  0.91223  0.76913  Biso   1.000  C
  H18      1.0000 0.67618  0.78698  0.66191  Biso   1.000  H
  O14      1.0000 0.61571  0.86969  0.59688  Biso   1.000  O
  H19      1.0000 0.83959  0.80583  0.72022  Biso   1.000  H
  C21      1.0000 0.92059  0.91287  0.71489  Biso   1.000  C
  O15      1.0000 0.85597  0.92091  0.82158  Biso   1.000  O
  O16      1.0000 0.51359  0.08428  0.28190  Biso   1.000  O
  H20      1.0000 0.58551  0.21262  0.32171  Biso   1.000  H
  C22      1.0000 0.66517  0.12957  0.36248  Biso   1.000  C
  H21      1.0000 0.75061  0.25561  0.40006  Biso   1.000  H
  C23      1.0000 0.82211  0.16351  0.42108  Biso   1.000  C
  C24      1.0000 0.78798  0.89679  0.84408  Biso   1.000  C
  H22      1.0000 0.72138  0.97742  0.77231  Biso   1.000  H
  O17      1.0000 0.64152  0.89119  0.79251  Biso   1.000  O
  H23      1.0000 0.97093  0.91102  0.76883  Biso   1.000  H
  H24      1.0000 0.91789  0.87670  0.65318  Biso   1.000  H
  O18      1.0000 0.92480  0.00408  0.71622  Biso   1.000  O
  H25      1.0000 0.66258  0.06400  0.33843  Biso   1.000  H
  O19      1.0000 0.67009  0.15132  0.45889  Biso   1.000  O
  H26      1.0000 0.87029  0.20206  0.42137  Biso   1.000  H
  H27      1.0000 0.83200  0.17313  0.48922  Biso   1.000  H
  O20      1.0000 0.81240  0.06882  0.37483  Biso   1.000  O
  O21      1.0000 0.76902  0.80101  0.83668  Biso   1.000  O
  H28      1.0000 0.80188  0.93530  0.91096  Biso   1.000  H
  C25      1.0000 0.67760  0.08169  0.50432  Biso   1.000  C
  C26      1.0000 0.78171  0.77948  0.92517  Biso   1.000  C
  H29      1.0000 0.67268  0.02427  0.45667  Biso   1.000  H
  C27      1.0000 0.60520  0.06512  0.53251  Biso   1.000  C
  O22      1.0000 0.75511  0.10556  0.58866  Biso   1.000  O
  C28      1.0000 0.69921  0.71858  0.90993  Biso   1.000  C
  C29      1.0000 0.84957  0.72798  0.94648  Biso   1.000  C
  H30      1.0000 0.79998  0.83682  0.98022  Biso   1.000  H
  H31      1.0000 0.60887  0.01490  0.56188  Biso   1.000  H
  C30      1.0000 0.61272  0.15211  0.60783  Biso   1.000  C
  O23      1.0000 0.52679  0.03801  0.44631  Biso   1.000  O
  C31      1.0000 0.76927  0.18811  0.66628  Biso   1.000  C
  C32      1.0000 0.71411  0.68658  0.99790  Biso   1.000  C
  H32      1.0000 0.67881  0.66431  0.85103  Biso   1.000  H
  O24      1.0000 0.63703  0.76870  0.89654  Biso   1.000  O
  O25      1.0000 0.85728  0.69377  0.02839  Biso   1.000  O
  H33      1.0000 0.83300  0.67493  0.88773  Biso   1.000  H
  C33      1.0000 0.93490  0.78617  0.97289  Biso   1.000  C
  H34      1.0000 0.60842  0.20251  0.57882  Biso   1.000  H
  C34      1.0000 0.69842  0.17853  0.69743  Biso   1.000  C
  O26      1.0000 0.54639  0.13497  0.63498  Biso   1.000  O
  H35      1.0000 0.77152  0.24151  0.64209  Biso   1.000  H
  C35      1.0000 0.85491  0.20097  0.75100  Biso   1.000  C
  C36      1.0000 0.78221  0.63563  0.01492  Biso   1.000  C
  O27      1.0000 0.63929  0.62799  0.98843  Biso   1.000  O
  H36      1.0000 0.73403  0.74138  0.05613  Biso   1.000  H
  H37      1.0000 0.97569  0.75047  0.98747  Biso   1.000  H
  H38      1.0000 0.93400  0.80748  0.91829  Biso   1.000  H
  O28      1.0000 0.95676  0.86316  0.05746  Biso   1.000  O
  H39      1.0000 0.70089  0.13159  0.73117  Biso   1.000  H
  O29      1.0000 0.70802  0.26658  0.76261  Biso   1.000  O
  H40      1.0000 0.89689  0.20212  0.72643  Biso   1.000  H
  H41      1.0000 0.87068  0.26020  0.80139  Biso   1.000  H
  O30      1.0000 0.85387  0.12871  0.79376  Biso   1.000  O
  O31      1.0000 0.75301  0.55570  0.93153  Biso   1.000  O
  H42      1.0000 0.79258  0.61689  0.07396  Biso   1.000  H
  C37      1.0000 0.72724  0.27314  0.86213  Biso   1.000  C
  C38      1.0000 0.74961  0.46709  0.94707  Biso   1.000  C
  H43      1.0000 0.72628  0.21152  0.86960  Biso   1.000  H
  C39      1.0000 0.66019  0.30749  0.88603  Biso   1.000  C
  O32      1.0000 0.80778  0.33479  0.92791  Biso   1.000  O
  C40      1.0000 0.66313  0.40411  0.87663  Biso   1.000  C
  C41      1.0000 0.81697  0.42869  0.92746  Biso   1.000  C
  H44      1.0000 0.75950  0.47380  0.01536  Biso   1.000  H
  H45      1.0000 0.67189  0.31039  0.95410  Biso   1.000  H
  O33      1.0000 0.57970  0.24472  0.82003  Biso   1.000  O
  H46      1.0000 0.65104  0.40183  0.80864  Biso   1.000  H
  O34      1.0000 0.60179  0.43687  0.90157  Biso   1.000  O
  H47      1.0000 0.81277  0.43179  0.86339  Biso   1.000  H
  C42      1.0000 0.90513  0.47968  0.00752  Biso   1.000  C
  H48      1.0000 0.94519  0.45382  0.99028  Biso   1.000  H
  H49      1.0000 0.91660  0.54440  0.01107  Biso   1.000  H
  O35      1.0000 0.91621  0.47367  0.10127  Biso   1.000  O
  O36      1.0000 0.37532  0.38273  0.05690  Biso   1.000  O
  C43      1.0000 0.30422  0.32763  0.05668  Biso   1.000  C
  C44      1.0000 0.28119  0.22983  0.99053  Biso   1.000  C
  H50      1.0000 0.31691  0.32760  0.12423  Biso   1.000  H
  C45      1.0000 0.23021  0.36822  0.01798  Biso   1.000  C
  C46      1.0000 0.20212  0.17401  0.98861  Biso   1.000  C
  O37      1.0000 0.34687  0.18772  0.02087  Biso   1.000  O
  H51      1.0000 0.26816  0.23119  0.92327  Biso   1.000  H
  C47      1.0000 0.14921  0.30801  0.00769  Biso   1.000  C
  O38      1.0000 0.25161  0.45751  0.08953  Biso   1.000  O
  H52      1.0000 0.22187  0.37562  0.95398  Biso   1.000  H
  O39      1.0000 0.22177  0.17610  0.08768  Biso   1.000  O
  H53      1.0000 0.18713  0.10970  0.94673  Biso   1.000  H
  O40      1.0000 0.13422  0.21222  0.95161  Biso   1.000  O
  H54      1.0000 0.15401  0.31131  0.07362  Biso   1.000  H
  C48      1.0000 0.07228  0.33690  0.95139  Biso   1.000  C
  C49      1.0000 0.23982  0.53272  0.05290  Biso   1.000  C
  C50      1.0000 0.20728  0.09031  0.10669  Biso   1.000  C
  H55      1.0000 0.02208  0.29240  0.93977  Biso   1.000  H
  H56      1.0000 0.07448  0.39696  0.99068  Biso   1.000  H
  O41      1.0000 0.06790  0.34207  0.86097  Biso   1.000  O
  C51      1.0000 0.32221  0.60843  0.10211  Biso   1.000  C
  O42      1.0000 0.17689  0.56809  0.07118  Biso   1.000  O
  H57      1.0000 0.22162  0.51127  0.98128  Biso   1.000  H
  C52      1.0000 0.28910  0.08808  0.18690  Biso   1.000  C
  H58      1.0000 0.18989  0.03862  0.04632  Biso   1.000  H
  C53      1.0000 0.13807  0.08438  0.14058  Biso   1.000  C
  H59      1.0000 0.31410  0.65862  0.07310  Biso   1.000  H
  C54      1.0000 0.34941  0.64710  0.21272  Biso   1.000  C
  O43      1.0000 0.38461  0.57172  0.08442  Biso   1.000  O
  C55      1.0000 0.19801  0.60462  0.17439  Biso   1.000  C
  C56      1.0000 0.27401  0.00363  0.21879  Biso   1.000  C
  H60      1.0000 0.30930  0.14408  0.24387  Biso   1.000  H
  O44      1.0000 0.35021  0.08659  0.15087  Biso   1.000  O
  H61      1.0000 0.15359  0.14057  0.19600  Biso   1.000  H
  C57      1.0000 0.05348  0.07640  0.06097  Biso   1.000  C
  O45      1.0000 0.12971  0.00519  0.17402  Biso   1.000  O
  H62      1.0000 0.35942  0.59851  0.24358  Biso   1.000  H
  C58      1.0000 0.28011  0.68391  0.22611  Biso   1.000  C
  O46      1.0000 0.42379  0.72311  0.25808  Biso   1.000  O
  H63      1.0000 0.20599  0.55531  0.20480  Biso   1.000  H
  C59      1.0000 0.12482  0.63651  0.17943  Biso   1.000  C
  C60      1.0000 0.20380  0.00397  0.25208  Biso   1.000  C
  H64      1.0000 0.25459  0.94831  0.16122  Biso   1.000  H
  O47      1.0000 0.34793  0.99790  0.29433  Biso   1.000  O
  H65      1.0000 0.01472  0.07938  0.09012  Biso   1.000  H
  H66      1.0000 0.05810  0.12992  0.03847  Biso   1.000  H
  O48      1.0000 0.98992  0.05012  0.07362  Biso   1.000  O
  O49      1.0000 0.02351  0.00837  0.99060  Biso   1.000  O
  H67      1.0000 0.27196  0.73407  0.19718  Biso   1.000  H
  O50      1.0000 0.30317  0.71836  0.33029  Biso   1.000  O
  H68      1.0000 0.07398  0.58528  0.14176  Biso   1.000  H
  H69      1.0000 0.13388  0.65580  0.24757  Biso   1.000  H
  O51      1.0000 0.11382  0.71130  0.14117  Biso   1.000  O
  O52      1.0000 0.23209  0.08331  0.33614  Biso   1.000  O
  H70      1.0000 0.19276  0.94798  0.27006  Biso   1.000  H
  C61      1.0000 0.30180  0.81069  0.36729  Biso   1.000  C
  C62      1.0000 0.23328  0.06902  0.42418  Biso   1.000  C
  H71      1.0000 0.29522  0.84102  0.31668  Biso   1.000  H
  C63      1.0000 0.38589  0.85990  0.45637  Biso   1.000  C
  O53      1.0000 0.23610  0.81478  0.39422  Biso   1.000  O
  C64      1.0000 0.31991  0.12079  0.50972  Biso   1.000  C
  H72      1.0000 0.22292  0.00258  0.41619  Biso   1.000  H
  C65      1.0000 0.16667  0.10542  0.44808  Biso   1.000  C
  H73      1.0000 0.38593  0.92412  0.48293  Biso   1.000  H
  C66      1.0000 0.39711  0.81479  0.53569  Biso   1.000  C
  O54      1.0000 0.45330  0.86179  0.43033  Biso   1.000  O
  C67      1.0000 0.23910  0.77297  0.46917  Biso   1.000  C
  C68      1.0000 0.32042  0.11190  0.60331  Biso   1.000  C
  H74      1.0000 0.33282  0.18643  0.51438  Biso   1.000  H
  O55      1.0000 0.37982  0.07991  0.48930  Biso   1.000  O
  H75      1.0000 0.17092  0.16862  0.44461  Biso   1.000  H
  C69      1.0000 0.07880  0.04480  0.37787  Biso   1.000  C
  O56      1.0000 0.17421  0.10521  0.54257  Biso   1.000  O
  H76      1.0000 0.39868  0.75082  0.51127  Biso   1.000  H
  C70      1.0000 0.32360  0.81430  0.56203  Biso   1.000  C
  O57      1.0000 0.47239  0.86400  0.62388  Biso   1.000  O
  H77      1.0000 0.23020  0.70599  0.44283  Biso   1.000  H
  C71      1.0000 0.16651  0.79029  0.49063  Biso   1.000  C
  C72      1.0000 0.25367  0.15160  0.62307  Biso   1.000  C
  H78      1.0000 0.30680  0.04574  0.59643  Biso   1.000  H
  O58      1.0000 0.40062  0.15613  0.68581  Biso   1.000  O
  H79      1.0000 0.03849  0.07267  0.39259  Biso   1.000  H
  H80      1.0000 0.06802  0.04152  0.31068  Biso   1.000  H
  O59      1.0000 0.06670  0.95298  0.38482  Biso   1.000  O
  H81      1.0000 0.32740  0.87771  0.59688  Biso   1.000  H
  O60      1.0000 0.33021  0.75829  0.62551  Biso   1.000  O
  H82      1.0000 0.11438  0.76438  0.42981  Biso   1.000  H
  H83      1.0000 0.16220  0.75868  0.53672  Biso   1.000  H
  O61      1.0000 0.17677  0.88731  0.53169  Biso   1.000  O
  O62      1.0000 0.27409  0.24757  0.63617  Biso   1.000  O
  H84      1.0000 0.25358  0.14222  0.68352  Biso   1.000  H
  C73      1.0000 0.32860  0.79633  0.71682  Biso   1.000  C
  C74      1.0000 0.28479  0.31009  0.72710  Biso   1.000  C
  H85      1.0000 0.32970  0.86180  0.72688  Biso   1.000  H
  C75      1.0000 0.40600  0.78873  0.79954  Biso   1.000  C
  O63      1.0000 0.25501  0.74811  0.71608  Biso   1.000  O
  C76      1.0000 0.37047  0.37857  0.77408  Biso   1.000  C
  H86      1.0000 0.28170  0.27510  0.77157  Biso   1.000  H
  C77      1.0000 0.21471  0.35859  0.70453  Biso   1.000  C
  C78      1.0000 0.40271  0.68783  0.78733  Biso   1.000  C
  H87      1.0000 0.40478  0.81608  0.86228  Biso   1.000  H
  O64      1.0000 0.48122  0.83870  0.80324  Biso   1.000  O
  C79      1.0000 0.24639  0.65100  0.70490  Biso   1.000  C
  C80      1.0000 0.37827  0.45150  0.86487  Biso   1.000  C
  H88      1.0000 0.37619  0.40860  0.72688  Biso   1.000  H
  O65      1.0000 0.43428  0.33221  0.80338  Biso   1.000  O
  H89      1.0000 0.21146  0.38390  0.65096  Biso   1.000  H
  C81      1.0000 0.12983  0.29301  0.67383  Biso   1.000  C
  O66      1.0000 0.22978  0.43298  0.79029  Biso   1.000  O
  C82      1.0000 0.32209  0.63812  0.78533  Biso   1.000  C
  H90      1.0000 0.40461  0.65902  0.72518  Biso   1.000  H
  O67      1.0000 0.47396  0.68096  0.86938  Biso   1.000  O
  H91      1.0000 0.24291  0.61957  0.64038  Biso   1.000  H
  C83      1.0000 0.16407  0.61431  0.70557  Biso   1.000  C
  C84      1.0000 0.30897  0.49897  0.83357  Biso   1.000  C
  H92      1.0000 0.37081  0.41960  0.91000  Biso   1.000  H
  O68      1.0000 0.45948  0.51680  0.91600  Biso   1.000  O
  H93      1.0000 0.08812  0.32779  0.66458  Biso   1.000  H
  H94      1.0000 0.11318  0.24657  0.61079  Biso   1.000  H
  O69      1.0000 0.13002  0.24753  0.74441  Biso   1.000  O
  O70      1.0000 0.31788  0.54220  0.76557  Biso   1.000  O
  H95      1.0000 0.32262  0.66279  0.84970  Biso   1.000  H
  H96      1.0000 0.15771  0.55118  0.70757  Biso   1.000  H
  H97      1.0000 0.16130  0.65251  0.76284  Biso   1.000  H
  O71      1.0000 0.09752  0.61699  0.61301  Biso   1.000  O
  O72      1.0000 0.16780  0.65312  0.79902  Biso   1.000  O
  H98      1.0000 0.31451  0.54632  0.89173  Biso   1.000  H
