data_image0
_cell_length_a       18.071
_cell_length_b       15.375
_cell_length_c       15.554
_cell_angle_alpha    104.07
_cell_angle_beta     113.02
_cell_angle_gamma    98.53

_symmetry_space_group_name_H-M    "P 1"
_symmetry_int_tables_number       1

loop_
  _symmetry_equiv_pos_as_xyz
  'x, y, z'

loop_
  _atom_site_label
  _atom_site_occupancy
  _atom_site_fract_x
  _atom_site_fract_y
  _atom_site_fract_z
  _atom_site_thermal_displace_type
  _atom_site_B_iso_or_equiv
  _atom_site_type_symbol
  C1       1.0000 0.68673  0.84958  0.66361  Biso   1.000  C
  C2       1.0000 0.76031  0.87521  0.64096  Biso   1.000  C
  C3       1.0000 0.70920  0.91091  0.76739  Biso   1.000  C
  H1       1.0000 0.67469  0.78382  0.65858  Biso   1.000  H
  O1       1.0000 0.61553  0.86691  0.59403  Biso   1.000  O
  O2       1.0000 0.74050  0.81000  0.54688  Biso   1.000  O
  H2       1.0000 0.76742  0.93852  0.63771  Biso   1.000  H
  C4       1.0000 0.84091  0.86842  0.71987  Biso   1.000  C
  C5       1.0000 0.78698  0.89588  0.84120  Biso   1.000  C
  H3       1.0000 0.72089  0.97620  0.77073  Biso   1.000  H
  O3       1.0000 0.64169  0.89109  0.79160  Biso   1.000  O
  C6       1.0000 0.75237  0.84569  0.47671  Biso   1.000  C
  H4       1.0000 0.83641  0.80266  0.71358  Biso   1.000  H
  C7       1.0000 0.91739  0.90799  0.71032  Biso   1.000  C
  O4       1.0000 0.85431  0.91873  0.81891  Biso   1.000  O
  O5       1.0000 0.76822  0.80070  0.83461  Biso   1.000  O
  H5       1.0000 0.80109  0.93560  0.90833  Biso   1.000  H
  C8       1.0000 0.66931  0.81417  0.38248  Biso   1.000  C
  O6       1.0000 0.81398  0.81330  0.45339  Biso   1.000  O
  H6       1.0000 0.77022  0.91388  0.50350  Biso   1.000  H
  H7       1.0000 0.96699  0.90604  0.76421  Biso   1.000  H
  H8       1.0000 0.91479  0.87107  0.64837  Biso   1.000  H
  O7       1.0000 0.92159  0.00138  0.71262  Biso   1.000  O
  C9       1.0000 0.78188  0.77978  0.92432  Biso   1.000  C
  C10      1.0000 0.64289  0.70933  0.33473  Biso   1.000  C
  H9       1.0000 0.67712  0.84272  0.33562  Biso   1.000  H
  O8       1.0000 0.60780  0.84619  0.40653  Biso   1.000  O
  C11      1.0000 0.79409  0.71369  0.41208  Biso   1.000  C
  C12      1.0000 0.70018  0.72069  0.90989  Biso   1.000  C
  C13      1.0000 0.84880  0.72682  0.94372  Biso   1.000  C
  H10      1.0000 0.80100  0.83776  0.97977  Biso   1.000  H
  C14      1.0000 0.71219  0.67859  0.31460  Biso   1.000  C
  H11      1.0000 0.63282  0.68011  0.37989  Biso   1.000  H
  O9       1.0000 0.56767  0.68232  0.24487  Biso   1.000  O
  H12      1.0000 0.78678  0.68512  0.45909  Biso   1.000  H
  C15      1.0000 0.86639  0.69198  0.39580  Biso   1.000  C
  C16      1.0000 0.71682  0.68991  0.99983  Biso   1.000  C
  H13      1.0000 0.67862  0.66570  0.85052  Biso   1.000  H
  O10      1.0000 0.64041  0.77321  0.89923  Biso   1.000  O
  O11      1.0000 0.85749  0.69481  0.02610  Biso   1.000  O
  H14      1.0000 0.83158  0.67269  0.88457  Biso   1.000  H
  C17      1.0000 0.93340  0.78541  0.96859  Biso   1.000  C
  O12      1.0000 0.68909  0.57897  0.27707  Biso   1.000  O
  H15      1.0000 0.72022  0.70391  0.26582  Biso   1.000  H
  O13      1.0000 0.87539  0.72397  0.32178  Biso   1.000  O
  O14      1.0000 0.94902  0.74902  0.49003  Biso   1.000  O
  C18      1.0000 0.78360  0.63798  0.01448  Biso   1.000  C
  O15      1.0000 0.64368  0.63233  0.99168  Biso   1.000  O
  H16      1.0000 0.73739  0.74561  0.05830  Biso   1.000  H
  O16      1.0000 0.95791  0.86389  0.05438  Biso   1.000  O
  C19      1.0000 0.68598  0.53672  0.18387  Biso   1.000  C
  O17      1.0000 0.75259  0.55669  0.93128  Biso   1.000  O
  H17      1.0000 0.79502  0.62032  0.07392  Biso   1.000  H
  C20      1.0000 0.60182  0.46561  0.11962  Biso   1.000  C
  O18      1.0000 0.74997  0.49176  0.19387  Biso   1.000  O
  H18      1.0000 0.69223  0.58420  0.15323  Biso   1.000  H
  C21      1.0000 0.75019  0.46892  0.94638  Biso   1.000  C
  C22      1.0000 0.59193  0.39172  0.16663  Biso   1.000  C
  H19      1.0000 0.59911  0.43561  0.05478  Biso   1.000  H
  O19      1.0000 0.53689  0.51111  0.10630  Biso   1.000  O
  C23      1.0000 0.74741  0.42088  0.23850  Biso   1.000  C
  C24      1.0000 0.66270  0.40469  0.87658  Biso   1.000  C
  C25      1.0000 0.81481  0.42861  0.92232  Biso   1.000  C
  H20      1.0000 0.76189  0.47622  0.01522  Biso   1.000  H
  C26      1.0000 0.66302  0.34722  0.18210  Biso   1.000  C
  H21      1.0000 0.59300  0.42083  0.23073  Biso   1.000  H
  O20      1.0000 0.51438  0.32217  0.10400  Biso   1.000  O
  H22      1.0000 0.75701  0.44973  0.30682  Biso   1.000  H
  C27      1.0000 0.81850  0.37916  0.23946  Biso   1.000  C
  C28      1.0000 0.66060  0.30789  0.88442  Biso   1.000  C
  H23      1.0000 0.64988  0.40190  0.80848  Biso   1.000  H
  O21      1.0000 0.60288  0.43861  0.90249  Biso   1.000  O
  O22      1.0000 0.80622  0.33459  0.92432  Biso   1.000  O
  H24      1.0000 0.80829  0.42987  0.85711  Biso   1.000  H
  C29      1.0000 0.90280  0.48059  0.99968  Biso   1.000  C
  O23      1.0000 0.65926  0.28767  0.23946  Biso   1.000  O
  H25      1.0000 0.65738  0.31008  0.11777  Biso   1.000  H
  H26      1.0000 0.87081  0.42803  0.27411  Biso   1.000  H
  H27      1.0000 0.82248  0.33462  0.27470  Biso   1.000  H
  O24      1.0000 0.80540  0.33378  0.14109  Biso   1.000  O
  C30      1.0000 0.72639  0.27269  0.86029  Biso   1.000  C
  H28      1.0000 0.67333  0.31190  0.95282  Biso   1.000  H
  O25      1.0000 0.58043  0.24530  0.82113  Biso   1.000  O
  H29      1.0000 0.94151  0.45431  0.97969  Biso   1.000  H
  H30      1.0000 0.91308  0.54511  0.00242  Biso   1.000  H
  O26      1.0000 0.91922  0.47772  0.09458  Biso   1.000  O
  C31      1.0000 0.65439  0.19278  0.20023  Biso   1.000  C
  O27      1.0000 0.70541  0.26397  0.76029  Biso   1.000  O
  H31      1.0000 0.72568  0.21130  0.86821  Biso   1.000  H
  C32      1.0000 0.57639  0.13196  0.19268  Biso   1.000  C
  H32      1.0000 0.65133  0.18072  0.13383  Biso   1.000  H
  O28      1.0000 0.72568  0.17021  0.26100  Biso   1.000  O
  C33      1.0000 0.69507  0.17520  0.69448  Biso   1.000  C
  C34      1.0000 0.58050  0.14682  0.29402  Biso   1.000  C
  H33      1.0000 0.57410  0.06673  0.16463  Biso   1.000  H
  O29      1.0000 0.50343  0.14970  0.12843  Biso   1.000  O
  C35      1.0000 0.73438  0.17773  0.35820  Biso   1.000  C
  C36      1.0000 0.61060  0.14864  0.60602  Biso   1.000  C
  C37      1.0000 0.76558  0.18370  0.66221  Biso   1.000  C
  H34      1.0000 0.69770  0.12850  0.72801  Biso   1.000  H
  O30      1.0000 0.50689  0.08580  0.28432  Biso   1.000  O
  H35      1.0000 0.58307  0.21180  0.32400  Biso   1.000  H
  C38      1.0000 0.65688  0.12368  0.35783  Biso   1.000  C
  H36      1.0000 0.75381  0.24261  0.40180  Biso   1.000  H
  C39      1.0000 0.80179  0.12280  0.39047  Biso   1.000  C
  C40      1.0000 0.81583  0.16127  0.42171  Biso   1.000  C
  C41      1.0000 0.60181  0.06090  0.52978  Biso   1.000  C
  H37      1.0000 0.60608  0.19891  0.57738  Biso   1.000  H
  O31      1.0000 0.54561  0.13263  0.63549  Biso   1.000  O
  O32      1.0000 0.75151  0.10089  0.58471  Biso   1.000  O
  H38      1.0000 0.76783  0.23700  0.63822  Biso   1.000  H
  C42      1.0000 0.85050  0.19748  0.74741  Biso   1.000  C
  H39      1.0000 0.65040  0.05677  0.33177  Biso   1.000  H
  O33      1.0000 0.66626  0.14697  0.45687  Biso   1.000  O
  O34      1.0000 0.76178  0.01409  0.32207  Biso   1.000  O
  O35      1.0000 0.80220  0.05990  0.37581  Biso   1.000  O
  C43      1.0000 0.67322  0.07670  0.50091  Biso   1.000  C
  H40      1.0000 0.60568  0.01090  0.55887  Biso   1.000  H
  O36      1.0000 0.52432  0.03360  0.44510  Biso   1.000  O
  H41      1.0000 0.89263  0.19901  0.72320  Biso   1.000  H
  H42      1.0000 0.86547  0.25709  0.79797  Biso   1.000  H
  O37      1.0000 0.85012  0.12591  0.78938  Biso   1.000  O
  H43      1.0000 0.66780  0.01881  0.45228  Biso   1.000  H
  C44      1.0000 0.34887  0.64549  0.20919  Biso   1.000  C
  C45      1.0000 0.32309  0.60588  0.09912  Biso   1.000  C
  H44      1.0000 0.35793  0.59661  0.23932  Biso   1.000  H
  C46      1.0000 0.27892  0.68312  0.22251  Biso   1.000  C
  O38      1.0000 0.42309  0.72058  0.25619  Biso   1.000  O
  C47      1.0000 0.24000  0.53103  0.04819  Biso   1.000  C
  H45      1.0000 0.31578  0.65631  0.07099  Biso   1.000  H
  O39      1.0000 0.38439  0.56911  0.08113  Biso   1.000  O
  C48      1.0000 0.19662  0.60472  0.16803  Biso   1.000  C
  H46      1.0000 0.27239  0.73490  0.19638  Biso   1.000  H
  O40      1.0000 0.30037  0.71449  0.32577  Biso   1.000  O
  O41      1.0000 0.25083  0.45631  0.08683  Biso   1.000  O
  O42      1.0000 0.17828  0.56821  0.06558  Biso   1.000  O
  H47      1.0000 0.22269  0.50788  0.97683  Biso   1.000  H
  H48      1.0000 0.20221  0.55488  0.19742  Biso   1.000  H
  C49      1.0000 0.12417  0.63990  0.17158  Biso   1.000  C
  C50      1.0000 0.30113  0.80780  0.36752  Biso   1.000  C
  C51      1.0000 0.22790  0.36468  0.01688  Biso   1.000  C
  H49      1.0000 0.07288  0.58998  0.13146  Biso   1.000  H
  H50      1.0000 0.13138  0.65838  0.23917  Biso   1.000  H
  O43      1.0000 0.11739  0.71566  0.13716  Biso   1.000  O
  H51      1.0000 0.29478  0.83987  0.31889  Biso   1.000  H
  C52      1.0000 0.38527  0.85577  0.45798  Biso   1.000  C
  O44      1.0000 0.23648  0.81141  0.39558  Biso   1.000  O
  C53      1.0000 0.30150  0.32450  0.05448  Biso   1.000  C
  C54      1.0000 0.14890  0.30628  0.01140  Biso   1.000  C
  H52      1.0000 0.21748  0.36901  0.95159  Biso   1.000  H
  H53      1.0000 0.38658  0.92062  0.48670  Biso   1.000  H
  C55      1.0000 0.39599  0.80851  0.53452  Biso   1.000  C
  O45      1.0000 0.45171  0.85598  0.42889  Biso   1.000  O
  C56      1.0000 0.23946  0.76828  0.46827  Biso   1.000  C
  C57      1.0000 0.27621  0.22412  0.99001  Biso   1.000  C
  H54      1.0000 0.31641  0.32788  0.12317  Biso   1.000  H
  O46      1.0000 0.37010  0.37770  0.04960  Biso   1.000  O
  O47      1.0000 0.13178  0.20981  0.95610  Biso   1.000  O
  H55      1.0000 0.15539  0.31228  0.07839  Biso   1.000  H
  C58      1.0000 0.07200  0.33526  0.95536  Biso   1.000  C
  H56      1.0000 0.39583  0.74388  0.50713  Biso   1.000  H
  C59      1.0000 0.32338  0.80916  0.56087  Biso   1.000  C
  O48      1.0000 0.47212  0.85533  0.62083  Biso   1.000  O
  H57      1.0000 0.23132  0.70131  0.43992  Biso   1.000  H
  C60      1.0000 0.16683  0.78313  0.49040  Biso   1.000  C
  C61      1.0000 0.19933  0.17133  0.99282  Biso   1.000  C
  O49      1.0000 0.34132  0.18129  0.01932  Biso   1.000  O
  H58      1.0000 0.26133  0.22228  0.92183  Biso   1.000  H
  H59      1.0000 0.02232  0.29204  0.94582  Biso   1.000  H
  H60      1.0000 0.07509  0.39680  0.99393  Biso   1.000  H
  O50      1.0000 0.06650  0.33618  0.86372  Biso   1.000  O
  H61      1.0000 0.32759  0.87332  0.59603  Biso   1.000  H
  O51      1.0000 0.32941  0.75450  0.62460  Biso   1.000  O
  H62      1.0000 0.11512  0.75581  0.42970  Biso   1.000  H
  H63      1.0000 0.16390  0.75130  0.53622  Biso   1.000  H
  O52      1.0000 0.17439  0.87942  0.53200  Biso   1.000  O
  O53      1.0000 0.22086  0.17496  0.09127  Biso   1.000  O
  H64      1.0000 0.18329  0.10608  0.95122  Biso   1.000  H
  C62      1.0000 0.33060  0.79569  0.71758  Biso   1.000  C
  C63      1.0000 0.20491  0.09083  0.11192  Biso   1.000  C
  H65      1.0000 0.33341  0.86190  0.72809  Biso   1.000  H
  C64      1.0000 0.40872  0.78657  0.79789  Biso   1.000  C
  O54      1.0000 0.25878  0.75123  0.72180  Biso   1.000  O
  C65      1.0000 0.28602  0.08579  0.18972  Biso   1.000  C
  H66      1.0000 0.18502  0.03748  0.05130  Biso   1.000  H
  C66      1.0000 0.13830  0.08961  0.14960  Biso   1.000  C
  C67      1.0000 0.40430  0.68530  0.78590  Biso   1.000  C
  H67      1.0000 0.40999  0.81600  0.86200  Biso   1.000  H
  O55      1.0000 0.48181  0.83432  0.79789  Biso   1.000  O
  C68      1.0000 0.24871  0.65392  0.71092  Biso   1.000  C
  H68      1.0000 0.30851  0.14182  0.24820  Biso   1.000  H
  O56      1.0000 0.34468  0.08032  0.15019  Biso   1.000  O
  C69      1.0000 0.26809  0.99970  0.21822  Biso   1.000  C
  H69      1.0000 0.15879  0.14479  0.20852  Biso   1.000  H
  C70      1.0000 0.05523  0.09071  0.07861  Biso   1.000  C
  O57      1.0000 0.12739  0.00892  0.17899  Biso   1.000  O
  C71      1.0000 0.32603  0.63930  0.78960  Biso   1.000  C
  H70      1.0000 0.40359  0.65381  0.72261  Biso   1.000  H
  O58      1.0000 0.47589  0.67969  0.86607  Biso   1.000  O
  H71      1.0000 0.23849  0.61791  0.64407  Biso   1.000  H
  C72      1.0000 0.17198  0.62632  0.72809  Biso   1.000  C
  C73      1.0000 0.19998  0.00310  0.25382  Biso   1.000  C
  H72      1.0000 0.24731  0.94439  0.15930  Biso   1.000  H
  O59      1.0000 0.34130  0.99231  0.29269  Biso   1.000  O
  O60      1.0000 0.99332  0.05673  0.07972  Biso   1.000  O
  O61      1.0000 0.02169  0.01152  0.99519  Biso   1.000  O
  O62      1.0000 0.31789  0.54177  0.76747  Biso   1.000  O
  H73      1.0000 0.32970  0.66598  0.85563  Biso   1.000  H
  O63      1.0000 0.09959  0.63221  0.65451  Biso   1.000  O
  O64      1.0000 0.18778  0.68417  0.82387  Biso   1.000  O
  O65      1.0000 0.23099  0.08061  0.34073  Biso   1.000  O
  H74      1.0000 0.18709  0.94611  0.26892  Biso   1.000  H
  C74      1.0000 0.31068  0.50050  0.83683  Biso   1.000  C
  C75      1.0000 0.23251  0.06441  0.42807  Biso   1.000  C
  C76      1.0000 0.38040  0.45264  0.86644  Biso   1.000  C
  O66      1.0000 0.23233  0.43434  0.79523  Biso   1.000  O
  H75      1.0000 0.31709  0.54899  0.89538  Biso   1.000  H
  C77      1.0000 0.31810  0.11571  0.51253  Biso   1.000  C
  C78      1.0000 0.16578  0.10209  0.45213  Biso   1.000  C
  H76      1.0000 0.22183  0.99750  0.41830  Biso   1.000  H
  C79      1.0000 0.37139  0.37913  0.77613  Biso   1.000  C
  H77      1.0000 0.37482  0.42202  0.91278  Biso   1.000  H
  O67      1.0000 0.46019  0.51832  0.91411  Biso   1.000  O
  C80      1.0000 0.21593  0.35891  0.70951  Biso   1.000  C
  C81      1.0000 0.31941  0.10827  0.60817  Biso   1.000  C
  H78      1.0000 0.33081  0.18148  0.51742  Biso   1.000  H
  O68      1.0000 0.37812  0.07497  0.49240  Biso   1.000  O
  H79      1.0000 0.17019  0.16553  0.44932  Biso   1.000  H
  C82      1.0000 0.07921  0.04088  0.38063  Biso   1.000  C
  O69      1.0000 0.17368  0.10208  0.54629  Biso   1.000  O
  C83      1.0000 0.28530  0.30932  0.73001  Biso   1.000  C
  H80      1.0000 0.37633  0.40810  0.72831  Biso   1.000  H
  O70      1.0000 0.43378  0.33152  0.80359  Biso   1.000  O
  H81      1.0000 0.21148  0.38311  0.65547  Biso   1.000  H
  C84      1.0000 0.13169  0.29343  0.68108  Biso   1.000  C
  C85      1.0000 0.25311  0.14893  0.62660  Biso   1.000  C
  H82      1.0000 0.30558  0.04207  0.60129  Biso   1.000  H
  O71      1.0000 0.39860  0.15207  0.68841  Biso   1.000  O
  H83      1.0000 0.03859  0.06842  0.39513  Biso   1.000  H
  H84      1.0000 0.06928  0.03788  0.31378  Biso   1.000  H
  O72      1.0000 0.06731  0.94790  0.38573  Biso   1.000  O
  O73      1.0000 0.27363  0.24493  0.63941  Biso   1.000  O
  H85      1.0000 0.28321  0.27542  0.77531  Biso   1.000  H
  H86      1.0000 0.09102  0.32904  0.67612  Biso   1.000  H
  H87      1.0000 0.11303  0.24754  0.61654  Biso   1.000  H
  O74      1.0000 0.13439  0.24676  0.74918  Biso   1.000  O
  H88      1.0000 0.25272  0.14107  0.68708  Biso   1.000  H
  Ne1      1.0000 0.25999  0.42127  0.40729  Biso   1.000  Ne
  He1      1.0000 0.26409  0.42168  0.41749  Biso   1.000  He
  He2      1.0000 0.18229  0.41088  0.38368  Biso   1.000  He
  Ar1      1.0000 0.26410  0.42168  0.41751  Biso   1.000  Ar
  Ne2      1.0000 0.72380  0.48561  0.57432  Biso   1.000  Ne
  He3      1.0000 0.79586  0.49947  0.61269  Biso   1.000  He
  He4      1.0000 0.59917  0.47488  0.53552  Biso   1.000  He
  Ar2      1.0000 0.68810  0.48165  0.57166  Biso   1.000  Ar
