data_image0
_cell_length_a       28.053
_cell_length_b       20.722
_cell_length_c       16.828
_cell_angle_alpha    90
_cell_angle_beta     107.44
_cell_angle_gamma    90

_symmetry_space_group_name_H-M    "P 1"
_symmetry_int_tables_number       1

loop_
  _symmetry_equiv_pos_as_xyz
  'x, y, z'

loop_
  _atom_site_label
  _atom_site_occupancy
  _atom_site_fract_x
  _atom_site_fract_y
  _atom_site_fract_z
  _atom_site_thermal_displace_type
  _atom_site_B_iso_or_equiv
  _atom_site_type_symbol
  C1       1.0000 0.62546  0.58156  0.20125  Biso   1.000  C
  N1       1.0000 0.60730  0.57649  0.11156  Biso   1.000  N
  H1       1.0000 0.60011  0.56838  0.22698  Biso   1.000  H
  N2       1.0000 0.64665  0.64366  0.23090  Biso   1.000  N
  C2       1.0000 0.67129  0.53590  0.22498  Biso   1.000  C
  N3       1.0000 0.64669  0.64366  0.23090  Biso   1.000  N
  C3       1.0000 0.67131  0.53590  0.22492  Biso   1.000  C
  C4       1.0000 0.55925  0.60071  0.06241  Biso   1.000  C
  C5       1.0000 0.63408  0.53330  0.08048  Biso   1.000  C
  C6       1.0000 0.62550  0.58156  0.20125  Biso   1.000  C
  C7       1.0000 0.69652  0.63961  0.27077  Biso   1.000  C
  C8       1.0000 0.61617  0.69622  0.24554  Biso   1.000  C
  N4       1.0000 0.67171  0.50956  0.14582  Biso   1.000  N
  H2       1.0000 0.66760  0.50188  0.26317  Biso   1.000  H
  N5       1.0000 0.71203  0.57852  0.26423  Biso   1.000  N
  N6       1.0000 0.71207  0.57852  0.26423  Biso   1.000  N
  H3       1.0000 0.53461  0.58990  0.09032  Biso   1.000  H
  H4       1.0000 0.54971  0.57909  0.00891  Biso   1.000  H
  N7       1.0000 0.55811  0.66943  0.04871  Biso   1.000  N
  O1       1.0000 0.62529  0.51771  0.00779  Biso   1.000  O
  O2       1.0000 0.72328  0.68439  0.30577  Biso   1.000  O
  O3       1.0000 0.72330  0.68439  0.30571  Biso   1.000  O
  N8       1.0000 0.59441  0.73473  0.17248  Biso   1.000  N
  H5       1.0000 0.63661  0.72368  0.28927  Biso   1.000  H
  H6       1.0000 0.58964  0.67851  0.26491  Biso   1.000  H
  C9       1.0000 0.70249  0.45546  0.13840  Biso   1.000  C
  C10      1.0000 0.70253  0.45546  0.13840  Biso   1.000  C
  C11      1.0000 0.76078  0.55545  0.31368  Biso   1.000  C
  C12      1.0000 0.54982  0.71547  0.10788  Biso   1.000  C
  C13      1.0000 0.55058  0.69622  0.97153  Biso   1.000  C
  C14      1.0000 0.60331  0.79949  0.17142  Biso   1.000  C
  C15      1.0000 0.60334  0.79949  0.17142  Biso   1.000  C
  H7       1.0000 0.70280  0.42438  0.18157  Biso   1.000  H
  H8       1.0000 0.68760  0.43471  0.08509  Biso   1.000  H
  N9       1.0000 0.75312  0.47293  0.14482  Biso   1.000  N
  H9       1.0000 0.68763  0.43471  0.08509  Biso   1.000  H
  H10      1.0000 0.77641  0.58788  0.35467  Biso   1.000  H
  H11      1.0000 0.75651  0.51679  0.34327  Biso   1.000  H
  N10      1.0000 0.79324  0.54121  0.26348  Biso   1.000  N
  N11      1.0000 0.79328  0.54121  0.26348  Biso   1.000  N
  H12      1.0000 0.52362  0.70090  0.13130  Biso   1.000  H
  C16      1.0000 0.53448  0.77758  0.05625  Biso   1.000  C
  N12      1.0000 0.54035  0.76050  0.97589  Biso   1.000  N
  O4       1.0000 0.55292  0.66745  0.90981  Biso   1.000  O
  N13      1.0000 0.54039  0.76050  0.97589  Biso   1.000  N
  N14      1.0000 0.56935  0.82482  0.10172  Biso   1.000  N
  O5       1.0000 0.63557  0.82960  0.22218  Biso   1.000  O
  O6       1.0000 0.63560  0.82960  0.22218  Biso   1.000  O
  C17      1.0000 0.79139  0.47920  0.22305  Biso   1.000  C
  C18      1.0000 0.77236  0.47177  0.07892  Biso   1.000  C
  C19      1.0000 0.77240  0.47177  0.07892  Biso   1.000  C
  C20      1.0000 0.84030  0.56742  0.28273  Biso   1.000  C
  H13      1.0000 0.49993  0.78979  0.05108  Biso   1.000  H
  C21      1.0000 0.51689  0.79761  0.90115  Biso   1.000  C
  C22      1.0000 0.56184  0.89359  0.08951  Biso   1.000  C
  C23      1.0000 0.84022  0.47737  0.19938  Biso   1.000  C
  H14      1.0000 0.78999  0.44378  0.26086  Biso   1.000  H
  H15      1.0000 0.79003  0.44378  0.26086  Biso   1.000  H
  N15      1.0000 0.82290  0.48142  0.10963  Biso   1.000  N
  O7       1.0000 0.74876  0.46328  0.00654  Biso   1.000  O
  N16      1.0000 0.86701  0.53330  0.24137  Biso   1.000  N
  O8       1.0000 0.85539  0.61336  0.32857  Biso   1.000  O
  O9       1.0000 0.85542  0.61336  0.32857  Biso   1.000  O
  N17      1.0000 0.54561  0.85378  0.89212  Biso   1.000  N
  H16      1.0000 0.48407  0.81150  0.90239  Biso   1.000  H
  H17      1.0000 0.51228  0.77000  0.85288  Biso   1.000  H
  H18      1.0000 0.58172  0.91569  0.13921  Biso   1.000  H
  H19      1.0000 0.52700  0.90339  0.08247  Biso   1.000  H
  N18      1.0000 0.57489  0.91796  0.01894  Biso   1.000  N
  N19      1.0000 0.57493  0.91796  0.01894  Biso   1.000  N
  H20      1.0000 0.85891  0.43751  0.21832  Biso   1.000  H
  C24      1.0000 0.85558  0.46829  0.05980  Biso   1.000  C
  C25      1.0000 0.91957  0.54372  0.25432  Biso   1.000  C
  C26      1.0000 0.54297  0.91410  0.93435  Biso   1.000  C
  C27      1.0000 0.55720  0.86425  0.81918  Biso   1.000  C
  C28      1.0000 0.55723  0.86425  0.81918  Biso   1.000  C
  C29      1.0000 0.61657  0.95493  0.02672  Biso   1.000  C
  N20      1.0000 0.88519  0.52374  0.05120  Biso   1.000  N
  H21      1.0000 0.87783  0.43321  0.08502  Biso   1.000  H
  H22      1.0000 0.83564  0.45440  0.00480  Biso   1.000  H
  N21      1.0000 0.93151  0.57195  0.18412  Biso   1.000  N
  H23      1.0000 0.93671  0.50270  0.26740  Biso   1.000  H
  H24      1.0000 0.93221  0.57171  0.30222  Biso   1.000  H
  H25      1.0000 0.93223  0.57171  0.30216  Biso   1.000  H
  H26      1.0000 0.50838  0.92559  0.93011  Biso   1.000  H
  C30      1.0000 0.56666  0.96337  0.88807  Biso   1.000  C
  N22      1.0000 0.56851  0.92805  0.81588  Biso   1.000  N
  O10      1.0000 0.55703  0.82396  0.76648  Biso   1.000  O
  O11      1.0000 0.55706  0.82396  0.76648  Biso   1.000  O
  N23      1.0000 0.61479  0.97626  0.94880  Biso   1.000  N
  N24      1.0000 0.61483  0.97626  0.94880  Biso   1.000  N
  O12      1.0000 0.64865  0.96656  0.09113  Biso   1.000  O
  O13      1.0000 0.64869  0.96656  0.09113  Biso   1.000  O
  C31      1.0000 0.93336  0.53663  0.11193  Biso   1.000  C
  C32      1.0000 0.88344  0.54507  0.97328  Biso   1.000  C
  C33      1.0000 0.94279  0.63575  0.18082  Biso   1.000  C
  H27      1.0000 0.54637  0.00261  0.87318  Biso   1.000  H
  C34      1.0000 0.58045  0.95628  0.74568  Biso   1.000  C
  C35      1.0000 0.64444  0.03166  0.94020  Biso   1.000  C
  C36      1.0000 0.95701  0.58590  0.06565  Biso   1.000  C
  H28      1.0000 0.95361  0.49739  0.12682  Biso   1.000  H
  H29      1.0000 0.95365  0.49739  0.12682  Biso   1.000  H
  N25      1.0000 0.92509  0.58204  0.98106  Biso   1.000  N
  O14      1.0000 0.85133  0.53344  0.90887  Biso   1.000  O
  O15      1.0000 0.94296  0.67600  0.23352  Biso   1.000  O
  N26      1.0000 0.95438  0.64617  0.10788  Biso   1.000  N
  N27      1.0000 0.95441  0.64617  0.10788  Biso   1.000  N
  N28      1.0000 0.63297  0.96670  0.75863  Biso   1.000  N
  H30      1.0000 0.56327  0.99730  0.73260  Biso   1.000  H
  H31      1.0000 0.56777  0.92829  0.69778  Biso   1.000  H
  N29      1.0000 0.63300  0.96670  0.75863  Biso   1.000  N
  H32      1.0000 0.56330  0.99730  0.73260  Biso   1.000  H
  H33      1.0000 0.66438  0.04560  0.99520  Biso   1.000  H
  H34      1.0000 0.62219  0.06679  0.91498  Biso   1.000  H
  N30      1.0000 0.67711  0.01858  0.89037  Biso   1.000  N
  H35      1.0000 0.99160  0.57441  0.06989  Biso   1.000  H
  H36      1.0000 0.99164  0.57441  0.06989  Biso   1.000  H
  C37      1.0000 0.93814  0.60641  0.91049  Biso   1.000  C
  C38      1.0000 0.93817  0.60641  0.91049  Biso   1.000  C
  C39      1.0000 0.98312  0.70239  0.09885  Biso   1.000  C
  C40      1.0000 0.65968  0.93258  0.71727  Biso   1.000  C
  C41      1.0000 0.65972  0.93258  0.71727  Biso   1.000  C
  C42      1.0000 0.65977  0.02258  0.80062  Biso   1.000  C
  C43      1.0000 0.72762  0.02823  0.92108  Biso   1.000  C
  H37      1.0000 0.91829  0.58431  0.86079  Biso   1.000  H
  H38      1.0000 0.97298  0.59661  0.91753  Biso   1.000  H
  N31      1.0000 0.93067  0.67518  0.89828  Biso   1.000  N
  N32      1.0000 0.95963  0.73950  0.02411  Biso   1.000  N
  H39      1.0000 0.98774  0.73000  0.14712  Biso   1.000  H
  H40      1.0000 0.01591  0.68850  0.09761  Biso   1.000  H
  N33      1.0000 0.70674  0.95879  0.73652  Biso   1.000  N
  O16      1.0000 0.64460  0.88664  0.67143  Biso   1.000  O
  H41      1.0000 0.64107  0.06249  0.78168  Biso   1.000  H
  C44      1.0000 0.70858  0.02080  0.77688  Biso   1.000  C
  N34      1.0000 0.74689  0.02702  0.85518  Biso   1.000  N
  O17      1.0000 0.75122  0.03672  0.99346  Biso   1.000  O
  O18      1.0000 0.75126  0.03672  0.99346  Biso   1.000  O
  C45      1.0000 0.89668  0.70051  0.82858  Biso   1.000  C
  C46      1.0000 0.96554  0.72242  0.94375  Biso   1.000  C
  C47      1.0000 0.94944  0.80378  0.02847  Biso   1.000  C
  C48      1.0000 0.73921  0.94455  0.68632  Biso   1.000  C
  H42      1.0000 0.70999  0.05617  0.73914  Biso   1.000  H
  H43      1.0000 0.70998  0.05617  0.73908  Biso   1.000  H
  C49      1.0000 0.79749  0.04454  0.86160  Biso   1.000  C
  O19      1.0000 0.86442  0.67040  0.77782  Biso   1.000  O
  N35      1.0000 0.90561  0.76523  0.82752  Biso   1.000  N
  C50      1.0000 0.95020  0.78453  0.89212  Biso   1.000  C
  H44      1.0000 0.00009  0.71021  0.94892  Biso   1.000  H
  N36      1.0000 0.94191  0.83052  0.95129  Biso   1.000  N
  O20      1.0000 0.94706  0.83255  0.09019  Biso   1.000  O
  O21      1.0000 0.94710  0.83255  0.09019  Biso   1.000  O
  N37      1.0000 0.78795  0.92148  0.73577  Biso   1.000  N
  H45      1.0000 0.72357  0.91207  0.64533  Biso   1.000  H
  H46      1.0000 0.72360  0.91207  0.64533  Biso   1.000  H
  H47      1.0000 0.74351  0.98321  0.65673  Biso   1.000  H
  N38      1.0000 0.82827  0.99040  0.85418  Biso   1.000  N
  H48      1.0000 0.79718  0.07557  0.81843  Biso   1.000  H
  H49      1.0000 0.81239  0.06529  0.91491  Biso   1.000  H
  C51      1.0000 0.88381  0.80378  0.75446  Biso   1.000  C
  C52      1.0000 0.88385  0.80378  0.75446  Biso   1.000  C
  H50      1.0000 0.97639  0.79910  0.86870  Biso   1.000  H
  C53      1.0000 0.94076  0.89924  0.93759  Biso   1.000  C
  C54      1.0000 0.82869  0.96410  0.77502  Biso   1.000  C
  C55      1.0000 0.80349  0.86039  0.72923  Biso   1.000  C
  C56      1.0000 0.86590  0.96670  0.91952  Biso   1.000  C
  C57      1.0000 0.86594  0.96670  0.91952  Biso   1.000  C
  N39      1.0000 0.85333  0.85629  0.76910  Biso   1.000  N
  H51      1.0000 0.91038  0.82149  0.73509  Biso   1.000  H
  H52      1.0000 0.86337  0.77628  0.71073  Biso   1.000  H
  H53      1.0000 0.86340  0.77628  0.71073  Biso   1.000  H
  N40      1.0000 0.89268  0.92351  0.88844  Biso   1.000  N
  N41      1.0000 0.89272  0.92351  0.88844  Biso   1.000  N
  H54      1.0000 0.96537  0.91010  0.90968  Biso   1.000  H
  H55      1.0000 0.95028  0.92091  0.99109  Biso   1.000  H
  H56      1.0000 0.96540  0.91010  0.90968  Biso   1.000  H
  C58      1.0000 0.87452  0.91844  0.79875  Biso   1.000  C
  H57      1.0000 0.83241  0.99812  0.73683  Biso   1.000  H
  O22      1.0000 0.77670  0.81561  0.69423  Biso   1.000  O
  O23      1.0000 0.87469  0.98229  0.99221  Biso   1.000  O
  H58      1.0000 0.89988  0.93162  0.77302  Biso   1.000  H
  H59      1.0000 0.89991  0.93162  0.77302  Biso   1.000  H
  C59      1.0000 0.37453  0.58156  0.29873  Biso   1.000  C
  C60      1.0000 0.32870  0.53590  0.27500  Biso   1.000  C
  N42      1.0000 0.39272  0.57649  0.38843  Biso   1.000  N
  N43      1.0000 0.35334  0.64366  0.26908  Biso   1.000  N
  H60      1.0000 0.39992  0.56838  0.27301  Biso   1.000  H
  N44      1.0000 0.32832  0.50956  0.35417  Biso   1.000  N
  N45      1.0000 0.28796  0.57852  0.23576  Biso   1.000  N
  H61      1.0000 0.33242  0.50188  0.23682  Biso   1.000  H
  C61      1.0000 0.36594  0.53330  0.41951  Biso   1.000  C
  C62      1.0000 0.44077  0.60071  0.43757  Biso   1.000  C
  C63      1.0000 0.30350  0.63961  0.22922  Biso   1.000  C
  C64      1.0000 0.38386  0.69622  0.25445  Biso   1.000  C
  C65      1.0000 0.29750  0.45546  0.36158  Biso   1.000  C
  C66      1.0000 0.23925  0.55545  0.18630  Biso   1.000  C
  O24      1.0000 0.37473  0.51771  0.49220  Biso   1.000  O
  N46      1.0000 0.44191  0.66943  0.45128  Biso   1.000  N
  H62      1.0000 0.46541  0.58990  0.40967  Biso   1.000  H
  H63      1.0000 0.45032  0.57909  0.49108  Biso   1.000  H
  O25      1.0000 0.27671  0.68439  0.19421  Biso   1.000  O
  H64      1.0000 0.41039  0.67851  0.23508  Biso   1.000  H
  H65      1.0000 0.36341  0.72368  0.21072  Biso   1.000  H
  N47      1.0000 0.40562  0.73473  0.32751  Biso   1.000  N
  N48      1.0000 0.24690  0.47293  0.35517  Biso   1.000  N
  H66      1.0000 0.29722  0.42438  0.31842  Biso   1.000  H
  H67      1.0000 0.31239  0.43471  0.41490  Biso   1.000  H
  N49      1.0000 0.20675  0.54121  0.23651  Biso   1.000  N
  H68      1.0000 0.22361  0.58788  0.14532  Biso   1.000  H
  H69      1.0000 0.24352  0.51679  0.15672  Biso   1.000  H
  C67      1.0000 0.45020  0.71547  0.39210  Biso   1.000  C
  C68      1.0000 0.44941  0.69622  0.52845  Biso   1.000  C
  C69      1.0000 0.39668  0.79949  0.32857  Biso   1.000  C
  C70      1.0000 0.22763  0.47177  0.42107  Biso   1.000  C
  C71      1.0000 0.20863  0.47920  0.27693  Biso   1.000  C
  C72      1.0000 0.15972  0.56742  0.21726  Biso   1.000  C
  H70      1.0000 0.47640  0.70090  0.36868  Biso   1.000  H
  C73      1.0000 0.46555  0.77758  0.44374  Biso   1.000  C
  N50      1.0000 0.45960  0.76050  0.52409  Biso   1.000  N
  O26      1.0000 0.44707  0.66745  0.59018  Biso   1.000  O
  N51      1.0000 0.43067  0.82482  0.39827  Biso   1.000  N
  O27      1.0000 0.36442  0.82960  0.27780  Biso   1.000  O
  N52      1.0000 0.17712  0.48142  0.39036  Biso   1.000  N
  O28      1.0000 0.25126  0.46328  0.49345  Biso   1.000  O
  C74      1.0000 0.15981  0.47737  0.30060  Biso   1.000  C
  H71      1.0000 0.21000  0.44378  0.23912  Biso   1.000  H
  N53      1.0000 0.13301  0.53330  0.25862  Biso   1.000  N
  O29      1.0000 0.14460  0.61336  0.17142  Biso   1.000  O
  H72      1.0000 0.50009  0.78979  0.44891  Biso   1.000  H
  C75      1.0000 0.48309  0.79761  0.59884  Biso   1.000  C
  C76      1.0000 0.43818  0.89359  0.41048  Biso   1.000  C
  C77      1.0000 0.14444  0.46829  0.44019  Biso   1.000  C
  H73      1.0000 0.14111  0.43751  0.28167  Biso   1.000  H
  C78      1.0000 0.08045  0.54372  0.24566  Biso   1.000  C
  N54      1.0000 0.45438  0.85378  0.60787  Biso   1.000  N
  H74      1.0000 0.51591  0.81150  0.59759  Biso   1.000  H
  H75      1.0000 0.48771  0.77000  0.64711  Biso   1.000  H
  N55      1.0000 0.42509  0.91796  0.48105  Biso   1.000  N
  H76      1.0000 0.41830  0.91569  0.36077  Biso   1.000  H
  H77      1.0000 0.47302  0.90339  0.41752  Biso   1.000  H
  N56      1.0000 0.11483  0.52374  0.44879  Biso   1.000  N
  H78      1.0000 0.16438  0.45440  0.49519  Biso   1.000  H
  H79      1.0000 0.12219  0.43321  0.41496  Biso   1.000  H
  N57      1.0000 0.06851  0.57195  0.31586  Biso   1.000  N
  H80      1.0000 0.06331  0.50270  0.23258  Biso   1.000  H
  H81      1.0000 0.06778  0.57171  0.19776  Biso   1.000  H
  C79      1.0000 0.45698  0.91410  0.56564  Biso   1.000  C
  C80      1.0000 0.44276  0.86425  0.68081  Biso   1.000  C
  C81      1.0000 0.38345  0.95493  0.47326  Biso   1.000  C
  C82      1.0000 0.11654  0.54507  0.52671  Biso   1.000  C
  C83      1.0000 0.06666  0.53663  0.38805  Biso   1.000  C
  C84      1.0000 0.05724  0.63575  0.31916  Biso   1.000  C
  H82      1.0000 0.49161  0.92559  0.56987  Biso   1.000  H
  C85      1.0000 0.43333  0.96337  0.61192  Biso   1.000  C
  N58      1.0000 0.43148  0.92805  0.68411  Biso   1.000  N
  O30      1.0000 0.44293  0.82396  0.73350  Biso   1.000  O
  N59      1.0000 0.38516  0.97626  0.55119  Biso   1.000  N
  O31      1.0000 0.35134  0.96656  0.40886  Biso   1.000  O
  N60      1.0000 0.07490  0.58204  0.51892  Biso   1.000  N
  O32      1.0000 0.14866  0.53344  0.59111  Biso   1.000  O
  C86      1.0000 0.04301  0.58590  0.43433  Biso   1.000  C
  H83      1.0000 0.04638  0.49739  0.37317  Biso   1.000  H
  N61      1.0000 0.04561  0.64617  0.39210  Biso   1.000  N
  O33      1.0000 0.05707  0.67600  0.26647  Biso   1.000  O
  H84      1.0000 0.45362  0.00261  0.62680  Biso   1.000  H
  C87      1.0000 0.41954  0.95628  0.75431  Biso   1.000  C
  C88      1.0000 0.35555  0.03166  0.55978  Biso   1.000  C
  C89      1.0000 0.06181  0.60641  0.58949  Biso   1.000  C
  H85      1.0000 0.00838  0.57441  0.43010  Biso   1.000  H
  C90      1.0000 0.01690  0.70239  0.40114  Biso   1.000  C
  N62      1.0000 0.36698  0.96670  0.74135  Biso   1.000  N
  H86      1.0000 0.43668  0.99730  0.76739  Biso   1.000  H
  H87      1.0000 0.43220  0.92829  0.80215  Biso   1.000  H
  N63      1.0000 0.32287  0.01858  0.60961  Biso   1.000  N
  H88      1.0000 0.33561  0.04560  0.50478  Biso   1.000  H
  H89      1.0000 0.37780  0.06679  0.58501  Biso   1.000  H
  N64      1.0000 0.06932  0.67518  0.60170  Biso   1.000  N
  H90      1.0000 0.08169  0.58431  0.63920  Biso   1.000  H
  H91      1.0000 0.02701  0.59661  0.58246  Biso   1.000  H
  N65      1.0000 0.04039  0.73950  0.47588  Biso   1.000  N
  H92      1.0000 0.01229  0.73000  0.35286  Biso   1.000  H
  H93      1.0000 0.98408  0.68850  0.40238  Biso   1.000  H
  C91      1.0000 0.34027  0.93258  0.78271  Biso   1.000  C
  C92      1.0000 0.34019  0.02258  0.69937  Biso   1.000  C
  C93      1.0000 0.27237  0.02823  0.57891  Biso   1.000  C
  C94      1.0000 0.10331  0.70051  0.67140  Biso   1.000  C
  C95      1.0000 0.03445  0.72242  0.55623  Biso   1.000  C
  C96      1.0000 0.05059  0.80378  0.47152  Biso   1.000  C
  N66      1.0000 0.29325  0.95879  0.76346  Biso   1.000  N
  O34      1.0000 0.35539  0.88664  0.82856  Biso   1.000  O
  H94      1.0000 0.35892  0.06249  0.71831  Biso   1.000  H
  C97      1.0000 0.29136  0.02080  0.72304  Biso   1.000  C
  N67      1.0000 0.25309  0.02702  0.64481  Biso   1.000  N
  O35      1.0000 0.24873  0.03672  0.50653  Biso   1.000  O
  N68      1.0000 0.09438  0.76523  0.67246  Biso   1.000  N
  O36      1.0000 0.13557  0.67040  0.72217  Biso   1.000  O
  C98      1.0000 0.04979  0.78453  0.60787  Biso   1.000  C
  H95      1.0000 0.99990  0.71021  0.55106  Biso   1.000  H
  N69      1.0000 0.05808  0.83052  0.54870  Biso   1.000  N
  O37      1.0000 0.05293  0.83255  0.40979  Biso   1.000  O
  C99      1.0000 0.26075  0.94455  0.81367  Biso   1.000  C
  H96      1.0000 0.29000  0.05617  0.76085  Biso   1.000  H
  C100     1.0000 0.20250  0.04454  0.63839  Biso   1.000  C
  C101     1.0000 0.11614  0.80378  0.74553  Biso   1.000  C
  H97      1.0000 0.02359  0.79910  0.63129  Biso   1.000  H
  C102     1.0000 0.05923  0.89924  0.56240  Biso   1.000  C
  N70      1.0000 0.21204  0.92148  0.76421  Biso   1.000  N
  H98      1.0000 0.27638  0.91207  0.85465  Biso   1.000  H
  H99      1.0000 0.25648  0.98321  0.84326  Biso   1.000  H
  N71      1.0000 0.17168  0.99040  0.64580  Biso   1.000  N
  H100     1.0000 0.20277  0.07557  0.68156  Biso   1.000  H
  H101     1.0000 0.18760  0.06529  0.58507  Biso   1.000  H
  N72      1.0000 0.14666  0.85629  0.73089  Biso   1.000  N
  H102     1.0000 0.08961  0.82149  0.76490  Biso   1.000  H
  H103     1.0000 0.13658  0.77628  0.78925  Biso   1.000  H
  H104     1.0000 0.03458  0.91010  0.59030  Biso   1.000  H
  H105     1.0000 0.04971  0.92091  0.50889  Biso   1.000  H
  N73      1.0000 0.10727  0.92351  0.61154  Biso   1.000  N
  C103     1.0000 0.19649  0.86039  0.77075  Biso   1.000  C
  C104     1.0000 0.17128  0.96410  0.72491  Biso   1.000  C
  C105     1.0000 0.13405  0.96670  0.58046  Biso   1.000  C
  C106     1.0000 0.12547  0.91844  0.70124  Biso   1.000  C
  O38      1.0000 0.22327  0.81561  0.80570  Biso   1.000  O
  H106     1.0000 0.16757  0.99812  0.76315  Biso   1.000  H
  O39      1.0000 0.12530  0.98229  0.50777  Biso   1.000  O
  H107     1.0000 0.10008  0.93162  0.72696  Biso   1.000  H
  O40      1.0000 0.55295  0.33255  0.40979  Biso   1.000  O
  C107     1.0000 0.55060  0.30378  0.47152  Biso   1.000  C
  N74      1.0000 0.54037  0.23950  0.47588  Biso   1.000  N
  N75      1.0000 0.55810  0.33052  0.54870  Biso   1.000  N
  C108     1.0000 0.51692  0.20239  0.40114  Biso   1.000  C
  C109     1.0000 0.53446  0.22242  0.55623  Biso   1.000  C
  C110     1.0000 0.54981  0.28453  0.60787  Biso   1.000  C
  C111     1.0000 0.55924  0.39924  0.56240  Biso   1.000  C
  N76      1.0000 0.54563  0.14622  0.39210  Biso   1.000  N
  H108     1.0000 0.48410  0.18850  0.40238  Biso   1.000  H
  H109     1.0000 0.51230  0.23000  0.35286  Biso   1.000  H
  N77      1.0000 0.56934  0.17518  0.60170  Biso   1.000  N
  H110     1.0000 0.49988  0.21021  0.55106  Biso   1.000  H
  N78      1.0000 0.59439  0.26523  0.67246  Biso   1.000  N
  H111     1.0000 0.52361  0.29910  0.63129  Biso   1.000  H
  H112     1.0000 0.53460  0.41010  0.59030  Biso   1.000  H
  H113     1.0000 0.54969  0.42091  0.50889  Biso   1.000  H
  N79      1.0000 0.60729  0.42351  0.61154  Biso   1.000  N
  C112     1.0000 0.54299  0.08590  0.43433  Biso   1.000  C
  C113     1.0000 0.55722  0.13575  0.31916  Biso   1.000  C
  C114     1.0000 0.60333  0.20051  0.67140  Biso   1.000  C
  C115     1.0000 0.56183  0.10641  0.58949  Biso   1.000  C
  C116     1.0000 0.61616  0.30378  0.74553  Biso   1.000  C
  C117     1.0000 0.63407  0.46670  0.58046  Biso   1.000  C
  C118     1.0000 0.62548  0.41844  0.70124  Biso   1.000  C
  N80      1.0000 0.57488  0.08204  0.51892  Biso   1.000  N
  H114     1.0000 0.50840  0.07441  0.43010  Biso   1.000  H
  C119     1.0000 0.56668  0.03663  0.38805  Biso   1.000  C
  N81      1.0000 0.56853  0.07195  0.31586  Biso   1.000  N
  O41      1.0000 0.55705  0.17600  0.26647  Biso   1.000  O
  O42      1.0000 0.63559  0.17040  0.72217  Biso   1.000  O
  H115     1.0000 0.58171  0.08431  0.63920  Biso   1.000  H
  H116     1.0000 0.52699  0.09661  0.58246  Biso   1.000  H
  N82      1.0000 0.64668  0.35629  0.73089  Biso   1.000  N
  H117     1.0000 0.58959  0.32149  0.76490  Biso   1.000  H
  H118     1.0000 0.63660  0.27628  0.78925  Biso   1.000  H
  N83      1.0000 0.67170  0.49040  0.64580  Biso   1.000  N
  O43      1.0000 0.62528  0.48229  0.50777  Biso   1.000  O
  C120     1.0000 0.67130  0.46410  0.72491  Biso   1.000  C
  H119     1.0000 0.60009  0.43162  0.72696  Biso   1.000  H
  C121     1.0000 0.61656  0.04507  0.52671  Biso   1.000  C
  N84      1.0000 0.61485  0.02374  0.44879  Biso   1.000  N
  H120     1.0000 0.54640  0.99739  0.37317  Biso   1.000  H
  C122     1.0000 0.58047  0.04372  0.24566  Biso   1.000  C
  C123     1.0000 0.69651  0.36039  0.77075  Biso   1.000  C
  C124     1.0000 0.70248  0.54454  0.63839  Biso   1.000  C
  N85      1.0000 0.71202  0.42148  0.76421  Biso   1.000  N
  H121     1.0000 0.66759  0.49812  0.76315  Biso   1.000  H
  O44      1.0000 0.64867  0.03344  0.59111  Biso   1.000  O
  C125     1.0000 0.64446  0.96834  0.44019  Biso   1.000  C
  N86      1.0000 0.63303  0.03330  0.25862  Biso   1.000  N
  H122     1.0000 0.56329  0.00270  0.23258  Biso   1.000  H
  H123     1.0000 0.56780  0.07171  0.19776  Biso   1.000  H
  O45      1.0000 0.72329  0.31561  0.80570  Biso   1.000  O
  N87      1.0000 0.75311  0.52702  0.64481  Biso   1.000  N
  H124     1.0000 0.70279  0.57562  0.68156  Biso   1.000  H
  H125     1.0000 0.68758  0.56529  0.58507  Biso   1.000  H
  C126     1.0000 0.76076  0.44455  0.81367  Biso   1.000  C
  N88      1.0000 0.67714  0.98142  0.39036  Biso   1.000  N
  H126     1.0000 0.66440  0.95440  0.49519  Biso   1.000  H
  H127     1.0000 0.62221  0.93321  0.41496  Biso   1.000  H
  C127     1.0000 0.65974  0.06742  0.21726  Biso   1.000  C
  C128     1.0000 0.65979  0.97737  0.30060  Biso   1.000  C
  C129     1.0000 0.77238  0.52823  0.57891  Biso   1.000  C
  C130     1.0000 0.79138  0.52080  0.72304  Biso   1.000  C
  N89      1.0000 0.79323  0.45879  0.76346  Biso   1.000  N
  H128     1.0000 0.77640  0.41207  0.85465  Biso   1.000  H
  H129     1.0000 0.75649  0.48321  0.84326  Biso   1.000  H
  C131     1.0000 0.72765  0.97177  0.42107  Biso   1.000  C
  N90      1.0000 0.70676  0.04121  0.23651  Biso   1.000  N
  O46      1.0000 0.64462  0.11336  0.17142  Biso   1.000  O
  H130     1.0000 0.64109  0.93751  0.28167  Biso   1.000  H
  C132     1.0000 0.70861  0.97920  0.27693  Biso   1.000  C
  N91      1.0000 0.82289  0.51858  0.60961  Biso   1.000  N
  O47      1.0000 0.74875  0.53672  0.50653  Biso   1.000  O
  C133     1.0000 0.84020  0.52258  0.69937  Biso   1.000  C
  H131     1.0000 0.78998  0.55622  0.76085  Biso   1.000  H
  C134     1.0000 0.84029  0.43258  0.78271  Biso   1.000  C
  N92      1.0000 0.74692  0.97293  0.35517  Biso   1.000  N
  O48      1.0000 0.75125  0.96328  0.49345  Biso   1.000  O
  C135     1.0000 0.73923  0.05545  0.18630  Biso   1.000  C
  H132     1.0000 0.71001  0.94378  0.23912  Biso   1.000  H
  C136     1.0000 0.85553  0.53166  0.55978  Biso   1.000  C
  N93      1.0000 0.86700  0.46670  0.74135  Biso   1.000  N
  H133     1.0000 0.85890  0.56249  0.71831  Biso   1.000  H
  O49      1.0000 0.85541  0.38664  0.82856  Biso   1.000  O
  C137     1.0000 0.79751  0.95546  0.36158  Biso   1.000  C
  N94      1.0000 0.78797  0.07852  0.23576  Biso   1.000  N
  H134     1.0000 0.72363  0.08788  0.14532  Biso   1.000  H
  H135     1.0000 0.74350  0.01679  0.15672  Biso   1.000  H
  N95      1.0000 0.88518  0.47626  0.55119  Biso   1.000  N
  H136     1.0000 0.83559  0.54560  0.50478  Biso   1.000  H
  H137     1.0000 0.87782  0.56679  0.58501  Biso   1.000  H
  C138     1.0000 0.91956  0.45628  0.75431  Biso   1.000  C
  N96      1.0000 0.82830  0.00960  0.35417  Biso   1.000  N
  H138     1.0000 0.79720  0.92438  0.31842  Biso   1.000  H
  H139     1.0000 0.81241  0.93471  0.41490  Biso   1.000  H
  C139     1.0000 0.82872  0.03590  0.27500  Biso   1.000  C
  C140     1.0000 0.80352  0.13961  0.22922  Biso   1.000  C
  C141     1.0000 0.88343  0.45493  0.47326  Biso   1.000  C
  C142     1.0000 0.93335  0.46337  0.61192  Biso   1.000  C
  N97      1.0000 0.93150  0.42805  0.68411  Biso   1.000  N
  H140     1.0000 0.93670  0.49730  0.76739  Biso   1.000  H
  H141     1.0000 0.93219  0.42829  0.80215  Biso   1.000  H
  C143     1.0000 0.86596  0.03330  0.41951  Biso   1.000  C
  H142     1.0000 0.83240  0.00188  0.23682  Biso   1.000  H
  C144     1.0000 0.87455  0.08156  0.29873  Biso   1.000  C
  N98      1.0000 0.85335  0.14371  0.26908  Biso   1.000  N
  O50      1.0000 0.77673  0.18439  0.19421  Biso   1.000  O
  N99      1.0000 0.92511  0.41796  0.48105  Biso   1.000  N
  O51      1.0000 0.85136  0.46656  0.40886  Biso   1.000  O
  C145     1.0000 0.95700  0.41410  0.56564  Biso   1.000  C
  H143     1.0000 0.95360  0.50261  0.62680  Biso   1.000  H
  C146     1.0000 0.94277  0.36425  0.68081  Biso   1.000  C
  N100     1.0000 0.89270  0.07649  0.38843  Biso   1.000  N
  O52      1.0000 0.87472  0.01771  0.49220  Biso   1.000  O
  H144     1.0000 0.89990  0.06838  0.27301  Biso   1.000  H
  C147     1.0000 0.88387  0.19622  0.25445  Biso   1.000  C
  C148     1.0000 0.93820  0.39359  0.41048  Biso   1.000  C
  N101     1.0000 0.95440  0.35378  0.60787  Biso   1.000  N
  H145     1.0000 0.99159  0.42559  0.56987  Biso   1.000  H
  O53      1.0000 0.94294  0.32396  0.73350  Biso   1.000  O
  C149     1.0000 0.94079  0.10076  0.43757  Biso   1.000  C
  H146     1.0000 0.91041  0.17851  0.23508  Biso   1.000  H
  H147     1.0000 0.86343  0.22368  0.21072  Biso   1.000  H
  N102     1.0000 0.90564  0.23473  0.32751  Biso   1.000  N
  N103     1.0000 0.93069  0.32482  0.39827  Biso   1.000  N
  H148     1.0000 0.91832  0.41569  0.36077  Biso   1.000  H
  H149     1.0000 0.97301  0.40339  0.41752  Biso   1.000  H
  C150     1.0000 0.98311  0.29761  0.59884  Biso   1.000  C
  N104     1.0000 0.94193  0.16948  0.45128  Biso   1.000  N
  H150     1.0000 0.96539  0.08990  0.40967  Biso   1.000  H
  H151     1.0000 0.95030  0.07909  0.49108  Biso   1.000  H
  C151     1.0000 0.89670  0.29949  0.32857  Biso   1.000  C
  C152     1.0000 0.95022  0.21547  0.39210  Biso   1.000  C
  C153     1.0000 0.96556  0.27758  0.44374  Biso   1.000  C
  N105     1.0000 0.95962  0.26050  0.52409  Biso   1.000  N
  H152     1.0000 0.98773  0.27000  0.64711  Biso   1.000  H
  H153     1.0000 0.01590  0.31150  0.59759  Biso   1.000  H
  C154     1.0000 0.94943  0.19622  0.52845  Biso   1.000  C
  O54      1.0000 0.86444  0.32960  0.27780  Biso   1.000  O
  H154     1.0000 0.97642  0.20090  0.36868  Biso   1.000  H
  H155     1.0000 0.00011  0.28979  0.44891  Biso   1.000  H
  O55      1.0000 0.94708  0.16745  0.59018  Biso   1.000  O
  O56      1.0000 0.44708  0.33255  0.09019  Biso   1.000  O
  C155     1.0000 0.44942  0.30378  0.02847  Biso   1.000  C
  N106     1.0000 0.45965  0.23950  0.02411  Biso   1.000  N
  N107     1.0000 0.44189  0.33052  0.95129  Biso   1.000  N
  C156     1.0000 0.48311  0.20239  0.09885  Biso   1.000  C
  C157     1.0000 0.46552  0.22242  0.94375  Biso   1.000  C
  C158     1.0000 0.45018  0.28453  0.89212  Biso   1.000  C
  C159     1.0000 0.44075  0.39924  0.93759  Biso   1.000  C
  N108     1.0000 0.45439  0.14622  0.10788  Biso   1.000  N
  H156     1.0000 0.48772  0.23000  0.14712  Biso   1.000  H
  H157     1.0000 0.51593  0.18850  0.09761  Biso   1.000  H
  N109     1.0000 0.43065  0.17518  0.89828  Biso   1.000  N
  H158     1.0000 0.50007  0.21021  0.94892  Biso   1.000  H
  H159     1.0000 0.50010  0.21021  0.94892  Biso   1.000  H
  N110     1.0000 0.40559  0.26523  0.82752  Biso   1.000  N
  H160     1.0000 0.47638  0.29910  0.86870  Biso   1.000  H
  N111     1.0000 0.39266  0.42351  0.88844  Biso   1.000  N
  H161     1.0000 0.46539  0.41010  0.90968  Biso   1.000  H
  H162     1.0000 0.45029  0.42091  0.99109  Biso   1.000  H
  N112     1.0000 0.39270  0.42351  0.88844  Biso   1.000  N
  C160     1.0000 0.44280  0.13575  0.18082  Biso   1.000  C
  C161     1.0000 0.45703  0.08590  0.06565  Biso   1.000  C
  C162     1.0000 0.43816  0.10641  0.91049  Biso   1.000  C
  C163     1.0000 0.39666  0.20051  0.82858  Biso   1.000  C
  C164     1.0000 0.38383  0.30378  0.75446  Biso   1.000  C
  C165     1.0000 0.36592  0.46670  0.91952  Biso   1.000  C
  C166     1.0000 0.37450  0.41844  0.79875  Biso   1.000  C
  N113     1.0000 0.43149  0.07195  0.18412  Biso   1.000  N
  O57      1.0000 0.44294  0.17600  0.23352  Biso   1.000  O
  O58      1.0000 0.44297  0.17600  0.23352  Biso   1.000  O
  C167     1.0000 0.43334  0.03663  0.11193  Biso   1.000  C
  H163     1.0000 0.49162  0.07441  0.06989  Biso   1.000  H
  N114     1.0000 0.42507  0.08204  0.98106  Biso   1.000  N
  N115     1.0000 0.42511  0.08204  0.98106  Biso   1.000  N
  H164     1.0000 0.41828  0.08431  0.86079  Biso   1.000  H
  H165     1.0000 0.47296  0.09661  0.91753  Biso   1.000  H
  H166     1.0000 0.47300  0.09661  0.91753  Biso   1.000  H
  O59      1.0000 0.36440  0.17040  0.77782  Biso   1.000  O
  N116     1.0000 0.35331  0.35629  0.76910  Biso   1.000  N
  H167     1.0000 0.36339  0.27628  0.71073  Biso   1.000  H
  H168     1.0000 0.41040  0.32149  0.73509  Biso   1.000  H
  N117     1.0000 0.32829  0.49040  0.85418  Biso   1.000  N
  O60      1.0000 0.37471  0.48229  0.99221  Biso   1.000  O
  C168     1.0000 0.32867  0.46410  0.77502  Biso   1.000  C
  H169     1.0000 0.39989  0.43162  0.77302  Biso   1.000  H
  C169     1.0000 0.41955  0.04372  0.25432  Biso   1.000  C
  N118     1.0000 0.38517  0.02374  0.05120  Biso   1.000  N
  H170     1.0000 0.45363  0.99739  0.12682  Biso   1.000  H
  C170     1.0000 0.38343  0.04507  0.97328  Biso   1.000  C
  C171     1.0000 0.30348  0.36039  0.72923  Biso   1.000  C
  C172     1.0000 0.29747  0.54454  0.86160  Biso   1.000  C
  C173     1.0000 0.29751  0.54454  0.86160  Biso   1.000  C
  N119     1.0000 0.28793  0.42148  0.73577  Biso   1.000  N
  H171     1.0000 0.33240  0.49812  0.73683  Biso   1.000  H
  N120     1.0000 0.36700  0.03330  0.24137  Biso   1.000  N
  H172     1.0000 0.43670  0.00270  0.26740  Biso   1.000  H
  H173     1.0000 0.43219  0.07171  0.30222  Biso   1.000  H
  H174     1.0000 0.43673  0.00270  0.26740  Biso   1.000  H
  H175     1.0000 0.43222  0.07171  0.30216  Biso   1.000  H
  C174     1.0000 0.35556  0.96834  0.05980  Biso   1.000  C
  O61      1.0000 0.35131  0.03344  0.90887  Biso   1.000  O
  O62      1.0000 0.27669  0.31561  0.69423  Biso   1.000  O
  N121     1.0000 0.24688  0.52702  0.85518  Biso   1.000  N
  H176     1.0000 0.31237  0.56529  0.91491  Biso   1.000  H
  H177     1.0000 0.29720  0.57562  0.81843  Biso   1.000  H
  C175     1.0000 0.23922  0.44455  0.68632  Biso   1.000  C
  C176     1.0000 0.34028  0.06742  0.28273  Biso   1.000  C
  C177     1.0000 0.34023  0.97737  0.19938  Biso   1.000  C
  N122     1.0000 0.32289  0.98142  0.10963  Biso   1.000  N
  H178     1.0000 0.33562  0.95440  0.00480  Biso   1.000  H
  H179     1.0000 0.37781  0.93321  0.08502  Biso   1.000  H
  C178     1.0000 0.22760  0.52823  0.92108  Biso   1.000  C
  C179     1.0000 0.20857  0.52080  0.77695  Biso   1.000  C
  C180     1.0000 0.20860  0.52080  0.77688  Biso   1.000  C
  N123     1.0000 0.20672  0.45879  0.73652  Biso   1.000  N
  H180     1.0000 0.22359  0.41207  0.64533  Biso   1.000  H
  H181     1.0000 0.24349  0.48321  0.65673  Biso   1.000  H
  N124     1.0000 0.29326  0.04121  0.26348  Biso   1.000  N
  O63      1.0000 0.35540  0.11336  0.32857  Biso   1.000  O
  C181     1.0000 0.29141  0.97920  0.22305  Biso   1.000  C
  H182     1.0000 0.35893  0.93751  0.21832  Biso   1.000  H
  C182     1.0000 0.27238  0.97177  0.07892  Biso   1.000  C
  N125     1.0000 0.17710  0.51858  0.89037  Biso   1.000  N
  O64      1.0000 0.25124  0.53672  0.99346  Biso   1.000  O
  C183     1.0000 0.15975  0.52258  0.80062  Biso   1.000  C
  C184     1.0000 0.15978  0.52258  0.80062  Biso   1.000  C
  H183     1.0000 0.20997  0.55622  0.73914  Biso   1.000  H
  H184     1.0000 0.20996  0.55622  0.73908  Biso   1.000  H
  C185     1.0000 0.15970  0.43258  0.71727  Biso   1.000  C
  C186     1.0000 0.26076  0.05545  0.31368  Biso   1.000  C
  C187     1.0000 0.26079  0.05545  0.31368  Biso   1.000  C
  N126     1.0000 0.25311  0.97293  0.14482  Biso   1.000  N
  H185     1.0000 0.29001  0.94378  0.26086  Biso   1.000  H
  O65      1.0000 0.24878  0.96328  0.00654  Biso   1.000  O
  C188     1.0000 0.14442  0.53166  0.94020  Biso   1.000  C
  C189     1.0000 0.14446  0.53166  0.94020  Biso   1.000  C
  N127     1.0000 0.13299  0.46670  0.75863  Biso   1.000  N
  H186     1.0000 0.14105  0.56249  0.78168  Biso   1.000  H
  H187     1.0000 0.14109  0.56249  0.78168  Biso   1.000  H
  O66      1.0000 0.14458  0.38664  0.67143  Biso   1.000  O
  N128     1.0000 0.21205  0.07852  0.26423  Biso   1.000  N
  H188     1.0000 0.27640  0.08788  0.35467  Biso   1.000  H
  H189     1.0000 0.25652  0.01679  0.34327  Biso   1.000  H
  C190     1.0000 0.20251  0.95546  0.13840  Biso   1.000  C
  N129     1.0000 0.11481  0.47626  0.94880  Biso   1.000  N
  H190     1.0000 0.16436  0.54560  0.99520  Biso   1.000  H
  H191     1.0000 0.12217  0.56679  0.91498  Biso   1.000  H
  H192     1.0000 0.16440  0.54560  0.99520  Biso   1.000  H
  C191     1.0000 0.08043  0.45628  0.74568  Biso   1.000  C
  C192     1.0000 0.19651  0.13961  0.27077  Biso   1.000  C
  C193     1.0000 0.17130  0.03590  0.22492  Biso   1.000  C
  N130     1.0000 0.17173  0.00960  0.14582  Biso   1.000  N
  H193     1.0000 0.20279  0.92438  0.18157  Biso   1.000  H
  H194     1.0000 0.18761  0.93471  0.08509  Biso   1.000  H
  H195     1.0000 0.20282  0.92438  0.18157  Biso   1.000  H
  C194     1.0000 0.11656  0.45493  0.02672  Biso   1.000  C
  C195     1.0000 0.11659  0.45493  0.02672  Biso   1.000  C
  C196     1.0000 0.06664  0.46337  0.88807  Biso   1.000  C
  N131     1.0000 0.06849  0.42805  0.81588  Biso   1.000  N
  H196     1.0000 0.06776  0.42829  0.69778  Biso   1.000  H
  H197     1.0000 0.06329  0.49730  0.73260  Biso   1.000  H
  H198     1.0000 0.06779  0.42829  0.69778  Biso   1.000  H
  N132     1.0000 0.14667  0.14371  0.23090  Biso   1.000  N
  O67      1.0000 0.22329  0.18439  0.30571  Biso   1.000  O
  C197     1.0000 0.12548  0.08156  0.20125  Biso   1.000  C
  H199     1.0000 0.16762  0.00188  0.26317  Biso   1.000  H
  C198     1.0000 0.13406  0.03330  0.08048  Biso   1.000  C
  N133     1.0000 0.07491  0.41796  0.01894  Biso   1.000  N
  O68      1.0000 0.14867  0.46656  0.09113  Biso   1.000  O
  C199     1.0000 0.04299  0.41410  0.93435  Biso   1.000  C
  H200     1.0000 0.04635  0.50261  0.87318  Biso   1.000  H
  H201     1.0000 0.04639  0.50261  0.87318  Biso   1.000  H
  C200     1.0000 0.05721  0.36425  0.81918  Biso   1.000  C
  C201     1.0000 0.11615  0.19622  0.24554  Biso   1.000  C
  N134     1.0000 0.10732  0.07649  0.11156  Biso   1.000  N
  H202     1.0000 0.10012  0.06838  0.22698  Biso   1.000  H
  O69      1.0000 0.12531  0.01771  0.00779  Biso   1.000  O
  C202     1.0000 0.06183  0.39359  0.08951  Biso   1.000  C
  N135     1.0000 0.04559  0.35378  0.89212  Biso   1.000  N
  H203     1.0000 0.00836  0.42559  0.93011  Biso   1.000  H
  H204     1.0000 0.00840  0.42559  0.93011  Biso   1.000  H
  O70      1.0000 0.05704  0.32396  0.76648  Biso   1.000  O
  H205     1.0000 0.08962  0.17851  0.26491  Biso   1.000  H
  H206     1.0000 0.13660  0.22368  0.28927  Biso   1.000  H
  N136     1.0000 0.09439  0.23473  0.17248  Biso   1.000  N
  C203     1.0000 0.05924  0.10076  0.06241  Biso   1.000  C
  N137     1.0000 0.06933  0.32482  0.10172  Biso   1.000  N
  H207     1.0000 0.08171  0.41569  0.13921  Biso   1.000  H
  H208     1.0000 0.02698  0.40339  0.08247  Biso   1.000  H
  H209     1.0000 0.02702  0.40339  0.08247  Biso   1.000  H
  C204     1.0000 0.01688  0.29761  0.90115  Biso   1.000  C
  C205     1.0000 0.10332  0.29949  0.17142  Biso   1.000  C
  C206     1.0000 0.04980  0.21547  0.10788  Biso   1.000  C
  N138     1.0000 0.05809  0.16948  0.04871  Biso   1.000  N
  H210     1.0000 0.03460  0.08990  0.09032  Biso   1.000  H
  H211     1.0000 0.04969  0.07909  0.00891  Biso   1.000  H
  H212     1.0000 0.03463  0.08990  0.09032  Biso   1.000  H
  H213     1.0000 0.04972  0.07909  0.00891  Biso   1.000  H
  C207     1.0000 0.03446  0.27758  0.05625  Biso   1.000  C
  N139     1.0000 0.04037  0.26050  0.97589  Biso   1.000  N
  H214     1.0000 0.98409  0.31150  0.90239  Biso   1.000  H
  H215     1.0000 0.01226  0.27000  0.85288  Biso   1.000  H
  O71      1.0000 0.13558  0.32960  0.22218  Biso   1.000  O
  H216     1.0000 0.02361  0.20090  0.13130  Biso   1.000  H
  C208     1.0000 0.05056  0.19622  0.97153  Biso   1.000  C
  H217     1.0000 0.99988  0.28979  0.05108  Biso   1.000  H
  H218     1.0000 0.99991  0.28979  0.05108  Biso   1.000  H
  O72      1.0000 0.05290  0.16745  0.90981  Biso   1.000  O
