data_image0
_cell_length_a       13.215
_cell_length_b       22.647
_cell_length_c       20.966
_cell_angle_alpha    90
_cell_angle_beta     100.06
_cell_angle_gamma    90

_symmetry_space_group_name_H-M    "P 1"
_symmetry_int_tables_number       1

loop_
  _symmetry_equiv_pos_as_xyz
  'x, y, z'

loop_
  _atom_site_label
  _atom_site_occupancy
  _atom_site_fract_x
  _atom_site_fract_y
  _atom_site_fract_z
  _atom_site_thermal_displace_type
  _atom_site_B_iso_or_equiv
  _atom_site_type_symbol
  C1       1.0000 0.61501  0.60070  0.62130  Biso   1.000  C
  C2       1.0000 0.56371  0.61152  0.67837  Biso   1.000  C
  H1       1.0000 0.63414  0.63770  0.60459  Biso   1.000  H
  H2       1.0000 0.67539  0.57699  0.63438  Biso   1.000  H
  H3       1.0000 0.56857  0.58030  0.58832  Biso   1.000  H
  O1       1.0000 0.48082  0.64808  0.65914  Biso   1.000  O
  H4       1.0000 0.61155  0.62988  0.71310  Biso   1.000  H
  H5       1.0000 0.54093  0.57438  0.69421  Biso   1.000  H
  C3       1.0000 0.41860  0.66587  0.70167  Biso   1.000  C
  C4       1.0000 0.32429  0.68905  0.67348  Biso   1.000  C
  C5       1.0000 0.44742  0.66335  0.76798  Biso   1.000  C
  C6       1.0000 0.25885  0.70747  0.71451  Biso   1.000  C
  C7       1.0000 0.29392  0.69590  0.60101  Biso   1.000  C
  H6       1.0000 0.51159  0.64821  0.78547  Biso   1.000  H
  C8       1.0000 0.38345  0.68278  0.80911  Biso   1.000  C
  C9       1.0000 0.28685  0.70367  0.78140  Biso   1.000  C
  H7       1.0000 0.19472  0.72270  0.69687  Biso   1.000  H
  C10      1.0000 0.32967  0.75427  0.57766  Biso   1.000  C
  H8       1.0000 0.21974  0.69329  0.58919  Biso   1.000  H
  H9       1.0000 0.32350  0.66388  0.57969  Biso   1.000  H
  C11      1.0000 0.41763  0.68300  0.88168  Biso   1.000  C
  O2       1.0000 0.22283  0.72058  0.82345  Biso   1.000  O
  C12      1.0000 0.42723  0.75948  0.56216  Biso   1.000  C
  C13      1.0000 0.26865  0.80404  0.57209  Biso   1.000  C
  C14      1.0000 0.46853  0.74142  0.90590  Biso   1.000  C
  H10      1.0000 0.46589  0.65099  0.89388  Biso   1.000  H
  H11      1.0000 0.35863  0.67620  0.90250  Biso   1.000  H
  C15      1.0000 0.11542  0.72120  0.79957  Biso   1.000  C
  C16      1.0000 0.46296  0.81287  0.54230  Biso   1.000  C
  H12      1.0000 0.46954  0.72641  0.56521  Biso   1.000  H
  O3       1.0000 0.17236  0.79719  0.58836  Biso   1.000  O
  C17      1.0000 0.30406  0.85693  0.55189  Biso   1.000  C
  C18      1.0000 0.40960  0.78823  0.92149  Biso   1.000  C
  C19      1.0000 0.57417  0.74941  0.91190  Biso   1.000  C
  H13      1.0000 0.09869  0.75401  0.76978  Biso   1.000  H
  H14      1.0000 0.09542  0.68490  0.77627  Biso   1.000  H
  C20      1.0000 0.05977  0.72720  0.85271  Biso   1.000  C
  O4       1.0000 0.55927  0.82042  0.52747  Biso   1.000  O
  C21      1.0000 0.40102  0.86263  0.53639  Biso   1.000  C
  C22      1.0000 0.09686  0.84170  0.56768  Biso   1.000  C
  H15      1.0000 0.26135  0.88979  0.54850  Biso   1.000  H
  C23      1.0000 0.45408  0.84245  0.94140  Biso   1.000  C
  H16      1.0000 0.33910  0.78328  0.91859  Biso   1.000  H
  O5       1.0000 0.62892  0.70199  0.89509  Biso   1.000  O
  C24      1.0000 0.61807  0.80324  0.93297  Biso   1.000  C
  H17      1.0000 0.07038  0.76611  0.87078  Biso   1.000  H
  H18      1.0000 0.08432  0.69841  0.88531  Biso   1.000  H
  H19      1.0000 0.98783  0.72111  0.83721  Biso   1.000  H
  C25      1.0000 0.62872  0.77282  0.53750  Biso   1.000  C
  C26      1.0000 0.43824  0.92136  0.51507  Biso   1.000  C
  H20      1.0000 0.11581  0.87822  0.59098  Biso   1.000  H
  H21      1.0000 0.09237  0.84921  0.52171  Biso   1.000  H
  C27      1.0000 0.99736  0.82042  0.58110  Biso   1.000  C
  O6       1.0000 0.39847  0.89076  0.95589  Biso   1.000  O
  C28      1.0000 0.55991  0.85009  0.94756  Biso   1.000  C
  C29      1.0000 0.73632  0.70910  0.89490  Biso   1.000  C
  H22      1.0000 0.68896  0.80779  0.93729  Biso   1.000  H
  H23      1.0000 0.63521  0.75860  0.58168  Biso   1.000  H
  H24      1.0000 0.60408  0.74058  0.50839  Biso   1.000  H
  C30      1.0000 0.73054  0.79401  0.52481  Biso   1.000  C
  C31      1.0000 0.48945  0.95836  0.57180  Biso   1.000  C
  H25      1.0000 0.38035  0.94299  0.49129  Biso   1.000  H
  H26      1.0000 0.48667  0.91451  0.48611  Biso   1.000  H
  H27      1.0000 0.00142  0.81530  0.62688  Biso   1.000  H
  H28      1.0000 0.94476  0.84881  0.56550  Biso   1.000  H
  H29      1.0000 0.98086  0.78342  0.55949  Biso   1.000  H
  C32      1.0000 0.29129  0.88528  0.95250  Biso   1.000  C
  C33      1.0000 0.60897  0.90864  0.96838  Biso   1.000  C
  H30      1.0000 0.74759  0.74129  0.86651  Biso   1.000  H
  H31      1.0000 0.77253  0.71780  0.93821  Biso   1.000  H
  C34      1.0000 0.77409  0.65240  0.87121  Biso   1.000  C
  H32      1.0000 0.75750  0.82298  0.55659  Biso   1.000  H
  H33      1.0000 0.77735  0.76129  0.52718  Biso   1.000  H
  H34      1.0000 0.72211  0.81132  0.48238  Biso   1.000  H
  C35      1.0000 0.59431  0.95593  0.59248  Biso   1.000  C
  C36      1.0000 0.43393  0.99558  0.60517  Biso   1.000  C
  H35      1.0000 0.25869  0.87579  0.90861  Biso   1.000  H
  H36      1.0000 0.27630  0.85389  0.98088  Biso   1.000  H
  C37      1.0000 0.25148  0.94242  0.97270  Biso   1.000  C
  C38      1.0000 0.61838  0.94745  0.91030  Biso   1.000  C
  H37      1.0000 0.67682  0.90189  0.99367  Biso   1.000  H
  H38      1.0000 0.56806  0.92891  0.99580  Biso   1.000  H
  H39      1.0000 0.73921  0.64490  0.82781  Biso   1.000  H
  H40      1.0000 0.84670  0.65510  0.87160  Biso   1.000  H
  H41      1.0000 0.76060  0.62070  0.89897  Biso   1.000  H
  C39      1.0000 0.64263  0.98799  0.64557  Biso   1.000  C
  H42      1.0000 0.63384  0.93222  0.57020  Biso   1.000  H
  O7       1.0000 0.32903  0.99792  0.58216  Biso   1.000  O
  C40      1.0000 0.48172  0.02694  0.65831  Biso   1.000  C
  H43      1.0000 0.26756  0.97329  0.94470  Biso   1.000  H
  H44      1.0000 0.17826  0.93990  0.96979  Biso   1.000  H
  H45      1.0000 0.28300  0.95099  0.01654  Biso   1.000  H
  C41      1.0000 0.70213  0.94414  0.87940  Biso   1.000  C
  C42      1.0000 0.54101  0.98689  0.88618  Biso   1.000  C
  O8       1.0000 0.74682  0.98636  0.66795  Biso   1.000  O
  C43      1.0000 0.58551  0.02331  0.67977  Biso   1.000  C
  C44      1.0000 0.26850  0.03890  0.60677  Biso   1.000  C
  H46      1.0000 0.44244  0.05122  0.68011  Biso   1.000  H
  O9       1.0000 0.77818  0.90515  0.90561  Biso   1.000  O
  C45      1.0000 0.70781  0.97885  0.82510  Biso   1.000  C
  H47      1.0000 0.48350  0.98949  0.90609  Biso   1.000  H
  C46      1.0000 0.54689  0.02225  0.83338  Biso   1.000  C
  C47      1.0000 0.81205  0.97002  0.62397  Biso   1.000  C
  C48      1.0000 0.63518  0.05489  0.74158  Biso   1.000  C
  C49      1.0000 0.16060  0.03122  0.57567  Biso   1.000  C
  H48      1.0000 0.27495  0.03369  0.65328  Biso   1.000  H
  H49      1.0000 0.29125  0.07851  0.59878  Biso   1.000  H
  C50      1.0000 0.87534  0.90820  0.88729  Biso   1.000  C
  H50      1.0000 0.76428  0.97549  0.80441  Biso   1.000  H
  C51      1.0000 0.62871  0.01872  0.80151  Biso   1.000  C
  O10      1.0000 0.46780  0.06049  0.80795  Biso   1.000  O
  H51      1.0000 0.78706  0.98719  0.58187  Biso   1.000  H
  H52      1.0000 0.81237  0.92741  0.61942  Biso   1.000  H
  C52      1.0000 0.91446  0.99068  0.64809  Biso   1.000  C
  H53      1.0000 0.60115  0.09251  0.74439  Biso   1.000  H
  H54      1.0000 0.70670  0.06270  0.73969  Biso   1.000  H
  H55      1.0000 0.14297  0.99011  0.57567  Biso   1.000  H
  H56      1.0000 0.11705  0.05312  0.59931  Biso   1.000  H
  H57      1.0000 0.15167  0.04539  0.53198  Biso   1.000  H
  H58      1.0000 0.87012  0.89751  0.84200  Biso   1.000  H
  H59      1.0000 0.90222  0.94798  0.89311  Biso   1.000  H
  C53      1.0000 0.94468  0.86660  0.92837  Biso   1.000  C
  C54      1.0000 0.43160  0.09838  0.85208  Biso   1.000  C
  H60      1.0000 0.94349  0.96821  0.68568  Biso   1.000  H
  H61      1.0000 0.95604  0.98591  0.61520  Biso   1.000  H
  H62      1.0000 0.91209  0.03162  0.65948  Biso   1.000  H
  H63      1.0000 0.91691  0.82739  0.92290  Biso   1.000  H
  H64      1.0000 0.95077  0.87800  0.97299  Biso   1.000  H
  H65      1.0000 0.01117  0.86740  0.91597  Biso   1.000  H
  H66      1.0000 0.36888  0.11741  0.83081  Biso   1.000  H
  H67      1.0000 0.41526  0.07542  0.88788  Biso   1.000  H
  C55      1.0000 0.50709  0.14368  0.87707  Biso   1.000  C
  H68      1.0000 0.52339  0.16660  0.84171  Biso   1.000  H
  H69      1.0000 0.47911  0.16898  0.90638  Biso   1.000  H
  H70      1.0000 0.56842  0.12509  0.89960  Biso   1.000  H
  C56      1.0000 0.38486  0.39930  0.37871  Biso   1.000  C
  C57      1.0000 0.43616  0.38848  0.32160  Biso   1.000  C
  H71      1.0000 0.36572  0.36230  0.39538  Biso   1.000  H
  H72      1.0000 0.32447  0.42301  0.36558  Biso   1.000  H
  H73      1.0000 0.43139  0.41970  0.41170  Biso   1.000  H
  O11      1.0000 0.51905  0.35192  0.34083  Biso   1.000  O
  H74      1.0000 0.38841  0.37012  0.28692  Biso   1.000  H
  H75      1.0000 0.45895  0.42562  0.30581  Biso   1.000  H
  C58      1.0000 0.58127  0.33413  0.29830  Biso   1.000  C
  C59      1.0000 0.55245  0.33665  0.23198  Biso   1.000  C
  C60      1.0000 0.67557  0.31095  0.32649  Biso   1.000  C
  C61      1.0000 0.61651  0.31722  0.19091  Biso   1.000  C
  H76      1.0000 0.48828  0.35179  0.21450  Biso   1.000  H
  C62      1.0000 0.74110  0.29253  0.28551  Biso   1.000  C
  C63      1.0000 0.70596  0.30410  0.39901  Biso   1.000  C
  C64      1.0000 0.58231  0.31700  0.11829  Biso   1.000  C
  C65      1.0000 0.71310  0.29633  0.21861  Biso   1.000  C
  H77      1.0000 0.80515  0.27730  0.30310  Biso   1.000  H
  C66      1.0000 0.67027  0.24573  0.42231  Biso   1.000  C
  H78      1.0000 0.78013  0.30671  0.41078  Biso   1.000  H
  H79      1.0000 0.67637  0.33612  0.42027  Biso   1.000  H
  C67      1.0000 0.53142  0.25858  0.09412  Biso   1.000  C
  H80      1.0000 0.53398  0.34901  0.10609  Biso   1.000  H
  H81      1.0000 0.64133  0.32380  0.09751  Biso   1.000  H
  O12      1.0000 0.77711  0.27942  0.17652  Biso   1.000  O
  C68      1.0000 0.57264  0.24052  0.43781  Biso   1.000  C
  C69      1.0000 0.73122  0.19596  0.42788  Biso   1.000  C
  C70      1.0000 0.42571  0.25059  0.08811  Biso   1.000  C
  C71      1.0000 0.59028  0.21177  0.07852  Biso   1.000  C
  C72      1.0000 0.88444  0.27880  0.20040  Biso   1.000  C
  C73      1.0000 0.53698  0.18713  0.45767  Biso   1.000  C
  H82      1.0000 0.53034  0.27359  0.43481  Biso   1.000  H
  O13      1.0000 0.82758  0.20281  0.41160  Biso   1.000  O
  C74      1.0000 0.69588  0.14307  0.44808  Biso   1.000  C
  O14      1.0000 0.37102  0.29801  0.10487  Biso   1.000  O
  C75      1.0000 0.38179  0.19676  0.06699  Biso   1.000  C
  C76      1.0000 0.54579  0.15755  0.05861  Biso   1.000  C
  H83      1.0000 0.66077  0.21672  0.08138  Biso   1.000  H
  H84      1.0000 0.90118  0.24599  0.23019  Biso   1.000  H
  H85      1.0000 0.90445  0.31510  0.22370  Biso   1.000  H
  C77      1.0000 0.94011  0.27280  0.14731  Biso   1.000  C
  O15      1.0000 0.44067  0.17958  0.47249  Biso   1.000  O
  C78      1.0000 0.59885  0.13737  0.46358  Biso   1.000  C
  C79      1.0000 0.90308  0.15830  0.43229  Biso   1.000  C
  H86      1.0000 0.73851  0.11021  0.45147  Biso   1.000  H
  C80      1.0000 0.26356  0.29090  0.10512  Biso   1.000  C
  H87      1.0000 0.31090  0.19221  0.06268  Biso   1.000  H
  C81      1.0000 0.43996  0.14991  0.05246  Biso   1.000  C
  O16      1.0000 0.60140  0.10924  0.04408  Biso   1.000  O
  H88      1.0000 0.92949  0.23389  0.12919  Biso   1.000  H
  H89      1.0000 0.91556  0.30159  0.11471  Biso   1.000  H
  H90      1.0000 0.01205  0.27889  0.16281  Biso   1.000  H
  C82      1.0000 0.37116  0.22718  0.46251  Biso   1.000  C
  C83      1.0000 0.56162  0.07864  0.48489  Biso   1.000  C
  H91      1.0000 0.88406  0.12178  0.40899  Biso   1.000  H
  H92      1.0000 0.90758  0.15079  0.47831  Biso   1.000  H
  C84      1.0000 0.00259  0.17958  0.41892  Biso   1.000  C
  H93      1.0000 0.25228  0.25871  0.13350  Biso   1.000  H
  H94      1.0000 0.22742  0.28220  0.06181  Biso   1.000  H
  C85      1.0000 0.22578  0.34760  0.12880  Biso   1.000  C
  C86      1.0000 0.39089  0.09136  0.03158  Biso   1.000  C
  C87      1.0000 0.70859  0.11472  0.04752  Biso   1.000  C
  H95      1.0000 0.36465  0.24140  0.41829  Biso   1.000  H
  H96      1.0000 0.39586  0.25942  0.49158  Biso   1.000  H
  C88      1.0000 0.26934  0.20599  0.47521  Biso   1.000  C
  C89      1.0000 0.51043  0.04164  0.42822  Biso   1.000  C
  H97      1.0000 0.61952  0.05701  0.50868  Biso   1.000  H
  H98      1.0000 0.51321  0.08549  0.51391  Biso   1.000  H
  H99      1.0000 0.99844  0.18470  0.37309  Biso   1.000  H
  H100     1.0000 0.05519  0.15119  0.43452  Biso   1.000  H
  H101     1.0000 0.01908  0.21658  0.44047  Biso   1.000  H
  H102     1.0000 0.26066  0.35510  0.17221  Biso   1.000  H
  H103     1.0000 0.15318  0.34490  0.12842  Biso   1.000  H
  H104     1.0000 0.23927  0.37930  0.10100  Biso   1.000  H
  C90      1.0000 0.38150  0.05255  0.08971  Biso   1.000  C
  H105     1.0000 0.32312  0.09811  0.00630  Biso   1.000  H
  H106     1.0000 0.43181  0.07109  0.00421  Biso   1.000  H
  H107     1.0000 0.74119  0.12421  0.09141  Biso   1.000  H
  H108     1.0000 0.72356  0.14611  0.01909  Biso   1.000  H
  C91      1.0000 0.74840  0.05758  0.02732  Biso   1.000  C
  H109     1.0000 0.24236  0.17702  0.44338  Biso   1.000  H
  H110     1.0000 0.22251  0.23871  0.47278  Biso   1.000  H
  H111     1.0000 0.27776  0.18868  0.51759  Biso   1.000  H
  C92      1.0000 0.40555  0.04407  0.40749  Biso   1.000  C
  C93      1.0000 0.56594  0.00442  0.39479  Biso   1.000  C
  C94      1.0000 0.29782  0.05586  0.12062  Biso   1.000  C
  C95      1.0000 0.45885  0.01311  0.11379  Biso   1.000  C
  H112     1.0000 0.73232  0.02671  0.05532  Biso   1.000  H
  H113     1.0000 0.82161  0.06010  0.03018  Biso   1.000  H
  H114     1.0000 0.71688  0.04901  0.98348  Biso   1.000  H
  C96      1.0000 0.35724  0.01201  0.35439  Biso   1.000  C
  H115     1.0000 0.36603  0.06778  0.42982  Biso   1.000  H
  C97      1.0000 0.51816  0.97306  0.34170  Biso   1.000  C
  O17      1.0000 0.67084  0.00208  0.41780  Biso   1.000  O
  O18      1.0000 0.22170  0.09485  0.09441  Biso   1.000  O
  C98      1.0000 0.29206  0.02115  0.17492  Biso   1.000  C
  H116     1.0000 0.51637  0.01051  0.09388  Biso   1.000  H
  C99      1.0000 0.45298  0.97775  0.16659  Biso   1.000  C
  C100     1.0000 0.41435  0.97669  0.32020  Biso   1.000  C
  O19      1.0000 0.25306  0.01364  0.33206  Biso   1.000  O
  H117     1.0000 0.55744  0.94878  0.31990  Biso   1.000  H
  C101     1.0000 0.73137  0.96110  0.39320  Biso   1.000  C
  C102     1.0000 0.12462  0.09180  0.11272  Biso   1.000  C
  H118     1.0000 0.23559  0.02451  0.19560  Biso   1.000  H
  C103     1.0000 0.37117  0.98128  0.19851  Biso   1.000  C
  O20      1.0000 0.53208  0.93951  0.19207  Biso   1.000  O
  C104     1.0000 0.36468  0.94511  0.25838  Biso   1.000  C
  C105     1.0000 0.18790  0.02998  0.37600  Biso   1.000  C
  C106     1.0000 0.83927  0.96878  0.42430  Biso   1.000  C
  H119     1.0000 0.72499  0.96631  0.34669  Biso   1.000  H
  H120     1.0000 0.70869  0.92149  0.40119  Biso   1.000  H
  H121     1.0000 0.12975  0.10249  0.15801  Biso   1.000  H
  H122     1.0000 0.09766  0.05202  0.10691  Biso   1.000  H
  C107     1.0000 0.05518  0.13340  0.07160  Biso   1.000  C
  C108     1.0000 0.56827  0.90162  0.14789  Biso   1.000  C
  H123     1.0000 0.39879  0.90749  0.25557  Biso   1.000  H
  H124     1.0000 0.29317  0.93730  0.26027  Biso   1.000  H
  H125     1.0000 0.21288  0.01281  0.41809  Biso   1.000  H
  H126     1.0000 0.18758  0.07259  0.38060  Biso   1.000  H
  C109     1.0000 0.08548  0.00932  0.35188  Biso   1.000  C
  H127     1.0000 0.85697  0.00989  0.42430  Biso   1.000  H
  H128     1.0000 0.88282  0.94688  0.40070  Biso   1.000  H
  H129     1.0000 0.84827  0.95461  0.46799  Biso   1.000  H
  H130     1.0000 0.08297  0.17261  0.07712  Biso   1.000  H
  H131     1.0000 0.04910  0.12200  0.02698  Biso   1.000  H
  H132     1.0000 0.98870  0.13260  0.08400  Biso   1.000  H
  H133     1.0000 0.63100  0.88259  0.16920  Biso   1.000  H
  H134     1.0000 0.58460  0.92458  0.11209  Biso   1.000  H
  C110     1.0000 0.49278  0.85632  0.12289  Biso   1.000  C
  H135     1.0000 0.05638  0.03179  0.31429  Biso   1.000  H
  H136     1.0000 0.04384  0.01409  0.38482  Biso   1.000  H
  H137     1.0000 0.08778  0.96838  0.34049  Biso   1.000  H
  H138     1.0000 0.47649  0.83340  0.15831  Biso   1.000  H
  H139     1.0000 0.52075  0.83102  0.09359  Biso   1.000  H
  H140     1.0000 0.43146  0.87491  0.10042  Biso   1.000  H
  C111     1.0000 0.75158  0.55760  0.47269  Biso   1.000  C
  C112     1.0000 0.79131  0.61470  0.45249  Biso   1.000  C
  H141     1.0000 0.76766  0.52669  0.44469  Biso   1.000  H
  H142     1.0000 0.67836  0.56012  0.46978  Biso   1.000  H
  H143     1.0000 0.78294  0.54899  0.51648  Biso   1.000  H
  O21      1.0000 0.89858  0.60926  0.45593  Biso   1.000  O
  H144     1.0000 0.75879  0.62419  0.40860  Biso   1.000  H
  H145     1.0000 0.77632  0.64609  0.48087  Biso   1.000  H
  C113     1.0000 0.95418  0.65757  0.44139  Biso   1.000  C
  C114     1.0000 0.05994  0.64993  0.44755  Biso   1.000  C
  C115     1.0000 0.90962  0.71179  0.42149  Biso   1.000  C
  C116     1.0000 0.10908  0.59138  0.46842  Biso   1.000  C
  C117     1.0000 0.11819  0.69674  0.43301  Biso   1.000  C
  C118     1.0000 0.96856  0.75856  0.40589  Biso   1.000  C
  H146     1.0000 0.83912  0.71670  0.41858  Biso   1.000  H
  C119     1.0000 0.11847  0.55252  0.41030  Biso   1.000  C
  H147     1.0000 0.17685  0.59809  0.49371  Biso   1.000  H
  H148     1.0000 0.06816  0.57111  0.49579  Biso   1.000  H
  H149     1.0000 0.18906  0.69219  0.43728  Biso   1.000  H
  C120     1.0000 0.07427  0.75061  0.41189  Biso   1.000  C
  C121     1.0000 0.91767  0.81702  0.38172  Biso   1.000  C
  C122     1.0000 0.04104  0.51314  0.38617  Biso   1.000  C
  C123     1.0000 0.20215  0.55588  0.37939  Biso   1.000  C
  O22      1.0000 0.12895  0.79799  0.39513  Biso   1.000  O
  C124     1.0000 0.88347  0.81724  0.30910  Biso   1.000  C
  H150     1.0000 0.96599  0.84899  0.39387  Biso   1.000  H
  H151     1.0000 0.85865  0.82382  0.40250  Biso   1.000  H
  C125     1.0000 0.04700  0.47772  0.33342  Biso   1.000  C
  H152     1.0000 0.98352  0.51049  0.40608  Biso   1.000  H
  C126     1.0000 0.20784  0.52117  0.32509  Biso   1.000  C
  O23      1.0000 0.27828  0.59482  0.40560  Biso   1.000  O
  C127     1.0000 0.23634  0.79092  0.39489  Biso   1.000  C
  C128     1.0000 0.94744  0.83667  0.26798  Biso   1.000  C
  C129     1.0000 0.78688  0.79631  0.28139  Biso   1.000  C
  C130     1.0000 0.12873  0.48130  0.30150  Biso   1.000  C
  O24      1.0000 0.96790  0.43953  0.30794  Biso   1.000  O
  H153     1.0000 0.26438  0.52448  0.30440  Biso   1.000  H
  C131     1.0000 0.37536  0.59178  0.38729  Biso   1.000  C
  H154     1.0000 0.24769  0.75869  0.36650  Biso   1.000  H
  H155     1.0000 0.27256  0.78218  0.43820  Biso   1.000  H
  C132     1.0000 0.27419  0.84762  0.37120  Biso   1.000  C
  C133     1.0000 0.91871  0.83411  0.20171  Biso   1.000  C
  H156     1.0000 0.01170  0.85181  0.28551  Biso   1.000  H
  C134     1.0000 0.75888  0.79256  0.21450  Biso   1.000  C
  O25      1.0000 0.72287  0.77944  0.32349  Biso   1.000  O
  C135     1.0000 0.13528  0.44514  0.24158  Biso   1.000  C
  C136     1.0000 0.93164  0.40160  0.35212  Biso   1.000  C
  H157     1.0000 0.37015  0.60251  0.34199  Biso   1.000  H
  H158     1.0000 0.40224  0.55199  0.39310  Biso   1.000  H
  C137     1.0000 0.44472  0.63342  0.42841  Biso   1.000  C
  H159     1.0000 0.23924  0.85508  0.32780  Biso   1.000  H
  H160     1.0000 0.34679  0.84488  0.37159  Biso   1.000  H
  H161     1.0000 0.26064  0.87932  0.39901  Biso   1.000  H
  C138     1.0000 0.82440  0.81092  0.17352  Biso   1.000  C
  O26      1.0000 0.98091  0.85195  0.15913  Biso   1.000  O
  H162     1.0000 0.69475  0.77732  0.19691  Biso   1.000  H
  C139     1.0000 0.61546  0.77878  0.29961  Biso   1.000  C
  C140     1.0000 0.08555  0.47671  0.17981  Biso   1.000  C
  H163     1.0000 0.10117  0.40752  0.24439  Biso   1.000  H
  H164     1.0000 0.20680  0.43732  0.23969  Biso   1.000  H
  H165     1.0000 0.86898  0.38261  0.33080  Biso   1.000  H
  H166     1.0000 0.91537  0.42460  0.38792  Biso   1.000  H
  C141     1.0000 0.00720  0.35629  0.37711  Biso   1.000  C
  H167     1.0000 0.41693  0.67258  0.42289  Biso   1.000  H
  H168     1.0000 0.51128  0.63258  0.41601  Biso   1.000  H
  H169     1.0000 0.45087  0.62198  0.47298  Biso   1.000  H
  C142     1.0000 0.79401  0.80408  0.10100  Biso   1.000  C
  C143     1.0000 0.06382  0.88851  0.17841  Biso   1.000  C
  H170     1.0000 0.59880  0.74601  0.26982  Biso   1.000  H
  H171     1.0000 0.59545  0.81512  0.27631  Biso   1.000  H
  C144     1.0000 0.55987  0.77282  0.35270  Biso   1.000  C
  C145     1.0000 0.98182  0.47309  0.15831  Biso   1.000  C
  C146     1.0000 0.14266  0.51199  0.14561  Biso   1.000  C
  H172     1.0000 0.97913  0.33099  0.40637  Biso   1.000  H
  H173     1.0000 0.02349  0.33342  0.34170  Biso   1.000  H
  H174     1.0000 0.06844  0.37488  0.39959  Biso   1.000  H
  C147     1.0000 0.82969  0.74575  0.07765  Biso   1.000  C
  H175     1.0000 0.71976  0.80669  0.08918  Biso   1.000  H
  H176     1.0000 0.82360  0.83609  0.07969  Biso   1.000  H
  H177     1.0000 0.11157  0.87009  0.21309  Biso   1.000  H
  H178     1.0000 0.04096  0.92560  0.19420  Biso   1.000  H
  C148     1.0000 0.11511  0.89928  0.12130  Biso   1.000  C
  H179     1.0000 0.57049  0.73392  0.37082  Biso   1.000  H
  H180     1.0000 0.48785  0.77891  0.33720  Biso   1.000  H
  H181     1.0000 0.58434  0.80161  0.38530  Biso   1.000  H
  C149     1.0000 0.93396  0.50439  0.10521  Biso   1.000  C
  H182     1.0000 0.94246  0.44880  0.18010  Biso   1.000  H
  C150     1.0000 0.09443  0.54409  0.09252  Biso   1.000  C
  O27      1.0000 0.24685  0.51362  0.16795  Biso   1.000  O
  C151     1.0000 0.92726  0.74054  0.06220  Biso   1.000  C
  C152     1.0000 0.76867  0.69594  0.07208  Biso   1.000  C
  H183     1.0000 0.13417  0.86232  0.10458  Biso   1.000  H
  H184     1.0000 0.17549  0.92299  0.13438  Biso   1.000  H
  H185     1.0000 0.06859  0.91968  0.08831  Biso   1.000  H
  O28      1.0000 0.82906  0.50205  0.08220  Biso   1.000  O
  C153     1.0000 0.98948  0.54166  0.07179  Biso   1.000  C
  H186     1.0000 0.13387  0.56780  0.07019  Biso   1.000  H
  C154     1.0000 0.31208  0.53000  0.12401  Biso   1.000  C
  C155     1.0000 0.96299  0.68711  0.04229  Biso   1.000  C
  H187     1.0000 0.96956  0.77361  0.06520  Biso   1.000  H
  C156     1.0000 0.80409  0.64309  0.05188  Biso   1.000  C
  O29      1.0000 0.67239  0.70279  0.08836  Biso   1.000  O
  C157     1.0000 0.76861  0.46112  0.10681  Biso   1.000  C
  C158     1.0000 0.93828  0.57862  0.01511  Biso   1.000  C
  H188     1.0000 0.28710  0.51278  0.08191  Biso   1.000  H
  H189     1.0000 0.31240  0.57261  0.11941  Biso   1.000  H
  C159     1.0000 0.41448  0.50929  0.14808  Biso   1.000  C
  C160     1.0000 0.90111  0.63739  0.03638  Biso   1.000  C
  O30      1.0000 0.05930  0.67956  0.02747  Biso   1.000  O
  H190     1.0000 0.76138  0.61019  0.04849  Biso   1.000  H
  C161     1.0000 0.59690  0.65832  0.06772  Biso   1.000  C
  C162     1.0000 0.66071  0.46880  0.07571  Biso   1.000  C
  H191     1.0000 0.77499  0.46629  0.15332  Biso   1.000  H
  H192     1.0000 0.79129  0.42151  0.09882  Biso   1.000  H
  H193     1.0000 0.88029  0.55698  0.99128  Biso   1.000  H
  H194     1.0000 0.98652  0.58551  0.98605  Biso   1.000  H
  H195     1.0000 0.44359  0.53181  0.18567  Biso   1.000  H
  H196     1.0000 0.45606  0.51411  0.11519  Biso   1.000  H
  H197     1.0000 0.41220  0.46841  0.15952  Biso   1.000  H
  C163     1.0000 0.12882  0.72720  0.03749  Biso   1.000  C
  H198     1.0000 0.61592  0.62180  0.09102  Biso   1.000  H
  H199     1.0000 0.59239  0.65081  0.02170  Biso   1.000  H
  C164     1.0000 0.49739  0.67960  0.08109  Biso   1.000  C
  H200     1.0000 0.64300  0.50991  0.07571  Biso   1.000  H
  H201     1.0000 0.61708  0.44690  0.09930  Biso   1.000  H
  H202     1.0000 0.65170  0.45459  0.03202  Biso   1.000  H
  H203     1.0000 0.13532  0.74138  0.08172  Biso   1.000  H
  H204     1.0000 0.10410  0.75939  0.00838  Biso   1.000  H
  C165     1.0000 0.23063  0.70601  0.02480  Biso   1.000  C
  H205     1.0000 0.50146  0.68468  0.12692  Biso   1.000  H
  H206     1.0000 0.44479  0.65121  0.06549  Biso   1.000  H
  H207     1.0000 0.48088  0.71661  0.05949  Biso   1.000  H
  H208     1.0000 0.22205  0.68870  0.98237  Biso   1.000  H
  H209     1.0000 0.25760  0.67700  0.05658  Biso   1.000  H
  H210     1.0000 0.27739  0.73869  0.02722  Biso   1.000  H
  C166     1.0000 0.24836  0.44240  0.52728  Biso   1.000  C
  C167     1.0000 0.20855  0.38530  0.54748  Biso   1.000  C
  H211     1.0000 0.23221  0.47331  0.55528  Biso   1.000  H
  H212     1.0000 0.32151  0.43988  0.53019  Biso   1.000  H
  H213     1.0000 0.21693  0.45101  0.48349  Biso   1.000  H
  O31      1.0000 0.10137  0.39074  0.54409  Biso   1.000  O
  H214     1.0000 0.24116  0.37581  0.59142  Biso   1.000  H
  H215     1.0000 0.22354  0.35391  0.51909  Biso   1.000  H
  C168     1.0000 0.04576  0.34243  0.55857  Biso   1.000  C
  C169     1.0000 0.09025  0.28821  0.57848  Biso   1.000  C
  C170     1.0000 0.93993  0.35007  0.55242  Biso   1.000  C
  C171     1.0000 0.03131  0.24144  0.59408  Biso   1.000  C
  H216     1.0000 0.16074  0.28330  0.58139  Biso   1.000  H
  C172     1.0000 0.88177  0.30326  0.56700  Biso   1.000  C
  C173     1.0000 0.89087  0.40862  0.53159  Biso   1.000  C
  C174     1.0000 0.08221  0.18298  0.61830  Biso   1.000  C
  C175     1.0000 0.92559  0.24939  0.58807  Biso   1.000  C
  H217     1.0000 0.81080  0.30781  0.56269  Biso   1.000  H
  C176     1.0000 0.88139  0.44748  0.58967  Biso   1.000  C
  H218     1.0000 0.82302  0.40191  0.50631  Biso   1.000  H
  H219     1.0000 0.93170  0.42889  0.50417  Biso   1.000  H
  C177     1.0000 0.11641  0.18276  0.69091  Biso   1.000  C
  H220     1.0000 0.03396  0.15101  0.60609  Biso   1.000  H
  H221     1.0000 0.14121  0.17618  0.59747  Biso   1.000  H
  O32      1.0000 0.87093  0.20201  0.60488  Biso   1.000  O
  C178     1.0000 0.79771  0.44412  0.62058  Biso   1.000  C
  C179     1.0000 0.95883  0.48686  0.61380  Biso   1.000  C
  C180     1.0000 0.21299  0.20369  0.71857  Biso   1.000  C
  C181     1.0000 0.05242  0.16333  0.73199  Biso   1.000  C
  C182     1.0000 0.76353  0.20908  0.60508  Biso   1.000  C
  O33      1.0000 0.72166  0.40518  0.59437  Biso   1.000  O
  C183     1.0000 0.79203  0.47883  0.67488  Biso   1.000  C
  H222     1.0000 0.01635  0.48951  0.59389  Biso   1.000  H
  C184     1.0000 0.95295  0.52228  0.66660  Biso   1.000  C
  O34      1.0000 0.27701  0.22056  0.67653  Biso   1.000  O
  C185     1.0000 0.24099  0.20744  0.78547  Biso   1.000  C
  C186     1.0000 0.08125  0.16589  0.79831  Biso   1.000  C
  H223     1.0000 0.98825  0.14819  0.71451  Biso   1.000  H
  H224     1.0000 0.75226  0.24131  0.63351  Biso   1.000  H
  H225     1.0000 0.72731  0.21782  0.56177  Biso   1.000  H
  C187     1.0000 0.72576  0.15238  0.62881  Biso   1.000  C
  C188     1.0000 0.62451  0.40822  0.61268  Biso   1.000  C
  C189     1.0000 0.87113  0.51870  0.69847  Biso   1.000  C
  H226     1.0000 0.73549  0.47552  0.69561  Biso   1.000  H
  O35      1.0000 0.03204  0.56047  0.69203  Biso   1.000  O
  C190     1.0000 0.38442  0.22122  0.70041  Biso   1.000  C
  C191     1.0000 0.17548  0.18908  0.82650  Biso   1.000  C
  H227     1.0000 0.30513  0.22268  0.80310  Biso   1.000  H
  O36      1.0000 0.01903  0.14805  0.84084  Biso   1.000  O
  H228     1.0000 0.76063  0.14492  0.67217  Biso   1.000  H
  H229     1.0000 0.65315  0.15512  0.62838  Biso   1.000  H
  H230     1.0000 0.73924  0.12068  0.60101  Biso   1.000  H
  H231     1.0000 0.62972  0.39749  0.65797  Biso   1.000  H
  H232     1.0000 0.59762  0.44801  0.60687  Biso   1.000  H
  C192     1.0000 0.55516  0.36658  0.57160  Biso   1.000  C
  C193     1.0000 0.86458  0.55486  0.75839  Biso   1.000  C
  C194     1.0000 0.06824  0.59840  0.64790  Biso   1.000  C
  H233     1.0000 0.40115  0.25399  0.73020  Biso   1.000  H
  H234     1.0000 0.40442  0.18488  0.72371  Biso   1.000  H
  C195     1.0000 0.43999  0.22718  0.64727  Biso   1.000  C
  C196     1.0000 0.20593  0.19592  0.89897  Biso   1.000  C
  C197     1.0000 0.93613  0.11149  0.82161  Biso   1.000  C
  H235     1.0000 0.58293  0.32742  0.57708  Biso   1.000  H
  H236     1.0000 0.48867  0.36742  0.58401  Biso   1.000  H
  H237     1.0000 0.54907  0.37802  0.52699  Biso   1.000  H
  C198     1.0000 0.91433  0.52329  0.82020  Biso   1.000  C
  H238     1.0000 0.89869  0.59248  0.75558  Biso   1.000  H
  H239     1.0000 0.79314  0.56268  0.76028  Biso   1.000  H
  H240     1.0000 0.13090  0.61739  0.66921  Biso   1.000  H
  H241     1.0000 0.08450  0.57540  0.61210  Biso   1.000  H
  C199     1.0000 0.99276  0.64371  0.62290  Biso   1.000  C
  H242     1.0000 0.42946  0.26608  0.62920  Biso   1.000  H
  H243     1.0000 0.51202  0.22109  0.66277  Biso   1.000  H
  H244     1.0000 0.41552  0.19839  0.61467  Biso   1.000  H
  C200     1.0000 0.17017  0.25425  0.92232  Biso   1.000  C
  H245     1.0000 0.28011  0.19331  0.91079  Biso   1.000  H
  H246     1.0000 0.17627  0.16391  0.92028  Biso   1.000  H
  H247     1.0000 0.88829  0.12991  0.78688  Biso   1.000  H
  H248     1.0000 0.95891  0.07440  0.80577  Biso   1.000  H
  C201     1.0000 0.88483  0.10072  0.87867  Biso   1.000  C
  C202     1.0000 0.01813  0.52691  0.84171  Biso   1.000  C
  C203     1.0000 0.85722  0.48801  0.85440  Biso   1.000  C
  H249     1.0000 0.02073  0.66901  0.59360  Biso   1.000  H
  H250     1.0000 0.97646  0.66658  0.65831  Biso   1.000  H
  H251     1.0000 0.93143  0.62512  0.60038  Biso   1.000  H
  C204     1.0000 0.07261  0.25946  0.93782  Biso   1.000  C
  C205     1.0000 0.23119  0.30406  0.92789  Biso   1.000  C
  H252     1.0000 0.86570  0.13768  0.89538  Biso   1.000  H
  H253     1.0000 0.82437  0.07701  0.86559  Biso   1.000  H
  H254     1.0000 0.93129  0.08032  0.91171  Biso   1.000  H
  C206     1.0000 0.06591  0.49561  0.89480  Biso   1.000  C
  H255     1.0000 0.05742  0.55120  0.81991  Biso   1.000  H
  O37      1.0000 0.75302  0.48638  0.83202  Biso   1.000  O
  C207     1.0000 0.90553  0.45591  0.90749  Biso   1.000  C
  C208     1.0000 0.03688  0.31289  0.95768  Biso   1.000  C
  H256     1.0000 0.03030  0.22639  0.93477  Biso   1.000  H
  O38      1.0000 0.32748  0.29721  0.91161  Biso   1.000  O
  C209     1.0000 0.19578  0.35691  0.94809  Biso   1.000  C
  O39      1.0000 0.17082  0.49795  0.91781  Biso   1.000  O
  C210     1.0000 0.01039  0.45834  0.92818  Biso   1.000  C
  C211     1.0000 0.68780  0.47000  0.87601  Biso   1.000  C
  H257     1.0000 0.86600  0.43220  0.92978  Biso   1.000  H
  C212     1.0000 0.09883  0.36261  0.96359  Biso   1.000  C
  O40      1.0000 0.94057  0.32044  0.97250  Biso   1.000  O
  C213     1.0000 0.40298  0.34168  0.93230  Biso   1.000  C
  H258     1.0000 0.23849  0.38981  0.95148  Biso   1.000  H
  C214     1.0000 0.23127  0.53888  0.89320  Biso   1.000  C
  C215     1.0000 0.06160  0.42138  0.98490  Biso   1.000  C
  H259     1.0000 0.71278  0.48722  0.91810  Biso   1.000  H
  H260     1.0000 0.68748  0.42739  0.88061  Biso   1.000  H
  C216     1.0000 0.58539  0.49071  0.85188  Biso   1.000  C
  C217     1.0000 0.87112  0.27280  0.96247  Biso   1.000  C
  H261     1.0000 0.38404  0.37820  0.90900  Biso   1.000  H
  H262     1.0000 0.40747  0.34919  0.97827  Biso   1.000  H
  C218     1.0000 0.50248  0.32040  0.91888  Biso   1.000  C
  C219     1.0000 0.33917  0.53120  0.92430  Biso   1.000  C
  H263     1.0000 0.22489  0.53371  0.84670  Biso   1.000  H
  H264     1.0000 0.20859  0.57849  0.90120  Biso   1.000  H
  H265     1.0000 0.11966  0.44302  0.00874  Biso   1.000  H
  H266     1.0000 0.01334  0.41449  0.01392  Biso   1.000  H
  H267     1.0000 0.55628  0.46819  0.81429  Biso   1.000  H
  H268     1.0000 0.54380  0.48589  0.88478  Biso   1.000  H
  H269     1.0000 0.58768  0.53159  0.84050  Biso   1.000  H
  H270     1.0000 0.86463  0.25862  0.91830  Biso   1.000  H
  H271     1.0000 0.89576  0.24061  0.99159  Biso   1.000  H
  C220     1.0000 0.76931  0.29399  0.97517  Biso   1.000  C
  H272     1.0000 0.49842  0.31532  0.87310  Biso   1.000  H
  H273     1.0000 0.55508  0.34879  0.93448  Biso   1.000  H
  H274     1.0000 0.51898  0.28339  0.94048  Biso   1.000  H
  H275     1.0000 0.35687  0.49009  0.92430  Biso   1.000  H
  H276     1.0000 0.38280  0.55310  0.90071  Biso   1.000  H
  H277     1.0000 0.34817  0.54541  0.96800  Biso   1.000  H
  H278     1.0000 0.74226  0.32300  0.94339  Biso   1.000  H
  H279     1.0000 0.72249  0.26131  0.97279  Biso   1.000  H
  H280     1.0000 0.77781  0.31130  0.01760  Biso   1.000  H
