data_image0
_cell_length_a       13.313
_cell_length_b       25.607
_cell_length_c       15.728
_cell_angle_alpha    90
_cell_angle_beta     100.02
_cell_angle_gamma    90

_symmetry_space_group_name_H-M    "P 1"
_symmetry_int_tables_number       1

loop_
  _symmetry_equiv_pos_as_xyz
  'x, y, z'

loop_
  _atom_site_label
  _atom_site_occupancy
  _atom_site_fract_x
  _atom_site_fract_y
  _atom_site_fract_z
  _atom_site_thermal_displace_type
  _atom_site_B_iso_or_equiv
  _atom_site_type_symbol
  C1       1.0000 0.11292  0.17487  0.56979  Biso   1.000  C
  C2       1.0000 0.14876  0.22150  0.52124  Biso   1.000  C
  H1       1.0000 0.07078  0.18729  0.61002  Biso   1.000  H
  H2       1.0000 0.17184  0.15671  0.60136  Biso   1.000  H
  H3       1.0000 0.07377  0.15109  0.52879  Biso   1.000  H
  C3       1.0000 0.21798  0.20205  0.46081  Biso   1.000  C
  C4       1.0000 0.21077  0.25856  0.58903  Biso   1.000  C
  C5       1.0000 0.05485  0.24997  0.47475  Biso   1.000  C
  N1       1.0000 0.27404  0.23537  0.41851  Biso   1.000  N
  C6       1.0000 0.24615  0.15258  0.44253  Biso   1.000  C
  H4       1.0000 0.23112  0.28930  0.56017  Biso   1.000  H
  H5       1.0000 0.27082  0.24048  0.61847  Biso   1.000  H
  H6       1.0000 0.16877  0.26899  0.63068  Biso   1.000  H
  N2       1.0000 0.06038  0.29523  0.42859  Biso   1.000  N
  C7       1.0000 0.95399  0.24099  0.47520  Biso   1.000  C
  C8       1.0000 0.33799  0.20764  0.37551  Biso   1.000  C
  H7       1.0000 0.26955  0.26930  0.41897  Biso   1.000  H
  C9       1.0000 0.32089  0.15586  0.38991  Biso   1.000  C
  H8       1.0000 0.21986  0.12149  0.46190  Biso   1.000  H
  H9       1.0000 0.11658  0.30910  0.41806  Biso   1.000  H
  C10      1.0000 0.96427  0.31530  0.40134  Biso   1.000  C
  H10      1.0000 0.92677  0.21248  0.50142  Biso   1.000  H
  C11      1.0000 0.89724  0.28215  0.42897  Biso   1.000  C
  C12      1.0000 0.40706  0.23447  0.32167  Biso   1.000  C
  H11      1.0000 0.35348  0.12750  0.36828  Biso   1.000  H
  C13      1.0000 0.94838  0.36724  0.35401  Biso   1.000  C
  H12      1.0000 0.82594  0.28578  0.41942  Biso   1.000  H
  C14      1.0000 0.34378  0.25317  0.23709  Biso   1.000  C
  C15      1.0000 0.48706  0.19499  0.30120  Biso   1.000  C
  C16      1.0000 0.46588  0.28070  0.37099  Biso   1.000  C
  C17      1.0000 0.97348  0.36123  0.26382  Biso   1.000  C
  C18      1.0000 0.01431  0.41028  0.40580  Biso   1.000  C
  C19      1.0000 0.83580  0.38337  0.34607  Biso   1.000  C
  C20      1.0000 0.33569  0.23505  0.15496  Biso   1.000  C
  N3       1.0000 0.28220  0.29629  0.23386  Biso   1.000  N
  H13      1.0000 0.52726  0.18241  0.35459  Biso   1.000  H
  H14      1.0000 0.53154  0.21190  0.26691  Biso   1.000  H
  H15      1.0000 0.45275  0.16581  0.26911  Biso   1.000  H
  C21      1.0000 0.49419  0.32280  0.32567  Biso   1.000  C
  C22      1.0000 0.48903  0.28039  0.46132  Biso   1.000  C
  N4       1.0000 0.07199  0.36060  0.24826  Biso   1.000  N
  C23      1.0000 0.91165  0.35440  0.18556  Biso   1.000  C
  C24      1.0000 0.04369  0.45386  0.36383  Biso   1.000  C
  C25      1.0000 0.04427  0.40563  0.49528  Biso   1.000  C
  H16      1.0000 0.79281  0.35701  0.31379  Biso   1.000  H
  H17      1.0000 0.82504  0.41660  0.31637  Biso   1.000  H
  H18      1.0000 0.81849  0.38661  0.40328  Biso   1.000  H
  C26      1.0000 0.26729  0.26809  0.10066  Biso   1.000  C
  H19      1.0000 0.36941  0.20580  0.13740  Biso   1.000  H
  C27      1.0000 0.23630  0.30660  0.15050  Biso   1.000  C
  H20      1.0000 0.27337  0.31460  0.27860  Biso   1.000  H
  H21      1.0000 0.48164  0.32229  0.26498  Biso   1.000  H
  C28      1.0000 0.54110  0.36603  0.36970  Biso   1.000  C
  C29      1.0000 0.53575  0.32366  0.50406  Biso   1.000  C
  H22      1.0000 0.47322  0.25118  0.49257  Biso   1.000  H
  C30      1.0000 0.07370  0.35451  0.16193  Biso   1.000  C
  H23      1.0000 0.12611  0.36369  0.28790  Biso   1.000  H
  C31      1.0000 0.97397  0.35010  0.12184  Biso   1.000  C
  H24      1.0000 0.84010  0.35291  0.17588  Biso   1.000  H
  H25      1.0000 0.02260  0.45769  0.30398  Biso   1.000  H
  C32      1.0000 0.10469  0.49182  0.41064  Biso   1.000  C
  C33      1.0000 0.10655  0.44332  0.53990  Biso   1.000  C
  H26      1.0000 0.02209  0.37708  0.52479  Biso   1.000  H
  H27      1.0000 0.24677  0.26419  0.04068  Biso   1.000  H
  C34      1.0000 0.17229  0.35502  0.12597  Biso   1.000  C
  C35      1.0000 0.56229  0.36685  0.45887  Biso   1.000  C
  O1       1.0000 0.55828  0.40739  0.31805  Biso   1.000  O
  O2       1.0000 0.55575  0.32889  0.59297  Biso   1.000  O
  H28      1.0000 0.95108  0.34510  0.06237  Biso   1.000  H
  C36      1.0000 0.13607  0.48721  0.49864  Biso   1.000  C
  O3       1.0000 0.13314  0.53232  0.36157  Biso   1.000  O
  O4       1.0000 0.14766  0.44090  0.62700  Biso   1.000  O
  C37      1.0000 0.23551  0.40372  0.15980  Biso   1.000  C
  C38      1.0000 0.14603  0.35838  0.02705  Biso   1.000  C
  H29      1.0000 0.59399  0.39599  0.48850  Biso   1.000  H
  C39      1.0000 0.60009  0.45355  0.35556  Biso   1.000  C
  C40      1.0000 0.52587  0.28691  0.64385  Biso   1.000  C
  Li1      1.0000 0.51008  0.40301  0.65289  Biso   1.000  Li
  H30      1.0000 0.17655  0.51322  0.53002  Biso   1.000  H
  C41      1.0000 0.19676  0.57258  0.40431  Biso   1.000  C
  C42      1.0000 0.12206  0.39763  0.67458  Biso   1.000  C
  H31      1.0000 0.25211  0.40231  0.22230  Biso   1.000  H
  H32      1.0000 0.19608  0.43500  0.14230  Biso   1.000  H
  H33      1.0000 0.29790  0.40438  0.13591  Biso   1.000  H
  H34      1.0000 0.20840  0.35791  0.00310  Biso   1.000  H
  H35      1.0000 0.10929  0.39052  0.01059  Biso   1.000  H
  H36      1.0000 0.10381  0.32882  0.00510  Biso   1.000  H
  C43      1.0000 0.58894  0.49514  0.28486  Biso   1.000  C
  H37      1.0000 0.67218  0.44839  0.38029  Biso   1.000  H
  H38      1.0000 0.56388  0.46440  0.40192  Biso   1.000  H
  H39      1.0000 0.56324  0.25501  0.63487  Biso   1.000  H
  H40      1.0000 0.45266  0.28000  0.62751  Biso   1.000  H
  C44      1.0000 0.55062  0.30375  0.73650  Biso   1.000  C
  O5       1.0000 0.49995  0.35178  0.74541  Biso   1.000  O
  O6       1.0000 0.66154  0.42879  0.67239  Biso   1.000  O
  O7       1.0000 0.49981  0.47358  0.71804  Biso   1.000  O
  O8       1.0000 0.37640  0.40825  0.58283  Biso   1.000  O
  C45      1.0000 0.25077  0.59968  0.34149  Biso   1.000  C
  H41      1.0000 0.24674  0.55750  0.45086  Biso   1.000  H
  H42      1.0000 0.15520  0.59781  0.42981  Biso   1.000  H
  C46      1.0000 0.19285  0.39599  0.75949  Biso   1.000  C
  H43      1.0000 0.12816  0.36529  0.64249  Biso   1.000  H
  H44      1.0000 0.05141  0.40079  0.68388  Biso   1.000  H
  H45      1.0000 0.64925  0.51779  0.29468  Biso   1.000  H
  H46      1.0000 0.58645  0.47792  0.22889  Biso   1.000  H
  O9       1.0000 0.50008  0.52642  0.28196  Biso   1.000  O
  H47      1.0000 0.52794  0.27711  0.77376  Biso   1.000  H
  H48      1.0000 0.62454  0.30820  0.75368  Biso   1.000  H
  C47      1.0000 0.46229  0.36580  0.82128  Biso   1.000  C
  C48      1.0000 0.42656  0.32390  0.79106  Biso   1.000  C
  C49      1.0000 0.74912  0.40032  0.65851  Biso   1.000  C
  C50      1.0000 0.67904  0.46194  0.74548  Biso   1.000  C
  C51      1.0000 0.59183  0.50080  0.73669  Biso   1.000  C
  C52      1.0000 0.41094  0.50486  0.71507  Biso   1.000  C
  O10      1.0000 0.33843  0.57121  0.32761  Biso   1.000  O
  H49      1.0000 0.20401  0.60390  0.28648  Biso   1.000  H
  H50      1.0000 0.27157  0.63459  0.36338  Biso   1.000  H
  O11      1.0000 0.29191  0.38419  0.74664  Biso   1.000  O
  H51      1.0000 0.19263  0.42988  0.78841  Biso   1.000  H
  H52      1.0000 0.16976  0.36939  0.79661  Biso   1.000  H
  C53      1.0000 0.40806  0.49920  0.26330  Biso   1.000  C
  Li2      1.0000 0.48989  0.59699  0.34711  Biso   1.000  Li
  C54      1.0000 0.35363  0.35857  0.81450  Biso   1.000  C
  H53      1.0000 0.47883  0.40251  0.83451  Biso   1.000  H
  H54      1.0000 0.49729  0.34471  0.86951  Biso   1.000  H
  H55      1.0000 0.33911  0.32108  0.80888  Biso   1.000  H
  H56      1.0000 0.39164  0.29660  0.75348  Biso   1.000  H
  H57      1.0000 0.46392  0.30710  0.84310  Biso   1.000  H
  C55      1.0000 0.80313  0.42742  0.59568  Biso   1.000  C
  H58      1.0000 0.79596  0.39610  0.71352  Biso   1.000  H
  H59      1.0000 0.72832  0.36541  0.63662  Biso   1.000  H
  H60      1.0000 0.68179  0.44140  0.79835  Biso   1.000  H
  H61      1.0000 0.74414  0.48030  0.74832  Biso   1.000  H
  H62      1.0000 0.59716  0.52560  0.69027  Biso   1.000  H
  H63      1.0000 0.59495  0.52040  0.79061  Biso   1.000  H
  H64      1.0000 0.35064  0.48221  0.70532  Biso   1.000  H
  H65      1.0000 0.41344  0.52208  0.77111  Biso   1.000  H
  C56      1.0000 0.39986  0.54645  0.64437  Biso   1.000  C
  C57      1.0000 0.32085  0.53806  0.25452  Biso   1.000  C
  H66      1.0000 0.40281  0.47440  0.30972  Biso   1.000  H
  H67      1.0000 0.40494  0.47960  0.20939  Biso   1.000  H
  O12      1.0000 0.62349  0.59175  0.41716  Biso   1.000  O
  O13      1.0000 0.44422  0.67111  0.40702  Biso   1.000  O
  O14      1.0000 0.49994  0.64822  0.25458  Biso   1.000  O
  H68      1.0000 0.33411  0.37021  0.86860  Biso   1.000  H
  H69      1.0000 0.75314  0.44250  0.54907  Biso   1.000  H
  H70      1.0000 0.84476  0.40219  0.57018  Biso   1.000  H
  O15      1.0000 0.86674  0.46768  0.63836  Biso   1.000  O
  H71      1.0000 0.32771  0.55161  0.61970  Biso   1.000  H
  H72      1.0000 0.43601  0.53560  0.59807  Biso   1.000  H
  O16      1.0000 0.44161  0.59261  0.68194  Biso   1.000  O
  H73      1.0000 0.31808  0.55860  0.20157  Biso   1.000  H
  H74      1.0000 0.25574  0.51970  0.25168  Biso   1.000  H
  C58      1.0000 0.46414  0.67634  0.49593  Biso   1.000  C
  C59      1.0000 0.47409  0.71309  0.35614  Biso   1.000  C
  C60      1.0000 0.53760  0.63420  0.17872  Biso   1.000  C
  C61      1.0000 0.44925  0.69625  0.26343  Biso   1.000  C
  C62      1.0000 0.57339  0.67610  0.20887  Biso   1.000  C
  C63      1.0000 0.89528  0.50818  0.58936  Biso   1.000  C
  C64      1.0000 0.45886  0.63397  0.63029  Biso   1.000  C
  C65      1.0000 0.43768  0.63315  0.54113  Biso   1.000  C
  C66      1.0000 0.51086  0.71961  0.53867  Biso   1.000  C
  H75      1.0000 0.43665  0.74499  0.36512  Biso   1.000  H
  H76      1.0000 0.54723  0.72000  0.37248  Biso   1.000  H
  C67      1.0000 0.64626  0.64143  0.18550  Biso   1.000  C
  H77      1.0000 0.52106  0.59749  0.16548  Biso   1.000  H
  H78      1.0000 0.50260  0.65529  0.13049  Biso   1.000  H
  H79      1.0000 0.47194  0.72289  0.22617  Biso   1.000  H
  H80      1.0000 0.37535  0.69180  0.24632  Biso   1.000  H
  H81      1.0000 0.66078  0.67892  0.19111  Biso   1.000  H
  H82      1.0000 0.60825  0.70340  0.24651  Biso   1.000  H
  H83      1.0000 0.53597  0.69290  0.15689  Biso   1.000  H
  C68      1.0000 0.95628  0.54614  0.63617  Biso   1.000  C
  C69      1.0000 0.86389  0.51279  0.50135  Biso   1.000  C
  C70      1.0000 0.50577  0.67720  0.67432  Biso   1.000  C
  H84      1.0000 0.40597  0.60401  0.51149  Biso   1.000  H
  C71      1.0000 0.53407  0.71930  0.62893  Biso   1.000  C
  H85      1.0000 0.52667  0.74882  0.50742  Biso   1.000  H
  H86      1.0000 0.66578  0.62979  0.13139  Biso   1.000  H
  O17      1.0000 0.70805  0.61581  0.25336  Biso   1.000  O
  C72      1.0000 0.98558  0.58972  0.59420  Biso   1.000  C
  H87      1.0000 0.97737  0.54231  0.69602  Biso   1.000  H
  H88      1.0000 0.82334  0.48678  0.46997  Biso   1.000  H
  C73      1.0000 0.89334  0.55668  0.46010  Biso   1.000  C
  H89      1.0000 0.51825  0.67771  0.73502  Biso   1.000  H
  C74      1.0000 0.59282  0.76553  0.67833  Biso   1.000  C
  C75      1.0000 0.80704  0.60401  0.24051  Biso   1.000  C
  C76      1.0000 0.95562  0.59437  0.50471  Biso   1.000  C
  C77      1.0000 0.05151  0.63276  0.64598  Biso   1.000  C
  O18      1.0000 0.85222  0.55910  0.37293  Biso   1.000  O
  C78      1.0000 0.65611  0.74683  0.76291  Biso   1.000  C
  C79      1.0000 0.51283  0.80501  0.69879  Biso   1.000  C
  C80      1.0000 0.66198  0.79236  0.62448  Biso   1.000  C
  C81      1.0000 0.87790  0.60237  0.32541  Biso   1.000  C
  H90      1.0000 0.80726  0.57012  0.21158  Biso   1.000  H
  H91      1.0000 0.83021  0.63061  0.20338  Biso   1.000  H
  H92      1.0000 0.97787  0.62292  0.47520  Biso   1.000  H
  C82      1.0000 0.03562  0.68470  0.59865  Biso   1.000  C
  C83      1.0000 0.16415  0.61663  0.65386  Biso   1.000  C
  C84      1.0000 0.02641  0.63877  0.73618  Biso   1.000  C
  C85      1.0000 0.66420  0.76495  0.84504  Biso   1.000  C
  N5       1.0000 0.71769  0.70371  0.76614  Biso   1.000  N
  H93      1.0000 0.47263  0.81759  0.64540  Biso   1.000  H
  H94      1.0000 0.46835  0.78810  0.73308  Biso   1.000  H
  H95      1.0000 0.54714  0.83419  0.73088  Biso   1.000  H
  C86      1.0000 0.67907  0.84414  0.61008  Biso   1.000  C
  N6       1.0000 0.72585  0.76463  0.58148  Biso   1.000  N
  H96      1.0000 0.87173  0.63471  0.35750  Biso   1.000  H
  H97      1.0000 0.94848  0.59921  0.31611  Biso   1.000  H
  N7       1.0000 0.93951  0.70477  0.57141  Biso   1.000  N
  C87      1.0000 0.10265  0.71785  0.57102  Biso   1.000  C
  H98      1.0000 0.20715  0.64299  0.68620  Biso   1.000  H
  H99      1.0000 0.17484  0.58340  0.68356  Biso   1.000  H
  H100     1.0000 0.18147  0.61339  0.59672  Biso   1.000  H
  N8       1.0000 0.92790  0.63940  0.75174  Biso   1.000  N
  C88      1.0000 0.08824  0.64560  0.81443  Biso   1.000  C
  C89      1.0000 0.73260  0.73191  0.89934  Biso   1.000  C
  H101     1.0000 0.63055  0.79420  0.86260  Biso   1.000  H
  C90      1.0000 0.76359  0.69340  0.84949  Biso   1.000  C
  H102     1.0000 0.72652  0.68540  0.72139  Biso   1.000  H
  H103     1.0000 0.64641  0.87250  0.63171  Biso   1.000  H
  C91      1.0000 0.75374  0.84742  0.55746  Biso   1.000  C
  C92      1.0000 0.78198  0.79795  0.53919  Biso   1.000  C
  H104     1.0000 0.73033  0.73070  0.58096  Biso   1.000  H
  C93      1.0000 0.94504  0.75003  0.52524  Biso   1.000  C
  H105     1.0000 0.88337  0.69090  0.58187  Biso   1.000  H
  C94      1.0000 0.04598  0.75901  0.52479  Biso   1.000  C
  H106     1.0000 0.17395  0.71422  0.58057  Biso   1.000  H
  C95      1.0000 0.92619  0.64549  0.83806  Biso   1.000  C
  H107     1.0000 0.87386  0.63631  0.71209  Biso   1.000  H
  H108     1.0000 0.15986  0.64709  0.82412  Biso   1.000  H
  C96      1.0000 0.02592  0.64990  0.87816  Biso   1.000  C
  H109     1.0000 0.75310  0.73581  0.95925  Biso   1.000  H
  C97      1.0000 0.82758  0.64498  0.87396  Biso   1.000  C
  H110     1.0000 0.78003  0.87851  0.53809  Biso   1.000  H
  C98      1.0000 0.85113  0.77850  0.47875  Biso   1.000  C
  H111     1.0000 0.07311  0.78752  0.49858  Biso   1.000  H
  H112     1.0000 0.04880  0.65490  0.93756  Biso   1.000  H
  C99      1.0000 0.76446  0.59628  0.84019  Biso   1.000  C
  C100     1.0000 0.85394  0.64162  0.97294  Biso   1.000  C
  C101     1.0000 0.88697  0.82513  0.43020  Biso   1.000  C
  C102     1.0000 0.78912  0.74144  0.41096  Biso   1.000  C
  H113     1.0000 0.74786  0.59769  0.77769  Biso   1.000  H
  H114     1.0000 0.80381  0.56500  0.85769  Biso   1.000  H
  H115     1.0000 0.70199  0.59562  0.86408  Biso   1.000  H
  H116     1.0000 0.79149  0.64209  0.99689  Biso   1.000  H
  H117     1.0000 0.89060  0.60948  0.98940  Biso   1.000  H
  H118     1.0000 0.89608  0.67118  0.99489  Biso   1.000  H
  H119     1.0000 0.92918  0.81271  0.38998  Biso   1.000  H
  H120     1.0000 0.82804  0.84329  0.39856  Biso   1.000  H
  H121     1.0000 0.92612  0.84891  0.47120  Biso   1.000  H
  H122     1.0000 0.76877  0.71070  0.43982  Biso   1.000  H
  H123     1.0000 0.72907  0.75952  0.38152  Biso   1.000  H
  H124     1.0000 0.83119  0.73101  0.36932  Biso   1.000  H
