data_image0
_cell_length_a       9.726
_cell_length_b       20.069
_cell_length_c       22.988
_cell_angle_alpha    90
_cell_angle_beta     90
_cell_angle_gamma    90

_symmetry_space_group_name_H-M    "P 1"
_symmetry_int_tables_number       1

loop_
  _symmetry_equiv_pos_as_xyz
  'x, y, z'

loop_
  _atom_site_label
  _atom_site_occupancy
  _atom_site_fract_x
  _atom_site_fract_y
  _atom_site_fract_z
  _atom_site_thermal_displace_type
  _atom_site_B_iso_or_equiv
  _atom_site_type_symbol
  C1       1.0000 0.51861  0.52085  0.54302  Biso   1.000  C
  O1       1.0000 0.50607  0.45074  0.53689  Biso   1.000  O
  C2       1.0000 0.52519  0.55349  0.48390  Biso   1.000  C
  H1       1.0000 0.60117  0.53132  0.56482  Biso   1.000  H
  H2       1.0000 0.44026  0.53809  0.56451  Biso   1.000  H
  C3       1.0000 0.52725  0.41676  0.59061  Biso   1.000  C
  O2       1.0000 0.65824  0.54457  0.46020  Biso   1.000  O
  H3       1.0000 0.45713  0.53371  0.45828  Biso   1.000  H
  H4       1.0000 0.50524  0.60068  0.48738  Biso   1.000  H
  C4       1.0000 0.50278  0.34386  0.58278  Biso   1.000  C
  H5       1.0000 0.46484  0.43410  0.61980  Biso   1.000  H
  H6       1.0000 0.62050  0.42409  0.60401  Biso   1.000  H
  C5       1.0000 0.66759  0.55588  0.39869  Biso   1.000  C
  O3       1.0000 0.35924  0.32702  0.58417  Biso   1.000  O
  H7       1.0000 0.54133  0.32991  0.54581  Biso   1.000  H
  H8       1.0000 0.55007  0.31970  0.61332  Biso   1.000  H
  C6       1.0000 0.65546  0.62763  0.38011  Biso   1.000  C
  H9       1.0000 0.59572  0.53052  0.37959  Biso   1.000  H
  H10      1.0000 0.75519  0.53869  0.38511  Biso   1.000  H
  C7       1.0000 0.28830  0.32722  0.53202  Biso   1.000  C
  O4       1.0000 0.51573  0.65210  0.37985  Biso   1.000  O
  H11      1.0000 0.70985  0.65499  0.40621  Biso   1.000  H
  H12      1.0000 0.69360  0.63232  0.34140  Biso   1.000  H
  C8       1.0000 0.33652  0.29394  0.48299  Biso   1.000  C
  C9       1.0000 0.16512  0.36110  0.53028  Biso   1.000  C
  C10      1.0000 0.43564  0.63650  0.33278  Biso   1.000  C
  C11      1.0000 0.25859  0.29588  0.43266  Biso   1.000  C
  H13      1.0000 0.41929  0.27082  0.48399  Biso   1.000  H
  C12      1.0000 0.08760  0.36504  0.47916  Biso   1.000  C
  H14      1.0000 0.13294  0.38178  0.56382  Biso   1.000  H
  C13      1.0000 0.47697  0.59619  0.28754  Biso   1.000  C
  C14      1.0000 0.30280  0.66336  0.33304  Biso   1.000  C
  O5       1.0000 0.29817  0.26484  0.38194  Biso   1.000  O
  C15      1.0000 0.13418  0.33071  0.43066  Biso   1.000  C
  C16      1.0000 0.96638  0.41427  0.47690  Biso   1.000  C
  C17      1.0000 0.38721  0.58349  0.24208  Biso   1.000  C
  H15      1.0000 0.56457  0.57761  0.28750  Biso   1.000  H
  C18      1.0000 0.21345  0.65105  0.28750  Biso   1.000  C
  H16      1.0000 0.27442  0.68972  0.36410  Biso   1.000  H
  C19      1.0000 0.44345  0.25950  0.37163  Biso   1.000  C
  H17      1.0000 0.08246  0.33091  0.39669  Biso   1.000  H
  C20      1.0000 0.02756  0.48378  0.48395  Biso   1.000  C
  C21      1.0000 0.86521  0.40067  0.52762  Biso   1.000  C
  C22      1.0000 0.88659  0.40994  0.42026  Biso   1.000  C
  O6       1.0000 0.43780  0.54158  0.20006  Biso   1.000  O
  C23      1.0000 0.25776  0.61154  0.24104  Biso   1.000  C
  C24      1.0000 0.06704  0.67985  0.28506  Biso   1.000  C
  C25      1.0000 0.46586  0.24760  0.30847  Biso   1.000  C
  H18      1.0000 0.48118  0.22288  0.39412  Biso   1.000  H
  H19      1.0000 0.48920  0.30021  0.38350  Biso   1.000  H
  C26      1.0000 0.16204  0.50481  0.48425  Biso   1.000  C
  N1       1.0000 0.94777  0.53999  0.49039  Biso   1.000  N
  H20      1.0000 0.78840  0.43061  0.52480  Biso   1.000  H
  H21      1.0000 0.91147  0.40749  0.56399  Biso   1.000  H
  H22      1.0000 0.83302  0.35552  0.52540  Biso   1.000  H
  C27      1.0000 0.76157  0.38208  0.40782  Biso   1.000  C
  N2       1.0000 0.93461  0.43689  0.36906  Biso   1.000  N
  C28      1.0000 0.33909  0.50655  0.16487  Biso   1.000  C
  H23      1.0000 0.20008  0.60422  0.20941  Biso   1.000  H
  C29      1.0000 0.02067  0.70572  0.34401  Biso   1.000  C
  C30      1.0000 0.06848  0.73810  0.24104  Biso   1.000  C
  C31      1.0000 0.96617  0.62758  0.26427  Biso   1.000  C
  O7       1.0000 0.42309  0.30445  0.27658  Biso   1.000  O
  H24      1.0000 0.56241  0.23888  0.30120  Biso   1.000  H
  H25      1.0000 0.41363  0.20888  0.29611  Biso   1.000  H
  C32      1.0000 0.16266  0.57492  0.49047  Biso   1.000  C
  H26      1.0000 0.23915  0.47770  0.48090  Biso   1.000  H
  C33      1.0000 0.02920  0.59634  0.49482  Biso   1.000  C
  H27      1.0000 0.85935  0.53999  0.49152  Biso   1.000  H
  H28      1.0000 0.70399  0.36051  0.43410  Biso   1.000  H
  C34      1.0000 0.73494  0.39190  0.34770  Biso   1.000  C
  H29      1.0000 0.01141  0.45782  0.36558  Biso   1.000  H
  C35      1.0000 0.84362  0.42598  0.32430  Biso   1.000  C
  C36      1.0000 0.41075  0.45005  0.13651  Biso   1.000  C
  H30      1.0000 0.30115  0.53620  0.13568  Biso   1.000  H
  H31      1.0000 0.26445  0.49021  0.18888  Biso   1.000  H
  N3       1.0000 0.01378  0.66461  0.39147  Biso   1.000  N
  C37      1.0000 0.98016  0.76735  0.36271  Biso   1.000  C
  H32      1.0000 0.10169  0.72241  0.20419  Biso   1.000  H
  H33      1.0000 0.12770  0.77278  0.25509  Biso   1.000  H
  H34      1.0000 0.97697  0.75519  0.23651  Biso   1.000  H
  C38      1.0000 0.85318  0.63182  0.23008  Biso   1.000  C
  N4       1.0000 0.97738  0.56166  0.28145  Biso   1.000  N
  C39      1.0000 0.39903  0.29164  0.21681  Biso   1.000  C
  H35      1.0000 0.24049  0.60192  0.49139  Biso   1.000  H
  C40      1.0000 0.97532  0.66620  0.50026  Biso   1.000  C
  H36      1.0000 0.65710  0.37770  0.32769  Biso   1.000  H
  C41      1.0000 0.86850  0.44915  0.26235  Biso   1.000  C
  O8       1.0000 0.44756  0.39793  0.17496  Biso   1.000  O
  H37      1.0000 0.35163  0.43211  0.10632  Biso   1.000  H
  H38      1.0000 0.49332  0.46669  0.11780  Biso   1.000  H
  H39      1.0000 0.03249  0.62280  0.39081  Biso   1.000  H
  C42      1.0000 0.97327  0.69869  0.44036  Biso   1.000  C
  H40      1.0000 0.97296  0.80552  0.34000  Biso   1.000  H
  C43      1.0000 0.95085  0.76247  0.42283  Biso   1.000  C
  C44      1.0000 0.79406  0.56749  0.22520  Biso   1.000  C
  H41      1.0000 0.81997  0.67039  0.21272  Biso   1.000  H
  H42      1.0000 0.04000  0.54622  0.30412  Biso   1.000  H
  C45      1.0000 0.87364  0.52434  0.25683  Biso   1.000  C
  H43      1.0000 0.33498  0.25482  0.21281  Biso   1.000  H
  H44      1.0000 0.48447  0.27919  0.19802  Biso   1.000  H
  C46      1.0000 0.34115  0.35238  0.18836  Biso   1.000  C
  C47      1.0000 0.07125  0.70731  0.53928  Biso   1.000  C
  C48      1.0000 0.83210  0.66780  0.52949  Biso   1.000  C
  C49      1.0000 0.00761  0.42135  0.24082  Biso   1.000  C
  C50      1.0000 0.75375  0.42254  0.22307  Biso   1.000  C
  H45      1.0000 0.92124  0.79720  0.44649  Biso   1.000  H
  H46      1.0000 0.71530  0.55658  0.20428  Biso   1.000  H
  H47      1.0000 0.29334  0.33978  0.15299  Biso   1.000  H
  H48      1.0000 0.27534  0.37341  0.21420  Biso   1.000  H
  H49      1.0000 0.06889  0.68982  0.57808  Biso   1.000  H
  H50      1.0000 0.04133  0.75290  0.53972  Biso   1.000  H
  H51      1.0000 0.16327  0.70492  0.52449  Biso   1.000  H
  H52      1.0000 0.76743  0.64398  0.50570  Biso   1.000  H
  H53      1.0000 0.80259  0.71319  0.53371  Biso   1.000  H
  H54      1.0000 0.83745  0.64722  0.56708  Biso   1.000  H
  H55      1.0000 0.08071  0.43968  0.26392  Biso   1.000  H
  H56      1.0000 0.02077  0.43340  0.20080  Biso   1.000  H
  H57      1.0000 0.00781  0.37371  0.24452  Biso   1.000  H
  H58      1.0000 0.75026  0.37491  0.22590  Biso   1.000  H
  H59      1.0000 0.77175  0.43510  0.18349  Biso   1.000  H
  H60      1.0000 0.66718  0.44098  0.23521  Biso   1.000  H
  C51      1.0000 0.16091  0.49345  0.66487  Biso   1.000  C
  C52      1.0000 0.08935  0.54995  0.63651  Biso   1.000  C
  H61      1.0000 0.19895  0.46380  0.63568  Biso   1.000  H
  H62      1.0000 0.23566  0.50979  0.68888  Biso   1.000  H
  O9       1.0000 0.06220  0.45842  0.70006  Biso   1.000  O
  H63      1.0000 0.14837  0.56789  0.60632  Biso   1.000  H
  H64      1.0000 0.00668  0.53331  0.61780  Biso   1.000  H
  O10      1.0000 0.05254  0.60207  0.67496  Biso   1.000  O
  C53      1.0000 0.11279  0.41651  0.74208  Biso   1.000  C
  C54      1.0000 0.15896  0.64762  0.68836  Biso   1.000  C
  C55      1.0000 0.02303  0.40381  0.78754  Biso   1.000  C
  C56      1.0000 0.24224  0.38846  0.74104  Biso   1.000  C
  C57      1.0000 0.10097  0.70836  0.71681  Biso   1.000  C
  H65      1.0000 0.20666  0.66022  0.65299  Biso   1.000  H
  H66      1.0000 0.22466  0.62659  0.71420  Biso   1.000  H
  C58      1.0000 0.06436  0.36350  0.83278  Biso   1.000  C
  H67      1.0000 0.93543  0.42239  0.78750  Biso   1.000  H
  H68      1.0000 0.29992  0.39578  0.70941  Biso   1.000  H
  C59      1.0000 0.28665  0.34895  0.78750  Biso   1.000  C
  H69      1.0000 0.16502  0.74518  0.71281  Biso   1.000  H
  H70      1.0000 0.01553  0.72081  0.69802  Biso   1.000  H
  O11      1.0000 0.07691  0.69555  0.77658  Biso   1.000  O
  C60      1.0000 0.19720  0.33664  0.83304  Biso   1.000  C
  O12      1.0000 0.98437  0.34790  0.87985  Biso   1.000  O
  C61      1.0000 0.43296  0.32015  0.78506  Biso   1.000  C
  C62      1.0000 0.03424  0.75240  0.80847  Biso   1.000  C
  H71      1.0000 0.22558  0.31028  0.86410  Biso   1.000  H
  C63      1.0000 0.84464  0.37237  0.88011  Biso   1.000  C
  C64      1.0000 0.47933  0.29428  0.84401  Biso   1.000  C
  C65      1.0000 0.53393  0.37242  0.76427  Biso   1.000  C
  C66      1.0000 0.43152  0.26190  0.74104  Biso   1.000  C
  C67      1.0000 0.05665  0.74050  0.87163  Biso   1.000  C
  H72      1.0000 0.08637  0.79112  0.79611  Biso   1.000  H
  H73      1.0000 0.93759  0.76112  0.80120  Biso   1.000  H
  C68      1.0000 0.83241  0.44412  0.89869  Biso   1.000  C
  H74      1.0000 0.79025  0.34501  0.90621  Biso   1.000  H
  H75      1.0000 0.80640  0.36768  0.84140  Biso   1.000  H
  C69      1.0000 0.51995  0.23265  0.86271  Biso   1.000  C
  N5       1.0000 0.48622  0.33539  0.89147  Biso   1.000  N
  C70      1.0000 0.64693  0.36818  0.73008  Biso   1.000  C
  N6       1.0000 0.52262  0.43834  0.78145  Biso   1.000  N
  H76      1.0000 0.39831  0.27759  0.70419  Biso   1.000  H
  H77      1.0000 0.37230  0.22722  0.75509  Biso   1.000  H
  H78      1.0000 0.52313  0.24481  0.73651  Biso   1.000  H
  H79      1.0000 0.01882  0.77712  0.89412  Biso   1.000  H
  H80      1.0000 0.01080  0.69979  0.88350  Biso   1.000  H
  O13      1.0000 0.20183  0.73516  0.88194  Biso   1.000  O
  H81      1.0000 0.90428  0.46948  0.87959  Biso   1.000  H
  H82      1.0000 0.74481  0.46131  0.88511  Biso   1.000  H
  O14      1.0000 0.84176  0.45543  0.96020  Biso   1.000  O
  H83      1.0000 0.52714  0.19448  0.84000  Biso   1.000  H
  C71      1.0000 0.54925  0.23753  0.92283  Biso   1.000  C
  C72      1.0000 0.52684  0.30131  0.94036  Biso   1.000  C
  H84      1.0000 0.46751  0.37720  0.89081  Biso   1.000  H
  C73      1.0000 0.70605  0.43251  0.72520  Biso   1.000  C
  H85      1.0000 0.68014  0.32961  0.71272  Biso   1.000  H
  C74      1.0000 0.62647  0.47566  0.75683  Biso   1.000  C
  H86      1.0000 0.46000  0.45378  0.80412  Biso   1.000  H
  C75      1.0000 0.24141  0.70412  0.93266  Biso   1.000  C
  C76      1.0000 0.97481  0.44651  0.98390  Biso   1.000  C
  H87      1.0000 0.57886  0.20280  0.94649  Biso   1.000  H
  C77      1.0000 0.52468  0.33380  0.00026  Biso   1.000  C
  H88      1.0000 0.78470  0.44342  0.70428  Biso   1.000  H
  C78      1.0000 0.63150  0.55085  0.76235  Biso   1.000  C
  C79      1.0000 0.36582  0.66929  0.93066  Biso   1.000  C
  C80      1.0000 0.16348  0.70606  0.98299  Biso   1.000  C
  H89      1.0000 0.04287  0.46629  0.95828  Biso   1.000  H
  H90      1.0000 0.99486  0.39932  0.98738  Biso   1.000  H
  C81      1.0000 0.98139  0.47915  0.04302  Biso   1.000  C
  C82      1.0000 0.47080  0.40366  0.99482  Biso   1.000  C
  C83      1.0000 0.42885  0.29269  0.03928  Biso   1.000  C
  C84      1.0000 0.66790  0.33220  0.02949  Biso   1.000  C
  C85      1.0000 0.65638  0.57402  0.82430  Biso   1.000  C
  C86      1.0000 0.74635  0.57746  0.72307  Biso   1.000  C
  C87      1.0000 0.49239  0.57865  0.74082  Biso   1.000  C
  C88      1.0000 0.41240  0.63496  0.97916  Biso   1.000  C
  H91      1.0000 0.41754  0.66909  0.89669  Biso   1.000  H
  H92      1.0000 0.08071  0.72918  0.98399  Biso   1.000  H
  C89      1.0000 0.21170  0.67278  0.03202  Biso   1.000  C
  H93      1.0000 0.89883  0.46868  0.06482  Biso   1.000  H
  O15      1.0000 0.99404  0.54926  0.03689  Biso   1.000  O
  H94      1.0000 0.05974  0.46191  0.06451  Biso   1.000  H
  C90      1.0000 0.33734  0.42508  0.99047  Biso   1.000  C
  N7       1.0000 0.55233  0.46001  0.99039  Biso   1.000  N
  H95      1.0000 0.43111  0.31018  0.07808  Biso   1.000  H
  H96      1.0000 0.45867  0.24710  0.03972  Biso   1.000  H
  H97      1.0000 0.33673  0.29508  0.02449  Biso   1.000  H
  H98      1.0000 0.73257  0.35602  0.00570  Biso   1.000  H
  H99      1.0000 0.69741  0.28681  0.03371  Biso   1.000  H
  H100     1.0000 0.66266  0.35278  0.06708  Biso   1.000  H
  C91      1.0000 0.76517  0.60810  0.84770  Biso   1.000  C
  N8       1.0000 0.56539  0.56311  0.86906  Biso   1.000  N
  H101     1.0000 0.74985  0.62509  0.72590  Biso   1.000  H
  H102     1.0000 0.72836  0.56490  0.68349  Biso   1.000  H
  H103     1.0000 0.83282  0.55902  0.73521  Biso   1.000  H
  H104     1.0000 0.41929  0.56032  0.76392  Biso   1.000  H
  H105     1.0000 0.47923  0.56660  0.70080  Biso   1.000  H
  H106     1.0000 0.49219  0.62629  0.74452  Biso   1.000  H
  C92      1.0000 0.53362  0.58573  0.97690  Biso   1.000  C
  C93      1.0000 0.33488  0.63890  0.03028  Biso   1.000  C
  O16      1.0000 0.14076  0.67298  0.08417  Biso   1.000  O
  C94      1.0000 0.97286  0.58324  0.09061  Biso   1.000  C
  H107     1.0000 0.25951  0.39808  0.99139  Biso   1.000  H
  C95      1.0000 0.33796  0.49519  0.98425  Biso   1.000  C
  C96      1.0000 0.47244  0.51622  0.98395  Biso   1.000  C
  H108     1.0000 0.64076  0.46001  0.99152  Biso   1.000  H
  C97      1.0000 0.73854  0.61792  0.90782  Biso   1.000  C
  H109     1.0000 0.84290  0.62230  0.82769  Biso   1.000  H
  C98      1.0000 0.61341  0.59006  0.92026  Biso   1.000  C
  H110     1.0000 0.48859  0.54218  0.86558  Biso   1.000  H
  C99      1.0000 0.63479  0.59933  0.02762  Biso   1.000  C
  H111     1.0000 0.36716  0.61822  0.06382  Biso   1.000  H
  C100     1.0000 0.99722  0.65614  0.08278  Biso   1.000  C
  H112     1.0000 0.87950  0.57591  0.10401  Biso   1.000  H
  H113     1.0000 0.03516  0.56590  0.11980  Biso   1.000  H
  H114     1.0000 0.26095  0.52230  0.98090  Biso   1.000  H
  H115     1.0000 0.79601  0.63949  0.93410  Biso   1.000  H
  H116     1.0000 0.71160  0.56939  0.02480  Biso   1.000  H
  H117     1.0000 0.58863  0.59251  0.06399  Biso   1.000  H
  H118     1.0000 0.66698  0.64448  0.02540  Biso   1.000  H
  H119     1.0000 0.95877  0.67009  0.04581  Biso   1.000  H
  H120     1.0000 0.94993  0.68030  0.11332  Biso   1.000  H
  C101     1.0000 0.45085  0.73751  0.57717  Biso   1.000  C
  C102     1.0000 0.47316  0.80129  0.55964  Biso   1.000  C
  C103     1.0000 0.48016  0.73267  0.63729  Biso   1.000  C
  H121     1.0000 0.42124  0.70278  0.55351  Biso   1.000  H
  C104     1.0000 0.47532  0.83377  0.49974  Biso   1.000  C
  N9       1.0000 0.51378  0.83537  0.60853  Biso   1.000  N
  C105     1.0000 0.52067  0.79431  0.65599  Biso   1.000  C
  H122     1.0000 0.47296  0.69450  0.66000  Biso   1.000  H
  C106     1.0000 0.57125  0.79267  0.46072  Biso   1.000  C
  C107     1.0000 0.33210  0.83218  0.47051  Biso   1.000  C
  C108     1.0000 0.52920  0.90363  0.50518  Biso   1.000  C
  H123     1.0000 0.53249  0.87722  0.60919  Biso   1.000  H
  C109     1.0000 0.56704  0.82012  0.71494  Biso   1.000  C
  H124     1.0000 0.56889  0.81020  0.42192  Biso   1.000  H
  H125     1.0000 0.54133  0.74712  0.46028  Biso   1.000  H
  H126     1.0000 0.66327  0.79511  0.47551  Biso   1.000  H
  H127     1.0000 0.26743  0.85600  0.49430  Biso   1.000  H
  H128     1.0000 0.30259  0.78679  0.46629  Biso   1.000  H
  H129     1.0000 0.33745  0.85281  0.43292  Biso   1.000  H
  C110     1.0000 0.66276  0.92506  0.50953  Biso   1.000  C
  N10      1.0000 0.44777  0.96004  0.50961  Biso   1.000  N
  C111     1.0000 0.46607  0.87239  0.73573  Biso   1.000  C
  C112     1.0000 0.56848  0.76192  0.75896  Biso   1.000  C
  C113     1.0000 0.71345  0.84897  0.71250  Biso   1.000  C
  H130     1.0000 0.74049  0.89810  0.50861  Biso   1.000  H
  C114     1.0000 0.66204  0.99522  0.51575  Biso   1.000  C
  H131     1.0000 0.35935  0.95999  0.50848  Biso   1.000  H
  C115     1.0000 0.52766  0.01624  0.51605  Biso   1.000  C
  C116     1.0000 0.35307  0.86820  0.76992  Biso   1.000  C
  N11      1.0000 0.47738  0.93836  0.71855  Biso   1.000  N
  H132     1.0000 0.60169  0.77762  0.79581  Biso   1.000  H
  H133     1.0000 0.62770  0.72719  0.74491  Biso   1.000  H
  H134     1.0000 0.47687  0.74478  0.76349  Biso   1.000  H
  C117     1.0000 0.75787  0.88848  0.75896  Biso   1.000  C
  C118     1.0000 0.80280  0.83661  0.66696  Biso   1.000  C
  H135     1.0000 0.73915  0.02232  0.51910  Biso   1.000  H
  C119     1.0000 0.46638  0.08575  0.52310  Biso   1.000  C
  C120     1.0000 0.29406  0.93248  0.77480  Biso   1.000  C
  H136     1.0000 0.31986  0.82959  0.78728  Biso   1.000  H
  C121     1.0000 0.37364  0.97568  0.74317  Biso   1.000  C
  H137     1.0000 0.54000  0.95381  0.69588  Biso   1.000  H
  C122     1.0000 0.88721  0.91649  0.75792  Biso   1.000  C
  H138     1.0000 0.70008  0.89581  0.79059  Biso   1.000  H
  C123     1.0000 0.93564  0.86347  0.66722  Biso   1.000  C
  H139     1.0000 0.77442  0.81030  0.63590  Biso   1.000  H
  C124     1.0000 0.36521  0.09931  0.47238  Biso   1.000  C
  C125     1.0000 0.38659  0.09004  0.57974  Biso   1.000  C
  C126     1.0000 0.58760  0.13498  0.52084  Biso   1.000  C
  H140     1.0000 0.21530  0.94340  0.79572  Biso   1.000  H
  C127     1.0000 0.36850  0.05087  0.73765  Biso   1.000  C
  C128     1.0000 0.97707  0.90383  0.71246  Biso   1.000  C
  O17      1.0000 0.93780  0.95844  0.79994  Biso   1.000  O
  O18      1.0000 0.01563  0.84792  0.62015  Biso   1.000  O
  H141     1.0000 0.28840  0.06941  0.47520  Biso   1.000  H
  H142     1.0000 0.41137  0.09248  0.43601  Biso   1.000  H
  H143     1.0000 0.33302  0.14450  0.47460  Biso   1.000  H
  C129     1.0000 0.26146  0.11794  0.59218  Biso   1.000  C
  N12      1.0000 0.43461  0.06308  0.63094  Biso   1.000  N
  C130     1.0000 0.63418  0.16927  0.56934  Biso   1.000  C
  C131     1.0000 0.66512  0.13887  0.46972  Biso   1.000  C
  C132     1.0000 0.34362  0.07404  0.67570  Biso   1.000  C
  C133     1.0000 0.25375  0.07743  0.77693  Biso   1.000  C
  C134     1.0000 0.50761  0.07863  0.75918  Biso   1.000  C
  H144     1.0000 0.06457  0.92242  0.71250  Biso   1.000  H
  C135     1.0000 0.83909  0.99342  0.83513  Biso   1.000  C
  C136     1.0000 0.15536  0.87239  0.61989  Biso   1.000  C
  H145     1.0000 0.20399  0.13952  0.56590  Biso   1.000  H
  C137     1.0000 0.23494  0.10808  0.65230  Biso   1.000  C
  H146     1.0000 0.51141  0.04220  0.63442  Biso   1.000  H
  H147     1.0000 0.58256  0.16912  0.60331  Biso   1.000  H
  C138     1.0000 0.75859  0.20410  0.56734  Biso   1.000  C
  C139     1.0000 0.78830  0.17275  0.46798  Biso   1.000  C
  H148     1.0000 0.63294  0.11819  0.43618  Biso   1.000  H
  H149     1.0000 0.25026  0.12512  0.77410  Biso   1.000  H
  H150     1.0000 0.27175  0.06488  0.81651  Biso   1.000  H
  H151     1.0000 0.16718  0.05900  0.76479  Biso   1.000  H
  H152     1.0000 0.58071  0.06029  0.73608  Biso   1.000  H
  H153     1.0000 0.52077  0.06662  0.79920  Biso   1.000  H
  H154     1.0000 0.50781  0.12631  0.75548  Biso   1.000  H
  H155     1.0000 0.80115  0.96382  0.86432  Biso   1.000  H
  C140     1.0000 0.91075  0.04993  0.86349  Biso   1.000  C
  H156     1.0000 0.76445  0.00982  0.81112  Biso   1.000  H
  C141     1.0000 0.16759  0.94414  0.60131  Biso   1.000  C
  H157     1.0000 0.20985  0.84498  0.59379  Biso   1.000  H
  H158     1.0000 0.19360  0.86771  0.65860  Biso   1.000  H
  H159     1.0000 0.15710  0.12228  0.67231  Biso   1.000  H
  C142     1.0000 0.83652  0.20609  0.51701  Biso   1.000  C
  O19      1.0000 0.79817  0.23514  0.61806  Biso   1.000  O
  O20      1.0000 0.85924  0.17300  0.41583  Biso   1.000  O
  H160     1.0000 0.85163  0.06792  0.89368  Biso   1.000  H
  H161     1.0000 0.99332  0.03329  0.88220  Biso   1.000  H
  O21      1.0000 0.94756  0.10210  0.82504  Biso   1.000  O
  H162     1.0000 0.09572  0.96951  0.62041  Biso   1.000  H
  H163     1.0000 0.25519  0.96128  0.61489  Biso   1.000  H
  O22      1.0000 0.15824  0.95545  0.53980  Biso   1.000  O
  H164     1.0000 0.91929  0.22921  0.51601  Biso   1.000  H
  C143     1.0000 0.94345  0.24052  0.62837  Biso   1.000  C
  C144     1.0000 0.00278  0.15616  0.41722  Biso   1.000  C
  C145     1.0000 0.84115  0.14759  0.81164  Biso   1.000  C
  C146     1.0000 0.02519  0.94653  0.51610  Biso   1.000  C
  H165     1.0000 0.98118  0.27709  0.60588  Biso   1.000  H
  H166     1.0000 0.98920  0.19981  0.61650  Biso   1.000  H
  C147     1.0000 0.96586  0.25243  0.69153  Biso   1.000  C
  H167     1.0000 0.04133  0.17011  0.45419  Biso   1.000  H
  H168     1.0000 0.05007  0.18028  0.38668  Biso   1.000  H
  C148     1.0000 0.02725  0.08326  0.40939  Biso   1.000  C
  C149     1.0000 0.89903  0.20838  0.78319  Biso   1.000  C
  H169     1.0000 0.79334  0.16020  0.84701  Biso   1.000  H
  H170     1.0000 0.77534  0.12661  0.78580  Biso   1.000  H
  C150     1.0000 0.01861  0.97912  0.45698  Biso   1.000  C
  H171     1.0000 0.95713  0.96632  0.54172  Biso   1.000  H
  H172     1.0000 0.00524  0.89930  0.51262  Biso   1.000  H
  H173     1.0000 0.91363  0.29110  0.70389  Biso   1.000  H
  O23      1.0000 0.92309  0.19558  0.72342  Biso   1.000  O
  H174     1.0000 0.06241  0.26110  0.69880  Biso   1.000  H
  H175     1.0000 0.96484  0.06592  0.38020  Biso   1.000  H
  H176     1.0000 0.12050  0.07589  0.39599  Biso   1.000  H
  O24      1.0000 0.00607  0.04923  0.46311  Biso   1.000  O
  H177     1.0000 0.83498  0.24520  0.78719  Biso   1.000  H
  H178     1.0000 0.98458  0.22079  0.80198  Biso   1.000  H
  H179     1.0000 0.94037  0.96188  0.43549  Biso   1.000  H
  H180     1.0000 0.10117  0.96871  0.43518  Biso   1.000  H
  C151     1.0000 0.93152  0.23808  0.25896  Biso   1.000  C
  C152     1.0000 0.93307  0.17988  0.21494  Biso   1.000  C
  H181     1.0000 0.89831  0.22238  0.29581  Biso   1.000  H
  H182     1.0000 0.87230  0.27281  0.24491  Biso   1.000  H
  H183     1.0000 0.02313  0.25522  0.26349  Biso   1.000  H
  C153     1.0000 0.78665  0.15103  0.21250  Biso   1.000  C
  C154     1.0000 0.97933  0.20569  0.15599  Biso   1.000  C
  C155     1.0000 0.03393  0.12761  0.23573  Biso   1.000  C
  C156     1.0000 0.69720  0.16339  0.16696  Biso   1.000  C
  C157     1.0000 0.74224  0.11152  0.25896  Biso   1.000  C
  N13      1.0000 0.98622  0.16463  0.10853  Biso   1.000  N
  C158     1.0000 0.01995  0.26733  0.13729  Biso   1.000  C
  C159     1.0000 0.14693  0.13180  0.26992  Biso   1.000  C
  N14      1.0000 0.02262  0.06164  0.21855  Biso   1.000  N
  C160     1.0000 0.56447  0.13653  0.16722  Biso   1.000  C
  H184     1.0000 0.72558  0.18970  0.13590  Biso   1.000  H
  C161     1.0000 0.61279  0.08351  0.25792  Biso   1.000  C
  H185     1.0000 0.79992  0.10419  0.29059  Biso   1.000  H
  H186     1.0000 0.96751  0.12278  0.10919  Biso   1.000  H
  C162     1.0000 0.02684  0.19871  0.05964  Biso   1.000  C
  H187     1.0000 0.02714  0.30550  0.16000  Biso   1.000  H
  C163     1.0000 0.04925  0.26249  0.07717  Biso   1.000  C
  C164     1.0000 0.20605  0.06752  0.27480  Biso   1.000  C
  H188     1.0000 0.18014  0.17041  0.28728  Biso   1.000  H
  H189     1.0000 0.96000  0.04619  0.19588  Biso   1.000  H
  C165     1.0000 0.12636  0.02432  0.24317  Biso   1.000  C
  O25      1.0000 0.48437  0.15208  0.12015  Biso   1.000  O
  C166     1.0000 0.52303  0.09617  0.21246  Biso   1.000  C
  O26      1.0000 0.56220  0.04156  0.29994  Biso   1.000  O
  C167     1.0000 0.02468  0.16623  0.99974  Biso   1.000  C
  H190     1.0000 0.07876  0.29722  0.05351  Biso   1.000  H
  H191     1.0000 0.28470  0.05660  0.29572  Biso   1.000  H
  C168     1.0000 0.13150  0.94913  0.23765  Biso   1.000  C
  C169     1.0000 0.34464  0.12761  0.11989  Biso   1.000  C
  H192     1.0000 0.43543  0.07758  0.21250  Biso   1.000  H
  C170     1.0000 0.66091  0.00658  0.33513  Biso   1.000  C
  C171     1.0000 0.97080  0.09637  0.00518  Biso   1.000  C
  C172     1.0000 0.92885  0.20733  0.96072  Biso   1.000  C
  C173     1.0000 0.16790  0.16782  0.97051  Biso   1.000  C
  C174     1.0000 0.99239  0.92137  0.25918  Biso   1.000  C
  C175     1.0000 0.15638  0.92596  0.17570  Biso   1.000  C
  C176     1.0000 0.24635  0.92257  0.27693  Biso   1.000  C
  C177     1.0000 0.33241  0.05586  0.10131  Biso   1.000  C
  H193     1.0000 0.29025  0.15502  0.09379  Biso   1.000  H
  H194     1.0000 0.30640  0.13229  0.15860  Biso   1.000  H
  H195     1.0000 0.69895  0.03618  0.36432  Biso   1.000  H
  C178     1.0000 0.58935  0.95007  0.36349  Biso   1.000  C
  H196     1.0000 0.73566  0.99018  0.31112  Biso   1.000  H
  C179     1.0000 0.83734  0.07494  0.00953  Biso   1.000  C
  N15      1.0000 0.05233  0.03996  0.00961  Biso   1.000  N
  H197     1.0000 0.93111  0.18980  0.92192  Biso   1.000  H
  H198     1.0000 0.95877  0.25288  0.96028  Biso   1.000  H
  H199     1.0000 0.83673  0.20489  0.97551  Biso   1.000  H
  H200     1.0000 0.23257  0.14400  0.99430  Biso   1.000  H
  H201     1.0000 0.19741  0.21321  0.96629  Biso   1.000  H
  H202     1.0000 0.16255  0.14719  0.93292  Biso   1.000  H
  H203     1.0000 0.91929  0.93971  0.23608  Biso   1.000  H
  H204     1.0000 0.97923  0.93338  0.29920  Biso   1.000  H
  H205     1.0000 0.99219  0.87369  0.25548  Biso   1.000  H
  C180     1.0000 0.26506  0.89192  0.15230  Biso   1.000  C
  N16      1.0000 0.06539  0.93692  0.13094  Biso   1.000  N
  H206     1.0000 0.24985  0.87488  0.27410  Biso   1.000  H
  H207     1.0000 0.22836  0.93512  0.31651  Biso   1.000  H
  H208     1.0000 0.33282  0.94100  0.26479  Biso   1.000  H
  H209     1.0000 0.40428  0.03049  0.12041  Biso   1.000  H
  H210     1.0000 0.24481  0.03872  0.11489  Biso   1.000  H
  O27      1.0000 0.34176  0.04455  0.03980  Biso   1.000  O
  H211     1.0000 0.64847  0.93208  0.39368  Biso   1.000  H
  H212     1.0000 0.50668  0.96671  0.38220  Biso   1.000  H
  O28      1.0000 0.55254  0.89790  0.32504  Biso   1.000  O
  H213     1.0000 0.75951  0.10190  0.00861  Biso   1.000  H
  C181     1.0000 0.83806  0.00478  0.01575  Biso   1.000  C
  C182     1.0000 0.97244  0.98376  0.01605  Biso   1.000  C
  H214     1.0000 0.14065  0.04001  0.00848  Biso   1.000  H
  C183     1.0000 0.23854  0.88206  0.09218  Biso   1.000  C
  H215     1.0000 0.34290  0.87772  0.17231  Biso   1.000  H
  H216     1.0000 0.98859  0.95780  0.13442  Biso   1.000  H
  C184     1.0000 0.11341  0.90996  0.07974  Biso   1.000  C
  C185     1.0000 0.47481  0.05347  0.01610  Biso   1.000  C
  C186     1.0000 0.65896  0.85241  0.31164  Biso   1.000  C
  H217     1.0000 0.76095  0.97768  0.01910  Biso   1.000  H
  C187     1.0000 0.03362  0.91425  0.02310  Biso   1.000  C
  H218     1.0000 0.29601  0.86048  0.06590  Biso   1.000  H
  H219     1.0000 0.54287  0.03368  0.04172  Biso   1.000  H
  H220     1.0000 0.49486  0.10070  0.01262  Biso   1.000  H
  C188     1.0000 0.48139  0.02088  0.95698  Biso   1.000  C
  C189     1.0000 0.60107  0.79162  0.28319  Biso   1.000  C
  H221     1.0000 0.70677  0.83980  0.34701  Biso   1.000  H
  H222     1.0000 0.72476  0.87339  0.28580  Biso   1.000  H
  C190     1.0000 0.91240  0.86502  0.02084  Biso   1.000  C
  C191     1.0000 0.13479  0.90069  0.97238  Biso   1.000  C
  O29      1.0000 0.49404  0.95077  0.96311  Biso   1.000  O
  H223     1.0000 0.39883  0.03129  0.93518  Biso   1.000  H
  H224     1.0000 0.55974  0.03812  0.93549  Biso   1.000  H
  H225     1.0000 0.66502  0.75480  0.28719  Biso   1.000  H
  H226     1.0000 0.51553  0.77921  0.30198  Biso   1.000  H
  O30      1.0000 0.57691  0.80442  0.22342  Biso   1.000  O
  C192     1.0000 0.83488  0.86113  0.96972  Biso   1.000  C
  C193     1.0000 0.86582  0.83073  0.06934  Biso   1.000  C
  H227     1.0000 0.21160  0.93059  0.97520  Biso   1.000  H
  H228     1.0000 0.08863  0.90752  0.93601  Biso   1.000  H
  H229     1.0000 0.16698  0.85550  0.97460  Biso   1.000  H
  C194     1.0000 0.47286  0.91674  0.90939  Biso   1.000  C
  C195     1.0000 0.53424  0.74757  0.19153  Biso   1.000  C
  C196     1.0000 0.71170  0.82725  0.96798  Biso   1.000  C
  H230     1.0000 0.86716  0.88181  0.93618  Biso   1.000  H
  C197     1.0000 0.74141  0.79590  0.06734  Biso   1.000  C
  H231     1.0000 0.91754  0.83088  0.10331  Biso   1.000  H
  C198     1.0000 0.49722  0.84384  0.91722  Biso   1.000  C
  H232     1.0000 0.53527  0.93408  0.88020  Biso   1.000  H
  H233     1.0000 0.37950  0.92411  0.89599  Biso   1.000  H
  C199     1.0000 0.55665  0.75948  0.12837  Biso   1.000  C
  H234     1.0000 0.43759  0.73890  0.19880  Biso   1.000  H
  H235     1.0000 0.58647  0.70890  0.20389  Biso   1.000  H
  O31      1.0000 0.64076  0.82700  0.91583  Biso   1.000  O
  C200     1.0000 0.66348  0.79391  0.01701  Biso   1.000  C
  O32      1.0000 0.70183  0.76486  0.11806  Biso   1.000  O
  H236     1.0000 0.45867  0.82989  0.95419  Biso   1.000  H
  H237     1.0000 0.44993  0.81972  0.88668  Biso   1.000  H
  H238     1.0000 0.51882  0.72291  0.10588  Biso   1.000  H
  H239     1.0000 0.51080  0.80019  0.11650  Biso   1.000  H
  H240     1.0000 0.58071  0.77079  0.01601  Biso   1.000  H
