data_image0
_cell_length_a       11.069
_cell_length_b       15.594
_cell_length_c       15.812
_cell_angle_alpha    88.99
_cell_angle_beta     77.21
_cell_angle_gamma    75.01

_symmetry_space_group_name_H-M    "P 1"
_symmetry_int_tables_number       1

loop_
  _symmetry_equiv_pos_as_xyz
  'x, y, z'

loop_
  _atom_site_label
  _atom_site_occupancy
  _atom_site_fract_x
  _atom_site_fract_y
  _atom_site_fract_z
  _atom_site_thermal_displace_type
  _atom_site_B_iso_or_equiv
  _atom_site_type_symbol
  C1       1.0000 0.54744  0.58039  0.40322  Biso   1.000  C
  C2       1.0000 0.49588  0.56360  0.33708  Biso   1.000  C
  C3       1.0000 0.54774  0.67096  0.40218  Biso   1.000  C
  H1       1.0000 0.57804  0.53869  0.44307  Biso   1.000  H
  C4       1.0000 0.47465  0.47838  0.30527  Biso   1.000  C
  N1       1.0000 0.46440  0.64231  0.29651  Biso   1.000  N
  C5       1.0000 0.49581  0.70860  0.33591  Biso   1.000  C
  H2       1.0000 0.57913  0.70066  0.44126  Biso   1.000  H
  C6       1.0000 0.33366  0.47890  0.33428  Biso   1.000  C
  C7       1.0000 0.55567  0.39969  0.34487  Biso   1.000  C
  C8       1.0000 0.51887  0.46647  0.20602  Biso   1.000  C
  H3       1.0000 0.42890  0.64920  0.25140  Biso   1.000  H
  C9       1.0000 0.47361  0.80260  0.30352  Biso   1.000  C
  C10      1.0000 0.27145  0.43458  0.39809  Biso   1.000  C
  N2       1.0000 0.24013  0.53136  0.29761  Biso   1.000  N
  H4       1.0000 0.64608  0.40047  0.32890  Biso   1.000  H
  H5       1.0000 0.54621  0.34391  0.32280  Biso   1.000  H
  H6       1.0000 0.52633  0.40415  0.40822  Biso   1.000  H
  H7       1.0000 0.46530  0.51437  0.17909  Biso   1.000  H
  H8       1.0000 0.51088  0.40897  0.18726  Biso   1.000  H
  H9       1.0000 0.60868  0.46856  0.18817  Biso   1.000  H
  C11      1.0000 0.33477  0.85581  0.33500  Biso   1.000  C
  C12      1.0000 0.56096  0.84906  0.33857  Biso   1.000  C
  C13      1.0000 0.50918  0.79981  0.20310  Biso   1.000  C
  H10      1.0000 0.31073  0.39295  0.43496  Biso   1.000  H
  C14      1.0000 0.13858  0.46180  0.39952  Biso   1.000  C
  C15      1.0000 0.12070  0.52176  0.33669  Biso   1.000  C
  H11      1.0000 0.25490  0.56662  0.25458  Biso   1.000  H
  N3       1.0000 0.23836  0.84029  0.30151  Biso   1.000  N
  C16      1.0000 0.27983  0.92599  0.39387  Biso   1.000  C
  H12      1.0000 0.53846  0.85140  0.40218  Biso   1.000  H
  H13      1.0000 0.54918  0.90957  0.31780  Biso   1.000  H
  H14      1.0000 0.65077  0.81571  0.31812  Biso   1.000  H
  C17      1.0000 0.47500  0.89141  0.16279  Biso   1.000  C
  H15      1.0000 0.60259  0.77286  0.18330  Biso   1.000  H
  H16      1.0000 0.46442  0.76061  0.18097  Biso   1.000  H
  H17      1.0000 0.07327  0.44166  0.43756  Biso   1.000  H
  C18      1.0000 0.99889  0.57370  0.30949  Biso   1.000  C
  C19      1.0000 0.12281  0.89990  0.33682  Biso   1.000  C
  H18      1.0000 0.24870  0.79779  0.26262  Biso   1.000  H
  C20      1.0000 0.14739  0.95366  0.39511  Biso   1.000  C
  H19      1.0000 0.32311  0.95156  0.42808  Biso   1.000  H
  C21      1.0000 0.49526  0.88778  0.06919  Biso   1.000  C
  H20      1.0000 0.38380  0.92116  0.18778  Biso   1.000  H
  H21      1.0000 0.52742  0.92818  0.17948  Biso   1.000  H
  C22      1.0000 0.02033  0.57161  0.21011  Biso   1.000  C
  C23      1.0000 0.95940  0.66957  0.34532  Biso   1.000  C
  C24      1.0000 0.88968  0.53000  0.34779  Biso   1.000  C
  C25      1.0000 0.99887  0.89699  0.31241  Biso   1.000  C
  H22      1.0000 0.08604  0.00117  0.43009  Biso   1.000  H
  O1       1.0000 0.39877  0.84880  0.04440  Biso   1.000  O
  H23      1.0000 0.58277  0.85108  0.04329  Biso   1.000  H
  H24      1.0000 0.48689  0.94844  0.04719  Biso   1.000  H
  H25      1.0000 0.09876  0.59128  0.18597  Biso   1.000  H
  H26      1.0000 0.03684  0.50917  0.18928  Biso   1.000  H
  C26      1.0000 0.91086  0.62829  0.17298  Biso   1.000  C
  N4       1.0000 0.01726  0.73232  0.30547  Biso   1.000  N
  C27      1.0000 0.86498  0.71225  0.41302  Biso   1.000  C
  H27      1.0000 0.91077  0.46956  0.32247  Biso   1.000  H
  H28      1.0000 0.80946  0.56507  0.33422  Biso   1.000  H
  H29      1.0000 0.87929  0.52781  0.41088  Biso   1.000  H
  C28      1.0000 0.95927  0.81417  0.34538  Biso   1.000  C
  C29      1.0000 0.01586  0.89910  0.21342  Biso   1.000  C
  C30      1.0000 0.89240  0.97886  0.35278  Biso   1.000  C
  C31      1.0000 0.39706  0.85724  0.96125  Biso   1.000  C
  H30      1.0000 0.83346  0.60640  0.19330  Biso   1.000  H
  H31      1.0000 0.89066  0.69041  0.19557  Biso   1.000  H
  C32      1.0000 0.94214  0.62688  0.07543  Biso   1.000  C
  H32      1.0000 0.08291  0.72109  0.26048  Biso   1.000  H
  H33      1.0000 0.80961  0.68577  0.45320  Biso   1.000  H
  C33      1.0000 0.86396  0.80366  0.41289  Biso   1.000  C
  H34      1.0000 0.03642  0.95452  0.19311  Biso   1.000  H
  H35      1.0000 0.08602  0.84839  0.18597  Biso   1.000  H
  H36      1.0000 0.93633  0.89578  0.19791  Biso   1.000  H
  H37      1.0000 0.88106  0.97959  0.41607  Biso   1.000  H
  H38      1.0000 0.81201  0.97681  0.33766  Biso   1.000  H
  H39      1.0000 0.91593  0.03274  0.33059  Biso   1.000  H
  C34      1.0000 0.31043  0.81208  0.93327  Biso   1.000  C
  O2       1.0000 0.46048  0.89698  0.91146  Biso   1.000  O
  O3       1.0000 0.04295  0.67353  0.04570  Biso   1.000  O
  H40      1.0000 0.97233  0.56479  0.05180  Biso   1.000  H
  H41      1.0000 0.86434  0.65658  0.05439  Biso   1.000  H
  H42      1.0000 0.80717  0.84919  0.45262  Biso   1.000  H
  N5       1.0000 0.23546  0.76317  0.98299  Biso   1.000  N
  C35      1.0000 0.29308  0.80964  0.85038  Biso   1.000  C
  C36      1.0000 0.08166  0.67626  0.95956  Biso   1.000  C
  C37      1.0000 0.17544  0.72908  0.93126  Biso   1.000  C
  H43      1.0000 0.22773  0.75563  0.03901  Biso   1.000  H
  C38      1.0000 0.21090  0.75696  0.84785  Biso   1.000  C
  H44      1.0000 0.33079  0.83919  0.80280  Biso   1.000  H
  O4       1.0000 0.04090  0.64066  0.90835  Biso   1.000  O
  H45      1.0000 0.18382  0.74247  0.79820  Biso   1.000  H
  C39      1.0000 0.45268  0.41957  0.59678  Biso   1.000  C
  C40      1.0000 0.45231  0.32900  0.59775  Biso   1.000  C
  H46      1.0000 0.42210  0.46127  0.55686  Biso   1.000  H
  C41      1.0000 0.50426  0.43636  0.66286  Biso   1.000  C
  C42      1.0000 0.50431  0.29136  0.66409  Biso   1.000  C
  H47      1.0000 0.42101  0.29930  0.55868  Biso   1.000  H
  N6       1.0000 0.53572  0.35765  0.70349  Biso   1.000  N
  C43      1.0000 0.52549  0.52157  0.69466  Biso   1.000  C
  C44      1.0000 0.52652  0.19736  0.69648  Biso   1.000  C
  H48      1.0000 0.57122  0.35076  0.74860  Biso   1.000  H
  C45      1.0000 0.66646  0.52106  0.66571  Biso   1.000  C
  C46      1.0000 0.44447  0.60026  0.65507  Biso   1.000  C
  C47      1.0000 0.48125  0.53349  0.79398  Biso   1.000  C
  C48      1.0000 0.66535  0.14415  0.66500  Biso   1.000  C
  C49      1.0000 0.43912  0.15083  0.66136  Biso   1.000  C
  C50      1.0000 0.49094  0.20015  0.79690  Biso   1.000  C
  N7       1.0000 0.75992  0.46853  0.70239  Biso   1.000  N
  C51      1.0000 0.72867  0.56538  0.60191  Biso   1.000  C
  H49      1.0000 0.35404  0.59949  0.67110  Biso   1.000  H
  H50      1.0000 0.45391  0.65605  0.67720  Biso   1.000  H
  H51      1.0000 0.47381  0.59575  0.59178  Biso   1.000  H
  H52      1.0000 0.53484  0.48558  0.82085  Biso   1.000  H
  H53      1.0000 0.48926  0.59099  0.81267  Biso   1.000  H
  H54      1.0000 0.39149  0.53133  0.81176  Biso   1.000  H
  N8       1.0000 0.76167  0.15967  0.69849  Biso   1.000  N
  C52      1.0000 0.72032  0.07397  0.60606  Biso   1.000  C
  H55      1.0000 0.46160  0.14856  0.59775  Biso   1.000  H
  H56      1.0000 0.45094  0.09039  0.68220  Biso   1.000  H
  H57      1.0000 0.34935  0.18425  0.68188  Biso   1.000  H
  C53      1.0000 0.52512  0.10855  0.83721  Biso   1.000  C
  H58      1.0000 0.39755  0.22703  0.81669  Biso   1.000  H
  H59      1.0000 0.53572  0.23934  0.81897  Biso   1.000  H
  H60      1.0000 0.74524  0.43334  0.74536  Biso   1.000  H
  C54      1.0000 0.87945  0.47814  0.66331  Biso   1.000  C
  H61      1.0000 0.68932  0.60700  0.56497  Biso   1.000  H
  C55      1.0000 0.86154  0.53816  0.60048  Biso   1.000  C
  H62      1.0000 0.75142  0.20217  0.73737  Biso   1.000  H
  C56      1.0000 0.87731  0.10006  0.66318  Biso   1.000  C
  C57      1.0000 0.85273  0.04630  0.60489  Biso   1.000  C
  H63      1.0000 0.67703  0.04839  0.57185  Biso   1.000  H
  C58      1.0000 0.50477  0.11218  0.93081  Biso   1.000  C
  H64      1.0000 0.61637  0.07873  0.81215  Biso   1.000  H
  H65      1.0000 0.47272  0.07178  0.82046  Biso   1.000  H
  C59      1.0000 0.00123  0.42626  0.69051  Biso   1.000  C
  H66      1.0000 0.92688  0.55830  0.56238  Biso   1.000  H
  C60      1.0000 0.00125  0.10297  0.68759  Biso   1.000  C
  H67      1.0000 0.91399  0.99879  0.56991  Biso   1.000  H
  O5       1.0000 0.60135  0.15116  0.95560  Biso   1.000  O
  H68      1.0000 0.41735  0.14888  0.95670  Biso   1.000  H
  H69      1.0000 0.51325  0.05152  0.95274  Biso   1.000  H
  C61      1.0000 0.97979  0.42835  0.78989  Biso   1.000  C
  C62      1.0000 0.04072  0.33039  0.65468  Biso   1.000  C
  C63      1.0000 0.11044  0.46996  0.65221  Biso   1.000  C
  C64      1.0000 0.98418  0.10086  0.78658  Biso   1.000  C
  C65      1.0000 0.04085  0.18579  0.65461  Biso   1.000  C
  C66      1.0000 0.10774  0.02104  0.64721  Biso   1.000  C
  C67      1.0000 0.60311  0.14265  0.03868  Biso   1.000  C
  H70      1.0000 0.90138  0.40868  0.81397  Biso   1.000  H
  H71      1.0000 0.96321  0.49079  0.81066  Biso   1.000  H
  C68      1.0000 0.08928  0.37166  0.82695  Biso   1.000  C
  N9       1.0000 0.98289  0.26764  0.69447  Biso   1.000  N
  C69      1.0000 0.13517  0.28764  0.58698  Biso   1.000  C
  H72      1.0000 0.08938  0.53039  0.67746  Biso   1.000  H
  H73      1.0000 0.19066  0.43489  0.66578  Biso   1.000  H
  H74      1.0000 0.12085  0.47215  0.58906  Biso   1.000  H
  H75      1.0000 0.96371  0.04544  0.80689  Biso   1.000  H
  H76      1.0000 0.91412  0.15156  0.81397  Biso   1.000  H
  H77      1.0000 0.06379  0.10418  0.80209  Biso   1.000  H
  C70      1.0000 0.13616  0.19630  0.58711  Biso   1.000  C
  H78      1.0000 0.08420  0.96722  0.66941  Biso   1.000  H
  H79      1.0000 0.11899  0.02037  0.58386  Biso   1.000  H
  H80      1.0000 0.18813  0.02315  0.66227  Biso   1.000  H
  O6       1.0000 0.53966  0.10297  0.08847  Biso   1.000  O
  C71      1.0000 0.68969  0.18788  0.06673  Biso   1.000  C
  H81      1.0000 0.16667  0.39356  0.80670  Biso   1.000  H
  H82      1.0000 0.10948  0.30955  0.80436  Biso   1.000  H
  C72      1.0000 0.05798  0.37308  0.92457  Biso   1.000  C
  H83      1.0000 0.91723  0.27887  0.73945  Biso   1.000  H
  H84      1.0000 0.19051  0.31419  0.54680  Biso   1.000  H
  H85      1.0000 0.19295  0.15077  0.54738  Biso   1.000  H
  N10      1.0000 0.76466  0.23679  0.01701  Biso   1.000  N
  C73      1.0000 0.70706  0.19025  0.14962  Biso   1.000  C
  O7       1.0000 0.95717  0.32643  0.95430  Biso   1.000  O
  H86      1.0000 0.02771  0.43517  0.94820  Biso   1.000  H
  H87      1.0000 0.13569  0.34338  0.94560  Biso   1.000  H
  H88      1.0000 0.77230  0.24433  0.96099  Biso   1.000  H
  C74      1.0000 0.82470  0.27088  0.06867  Biso   1.000  C
  C75      1.0000 0.78915  0.24300  0.15208  Biso   1.000  C
  H89      1.0000 0.66924  0.16077  0.19719  Biso   1.000  H
  C76      1.0000 0.91848  0.32370  0.04037  Biso   1.000  C
  H90      1.0000 0.81630  0.25749  0.20180  Biso   1.000  H
  O8       1.0000 0.95924  0.35929  0.09159  Biso   1.000  O
