data_image0
_cell_length_a       16.207
_cell_length_b       16.207
_cell_length_c       23.476
_cell_angle_alpha    90
_cell_angle_beta     90
_cell_angle_gamma    120

_symmetry_space_group_name_H-M    "P 1"
_symmetry_int_tables_number       1

loop_
  _symmetry_equiv_pos_as_xyz
  'x, y, z'

loop_
  _atom_site_label
  _atom_site_occupancy
  _atom_site_fract_x
  _atom_site_fract_y
  _atom_site_fract_z
  _atom_site_thermal_displace_type
  _atom_site_B_iso_or_equiv
  _atom_site_type_symbol
  O1       1.0000 0.39212  0.39799  0.59874  Biso   1.000  O
  C1       1.0000 0.40277  0.47358  0.56692  Biso   1.000  C
  C2       1.0000 0.30253  0.31285  0.59512  Biso   1.000  C
  C3       1.0000 0.33128  0.47080  0.53284  Biso   1.000  C
  C4       1.0000 0.49240  0.55708  0.56922  Biso   1.000  C
  H1       1.0000 0.30293  0.26404  0.61965  Biso   1.000  H
  H2       1.0000 0.29076  0.29040  0.55567  Biso   1.000  H
  H3       1.0000 0.25216  0.32539  0.60764  Biso   1.000  H
  C5       1.0000 0.34640  0.55003  0.50089  Biso   1.000  C
  H4       1.0000 0.27103  0.41409  0.53127  Biso   1.000  H
  C6       1.0000 0.50600  0.63388  0.53638  Biso   1.000  C
  C7       1.0000 0.56752  0.56036  0.60598  Biso   1.000  C
  C8       1.0000 0.26155  0.54012  0.46720  Biso   1.000  C
  C9       1.0000 0.43557  0.63260  0.50192  Biso   1.000  C
  H5       1.0000 0.56654  0.69031  0.53744  Biso   1.000  H
  N1       1.0000 0.65208  0.63125  0.60688  Biso   1.000  N
  H6       1.0000 0.55232  0.50749  0.62996  Biso   1.000  H
  C10      1.0000 0.19700  0.56442  0.50192  Biso   1.000  C
  H7       1.0000 0.28534  0.58266  0.43355  Biso   1.000  H
  H8       1.0000 0.22360  0.47386  0.45314  Biso   1.000  H
  C11      1.0000 0.45984  0.72138  0.46720  Biso   1.000  C
  C12      1.0000 0.71787  0.62448  0.64645  Biso   1.000  C
  C13      1.0000 0.12787  0.49403  0.53638  Biso   1.000  C
  C14      1.0000 0.20359  0.65362  0.50089  Biso   1.000  C
  C15      1.0000 0.44997  0.79640  0.50089  Biso   1.000  C
  H9       1.0000 0.41738  0.70271  0.43355  Biso   1.000  H
  H10      1.0000 0.52613  0.74980  0.45314  Biso   1.000  H
  C16      1.0000 0.76008  0.70891  0.68687  Biso   1.000  C
  H11      1.0000 0.76973  0.62320  0.62485  Biso   1.000  H
  H12      1.0000 0.68365  0.56456  0.66856  Biso   1.000  H
  C17      1.0000 0.06470  0.50764  0.56922  Biso   1.000  C
  H13      1.0000 0.12375  0.43347  0.53744  Biso   1.000  H
  C18      1.0000 0.13954  0.66880  0.53284  Biso   1.000  C
  C19      1.0000 0.27860  0.73848  0.46720  Biso   1.000  C
  C20      1.0000 0.36745  0.80303  0.50192  Biso   1.000  C
  C21      1.0000 0.52929  0.86052  0.53284  Biso   1.000  C
  N2       1.0000 0.68749  0.70207  0.72644  Biso   1.000  N
  H14      1.0000 0.81323  0.71019  0.70847  Biso   1.000  H
  H15      1.0000 0.78575  0.76876  0.66476  Biso   1.000  H
  C22      1.0000 0.07077  0.59726  0.56692  Biso   1.000  C
  C23      1.0000 0.99281  0.43247  0.60598  Biso   1.000  C
  H16      1.0000 0.14305  0.72900  0.53127  Biso   1.000  H
  H17      1.0000 0.29737  0.71468  0.43355  Biso   1.000  H
  H18      1.0000 0.25022  0.77638  0.45314  Biso   1.000  H
  C24      1.0000 0.36616  0.87213  0.53638  Biso   1.000  C
  C25      1.0000 0.52649  0.92920  0.56692  Biso   1.000  C
  H19      1.0000 0.58594  0.85696  0.53127  Biso   1.000  H
  C26      1.0000 0.67382  0.77296  0.72734  Biso   1.000  C
  O2       1.0000 0.00589  0.60795  0.59874  Biso   1.000  O
  N3       1.0000 0.97916  0.34790  0.60688  Biso   1.000  N
  H20      1.0000 0.95511  0.44765  0.62996  Biso   1.000  H
  C27      1.0000 0.44292  0.93533  0.56922  Biso   1.000  C
  H21      1.0000 0.30973  0.87627  0.53744  Biso   1.000  H
  O3       1.0000 0.60201  0.99411  0.59874  Biso   1.000  O
  C28      1.0000 0.60198  0.77624  0.76410  Biso   1.000  C
  H22      1.0000 0.71152  0.82590  0.70336  Biso   1.000  H
  C29      1.0000 0.01032  0.69751  0.59512  Biso   1.000  C
  C30      1.0000 0.90660  0.28214  0.64645  Biso   1.000  C
  C31      1.0000 0.43969  0.00722  0.60598  Biso   1.000  C
  C32      1.0000 0.68717  0.98969  0.59512  Biso   1.000  C
  C33      1.0000 0.59588  0.85981  0.76636  Biso   1.000  C
  C34      1.0000 0.53881  0.69950  0.79694  Biso   1.000  C
  H23      1.0000 0.07321  0.74788  0.60764  Biso   1.000  H
  H24      1.0000 0.96118  0.69708  0.61965  Biso   1.000  H
  H25      1.0000 0.99966  0.70926  0.55567  Biso   1.000  H
  C35      1.0000 0.94882  0.23996  0.68687  Biso   1.000  C
  H26      1.0000 0.85346  0.23027  0.62485  Biso   1.000  H
  H27      1.0000 0.88098  0.31641  0.66856  Biso   1.000  H
  N4       1.0000 0.36875  0.02083  0.60688  Biso   1.000  N
  H28      1.0000 0.49259  0.04491  0.62996  Biso   1.000  H
  H29      1.0000 0.67466  0.92678  0.60764  Biso   1.000  H
  H30      1.0000 0.73604  0.03892  0.61965  Biso   1.000  H
  H31      1.0000 0.70961  0.00038  0.55567  Biso   1.000  H
  O4       1.0000 0.66083  0.93540  0.73458  Biso   1.000  O
  C36      1.0000 0.52718  0.86259  0.80048  Biso   1.000  C
  H32      1.0000 0.54292  0.64308  0.79588  Biso   1.000  H
  C37      1.0000 0.46966  0.70079  0.83140  Biso   1.000  C
  N5       1.0000 0.01458  0.31249  0.72644  Biso   1.000  N
  H33      1.0000 0.89691  0.18674  0.70847  Biso   1.000  H
  H34      1.0000 0.98304  0.21424  0.66476  Biso   1.000  H
  C38      1.0000 0.37562  0.09343  0.64645  Biso   1.000  C
  C39      1.0000 0.65635  0.02047  0.73816  Biso   1.000  C
  C40      1.0000 0.46307  0.78336  0.83242  Biso   1.000  C
  H35      1.0000 0.52363  0.91930  0.80205  Biso   1.000  H
  C41      1.0000 0.40513  0.61194  0.86612  Biso   1.000  C
  C42      1.0000 0.09916  0.32617  0.72734  Biso   1.000  C
  C43      1.0000 0.29112  0.05118  0.68687  Biso   1.000  C
  H36      1.0000 0.37689  0.14658  0.62485  Biso   1.000  H
  H37      1.0000 0.43546  0.11908  0.66856  Biso   1.000  H
  H38      1.0000 0.70549  0.06928  0.71367  Biso   1.000  H
  H39      1.0000 0.66711  0.04299  0.77765  Biso   1.000  H
  H40      1.0000 0.59347  0.00800  0.72568  Biso   1.000  H
  C44      1.0000 0.38808  0.79319  0.86612  Biso   1.000  C
  C45      1.0000 0.32023  0.53692  0.83242  Biso   1.000  C
  H41      1.0000 0.38136  0.63068  0.89977  Biso   1.000  H
  H42      1.0000 0.44302  0.58358  0.88018  Biso   1.000  H
  C46      1.0000 0.17429  0.39806  0.76410  Biso   1.000  C
  H43      1.0000 0.11431  0.28848  0.70336  Biso   1.000  H
  N6       1.0000 0.29795  0.98549  0.72644  Biso   1.000  N
  H44      1.0000 0.28982  0.10312  0.70847  Biso   1.000  H
  H45      1.0000 0.23120  0.01698  0.66476  Biso   1.000  H
  C47      1.0000 0.29924  0.76890  0.83140  Biso   1.000  C
  H46      1.0000 0.36934  0.75066  0.89977  Biso   1.000  H
  H47      1.0000 0.41640  0.85945  0.88018  Biso   1.000  H
  C48      1.0000 0.33546  0.47287  0.80048  Biso   1.000  C
  C49      1.0000 0.23112  0.53036  0.83140  Biso   1.000  C
  C50      1.0000 0.26394  0.40411  0.76636  Biso   1.000  C
  C51      1.0000 0.16068  0.46118  0.79694  Biso   1.000  C
  C52      1.0000 0.22704  0.90092  0.72734  Biso   1.000  C
  C53      1.0000 0.21667  0.67977  0.83242  Biso   1.000  C
  C54      1.0000 0.30053  0.83936  0.79694  Biso   1.000  C
  H48      1.0000 0.39564  0.47636  0.80205  Biso   1.000  H
  C55      1.0000 0.20682  0.59491  0.86612  Biso   1.000  C
  O5       1.0000 0.27456  0.33921  0.73458  Biso   1.000  O
  H49      1.0000 0.10012  0.45705  0.79588  Biso   1.000  H
  C56      1.0000 0.22376  0.82575  0.76410  Biso   1.000  C
  H50      1.0000 0.17412  0.88567  0.70336  Biso   1.000  H
  C57      1.0000 0.13744  0.66459  0.80048  Biso   1.000  C
  H51      1.0000 0.35694  0.89985  0.79588  Biso   1.000  H
  H52      1.0000 0.24938  0.61871  0.89977  Biso   1.000  H
  H53      1.0000 0.14054  0.55701  0.88018  Biso   1.000  H
  C58      1.0000 0.36417  0.34370  0.73816  Biso   1.000  C
  C59      1.0000 0.14016  0.73605  0.76636  Biso   1.000  C
  H54      1.0000 0.08075  0.60439  0.80205  Biso   1.000  H
  H55      1.0000 0.36374  0.29446  0.71367  Biso   1.000  H
  H56      1.0000 0.37595  0.33294  0.77765  Biso   1.000  H
  H57      1.0000 0.41457  0.40661  0.72568  Biso   1.000  H
  O6       1.0000 0.06464  0.72544  0.73458  Biso   1.000  O
  C60      1.0000 0.97957  0.63588  0.73816  Biso   1.000  C
  H58      1.0000 0.93079  0.63631  0.71367  Biso   1.000  H
  H59      1.0000 0.95706  0.62405  0.77765  Biso   1.000  H
  H60      1.0000 0.99208  0.58551  0.72568  Biso   1.000  H
  C61      1.0000 0.47073  0.33123  0.46712  Biso   1.000  C
  C62      1.0000 0.55001  0.34640  0.49911  Biso   1.000  C
  C63      1.0000 0.47355  0.40276  0.43304  Biso   1.000  C
  H61      1.0000 0.41410  0.27102  0.46873  Biso   1.000  H
  C64      1.0000 0.54016  0.26155  0.53276  Biso   1.000  C
  C65      1.0000 0.63262  0.43560  0.49808  Biso   1.000  C
  C66      1.0000 0.55711  0.49239  0.43078  Biso   1.000  C
  O7       1.0000 0.39799  0.39207  0.40122  Biso   1.000  O
  C67      1.0000 0.56441  0.19700  0.49808  Biso   1.000  C
  H62      1.0000 0.58267  0.28534  0.56641  Biso   1.000  H
  H63      1.0000 0.47389  0.22364  0.54681  Biso   1.000  H
  C68      1.0000 0.63388  0.50600  0.46362  Biso   1.000  C
  C69      1.0000 0.72140  0.45990  0.53276  Biso   1.000  C
  C70      1.0000 0.56039  0.56755  0.39402  Biso   1.000  C
  C71      1.0000 0.31285  0.30251  0.40484  Biso   1.000  C
  C72      1.0000 0.49407  0.12789  0.46362  Biso   1.000  C
  C73      1.0000 0.65357  0.20355  0.49911  Biso   1.000  C
  H64      1.0000 0.69026  0.56656  0.46251  Biso   1.000  H
  C74      1.0000 0.79642  0.45000  0.49911  Biso   1.000  C
  H65      1.0000 0.70267  0.41737  0.56641  Biso   1.000  H
  H66      1.0000 0.74978  0.52616  0.54681  Biso   1.000  H
  N7       1.0000 0.63130  0.65212  0.39312  Biso   1.000  N
  H67      1.0000 0.50751  0.55238  0.37004  Biso   1.000  H
  H68      1.0000 0.26408  0.30294  0.38035  Biso   1.000  H
  H69      1.0000 0.29038  0.29076  0.44433  Biso   1.000  H
  H70      1.0000 0.32537  0.25214  0.39232  Biso   1.000  H
  C75      1.0000 0.50763  0.06469  0.43078  Biso   1.000  C
  H71      1.0000 0.43351  0.12376  0.46251  Biso   1.000  H
  C76      1.0000 0.66875  0.13950  0.46712  Biso   1.000  C
  C77      1.0000 0.73847  0.27858  0.53276  Biso   1.000  C
  C78      1.0000 0.80301  0.36742  0.49808  Biso   1.000  C
  C79      1.0000 0.86047  0.52922  0.46712  Biso   1.000  C
  C80      1.0000 0.62451  0.71789  0.35351  Biso   1.000  C
  C81      1.0000 0.43245  0.99280  0.39402  Biso   1.000  C
  C82      1.0000 0.59727  0.07082  0.43304  Biso   1.000  C
  H72      1.0000 0.72896  0.14306  0.46873  Biso   1.000  H
  H73      1.0000 0.71465  0.29731  0.56641  Biso   1.000  H
  H74      1.0000 0.77637  0.25022  0.54681  Biso   1.000  H
  C83      1.0000 0.87215  0.36614  0.46362  Biso   1.000  C
  C84      1.0000 0.92917  0.52644  0.43304  Biso   1.000  C
  H75      1.0000 0.85698  0.58594  0.46873  Biso   1.000  H
  C85      1.0000 0.70890  0.76006  0.31313  Biso   1.000  C
  H76      1.0000 0.62317  0.76975  0.37515  Biso   1.000  H
  H77      1.0000 0.56455  0.68362  0.33144  Biso   1.000  H
  N8       1.0000 0.34793  0.97912  0.39312  Biso   1.000  N
  H78      1.0000 0.44766  0.95511  0.37004  Biso   1.000  H
  O8       1.0000 0.60794  0.00591  0.40122  Biso   1.000  O
  C86      1.0000 0.93530  0.44294  0.43078  Biso   1.000  C
  H79      1.0000 0.87627  0.30971  0.46251  Biso   1.000  H
  O9       1.0000 0.99411  0.60204  0.40122  Biso   1.000  O
  N9       1.0000 0.70207  0.68753  0.27356  Biso   1.000  N
  H80      1.0000 0.71018  0.81321  0.29153  Biso   1.000  H
  H81      1.0000 0.76878  0.78578  0.33524  Biso   1.000  H
  C87      1.0000 0.28217  0.90660  0.35351  Biso   1.000  C
  C88      1.0000 0.69746  0.01033  0.40484  Biso   1.000  C
  C89      1.0000 0.00721  0.43967  0.39402  Biso   1.000  C
  C90      1.0000 0.98967  0.68718  0.40484  Biso   1.000  C
  C91      1.0000 0.77297  0.67385  0.27262  Biso   1.000  C
  C92      1.0000 0.23992  0.94884  0.31313  Biso   1.000  C
  H82      1.0000 0.23029  0.85344  0.37515  Biso   1.000  H
  H83      1.0000 0.31642  0.88095  0.33144  Biso   1.000  H
  H84      1.0000 0.74786  0.07324  0.39232  Biso   1.000  H
  H85      1.0000 0.69709  0.96110  0.38035  Biso   1.000  H
  H86      1.0000 0.70927  0.99964  0.44433  Biso   1.000  H
  N10      1.0000 0.02088  0.36877  0.39312  Biso   1.000  N
  H87      1.0000 0.04487  0.49253  0.37004  Biso   1.000  H
  H88      1.0000 0.92676  0.67464  0.39232  Biso   1.000  H
  H89      1.0000 0.03887  0.73598  0.38035  Biso   1.000  H
  H90      1.0000 0.00033  0.70962  0.44433  Biso   1.000  H
  C93      1.0000 0.77627  0.60197  0.23590  Biso   1.000  C
  H91      1.0000 0.82588  0.71154  0.29664  Biso   1.000  H
  N11      1.0000 0.31251  0.01453  0.27356  Biso   1.000  N
  H92      1.0000 0.18674  0.89691  0.29153  Biso   1.000  H
  H93      1.0000 0.21433  0.98304  0.33524  Biso   1.000  H
  C94      1.0000 0.09337  0.37554  0.35351  Biso   1.000  C
  C95      1.0000 0.69954  0.53884  0.20306  Biso   1.000  C
  C96      1.0000 0.85978  0.59584  0.23360  Biso   1.000  C
  C97      1.0000 0.32616  0.09910  0.27262  Biso   1.000  C
  C98      1.0000 0.05115  0.29112  0.31313  Biso   1.000  C
  H94      1.0000 0.14658  0.37683  0.37515  Biso   1.000  H
  H95      1.0000 0.11907  0.43546  0.33144  Biso   1.000  H
  C99      1.0000 0.70074  0.46966  0.16860  Biso   1.000  C
  H96      1.0000 0.64312  0.54297  0.20412  Biso   1.000  H
  C100     1.0000 0.86258  0.52716  0.19952  Biso   1.000  C
  O10      1.0000 0.93539  0.66082  0.26542  Biso   1.000  O
  C101     1.0000 0.39805  0.17427  0.23590  Biso   1.000  C
  H97      1.0000 0.28850  0.11435  0.29664  Biso   1.000  H
  N12      1.0000 0.98547  0.29796  0.27356  Biso   1.000  N
  H98      1.0000 0.10308  0.28983  0.29153  Biso   1.000  H
  H99      1.0000 0.01697  0.23127  0.33524  Biso   1.000  H
  C102     1.0000 0.61195  0.40511  0.13388  Biso   1.000  C
  C103     1.0000 0.78335  0.46311  0.16758  Biso   1.000  C
  H100     1.0000 0.91926  0.52367  0.19795  Biso   1.000  H
  C104     1.0000 0.02046  0.65633  0.26180  Biso   1.000  C
  C105     1.0000 0.40415  0.26397  0.23360  Biso   1.000  C
  C106     1.0000 0.46122  0.16066  0.20306  Biso   1.000  C
  C107     1.0000 0.90087  0.22699  0.27262  Biso   1.000  C
  C108     1.0000 0.53694  0.32026  0.16758  Biso   1.000  C
  H101     1.0000 0.63065  0.38131  0.10023  Biso   1.000  H
  H102     1.0000 0.58357  0.44301  0.11982  Biso   1.000  H
  C109     1.0000 0.79323  0.38808  0.13388  Biso   1.000  C
  H103     1.0000 0.06926  0.70556  0.28633  Biso   1.000  H
  H104     1.0000 0.04295  0.66701  0.22231  Biso   1.000  H
  H105     1.0000 0.00794  0.59342  0.27432  Biso   1.000  H
  O11      1.0000 0.33924  0.27459  0.26542  Biso   1.000  O
  C110     1.0000 0.47283  0.33543  0.19952  Biso   1.000  C
  H106     1.0000 0.45704  0.10010  0.20412  Biso   1.000  H
  C111     1.0000 0.53038  0.23113  0.16860  Biso   1.000  C
  C112     1.0000 0.82572  0.22379  0.23590  Biso   1.000  C
  H107     1.0000 0.88567  0.17413  0.29664  Biso   1.000  H
  C113     1.0000 0.76892  0.29924  0.16860  Biso   1.000  C
  H108     1.0000 0.75066  0.36934  0.10023  Biso   1.000  H
  H109     1.0000 0.85948  0.41644  0.11982  Biso   1.000  H
  C114     1.0000 0.34367  0.36414  0.26180  Biso   1.000  C
  H110     1.0000 0.47640  0.39563  0.19795  Biso   1.000  H
  C115     1.0000 0.59487  0.20683  0.13388  Biso   1.000  C
  C116     1.0000 0.83934  0.30052  0.20306  Biso   1.000  C
  C117     1.0000 0.73605  0.14021  0.23360  Biso   1.000  C
  C118     1.0000 0.67975  0.21666  0.16758  Biso   1.000  C
  H111     1.0000 0.29446  0.36372  0.28633  Biso   1.000  H
  H112     1.0000 0.33298  0.37597  0.22231  Biso   1.000  H
  H113     1.0000 0.40655  0.41452  0.27432  Biso   1.000  H
  H114     1.0000 0.61867  0.24936  0.10023  Biso   1.000  H
  H115     1.0000 0.55699  0.14057  0.11982  Biso   1.000  H
  H116     1.0000 0.89989  0.35695  0.20412  Biso   1.000  H
  C119     1.0000 0.66457  0.13744  0.19952  Biso   1.000  C
  O12      1.0000 0.72541  0.06462  0.26542  Biso   1.000  O
  H117     1.0000 0.60438  0.08072  0.19795  Biso   1.000  H
  C120     1.0000 0.63592  0.97955  0.26180  Biso   1.000  C
  H118     1.0000 0.63626  0.93075  0.28633  Biso   1.000  H
  H119     1.0000 0.62410  0.95704  0.22231  Biso   1.000  H
  H120     1.0000 0.58545  0.99202  0.27432  Biso   1.000  H
  C121     1.0000 0.12651  0.05472  0.80052  Biso   1.000  C
  C122     1.0000 0.11664  0.12974  0.83421  Biso   1.000  C
  H121     1.0000 0.08401  0.03598  0.76691  Biso   1.000  H
  H122     1.0000 0.19277  0.08307  0.78651  Biso   1.000  H
  C123     1.0000 0.10224  0.96594  0.83524  Biso   1.000  C
  C124     1.0000 0.03409  0.13630  0.83524  Biso   1.000  C
  C125     1.0000 0.19593  0.19379  0.86620  Biso   1.000  C
  C126     1.0000 0.17263  0.96716  0.86970  Biso   1.000  C
  C127     1.0000 0.01304  0.88330  0.83421  Biso   1.000  C
  C128     1.0000 0.03283  0.20548  0.86970  Biso   1.000  C
  C129     1.0000 0.94527  0.07182  0.80052  Biso   1.000  C
  C130     1.0000 0.19316  0.26255  0.90028  Biso   1.000  C
  H123     1.0000 0.25261  0.19030  0.86459  Biso   1.000  H
  H124     1.0000 0.23318  0.02358  0.87080  Biso   1.000  H
  C131     1.0000 0.15907  0.89042  0.90254  Biso   1.000  C
  C132     1.0000 0.99792  0.80407  0.86620  Biso   1.000  C
  C133     1.0000 0.92816  0.87347  0.80052  Biso   1.000  C
  C134     1.0000 0.10956  0.26860  0.90254  Biso   1.000  C
  H125     1.0000 0.97640  0.20961  0.87080  Biso   1.000  H
  C135     1.0000 0.87029  0.98689  0.83421  Biso   1.000  C
  H126     1.0000 0.96404  0.04802  0.76691  Biso   1.000  H
  H127     1.0000 0.91696  0.10972  0.78651  Biso   1.000  H
  O13      1.0000 0.26868  0.32745  0.93206  Biso   1.000  O
  C136     1.0000 0.06934  0.80685  0.90028  Biso   1.000  C
  C137     1.0000 0.23419  0.89370  0.93930  Biso   1.000  C
  H128     1.0000 0.93773  0.74736  0.86459  Biso   1.000  H
  C138     1.0000 0.86367  0.89776  0.83524  Biso   1.000  C
  H129     1.0000 0.95195  0.91600  0.76691  Biso   1.000  H
  H130     1.0000 0.89034  0.80721  0.78651  Biso   1.000  H
  C139     1.0000 0.10632  0.34049  0.93930  Biso   1.000  C
  C140     1.0000 0.80618  0.00207  0.86620  Biso   1.000  C
  C141     1.0000 0.35384  0.32303  0.92848  Biso   1.000  C
  O14      1.0000 0.05875  0.73126  0.93206  Biso   1.000  O
  N13      1.0000 0.31882  0.96459  0.94019  Biso   1.000  N
  H131     1.0000 0.21902  0.84076  0.96328  Biso   1.000  H
  C142     1.0000 0.79454  0.82737  0.86970  Biso   1.000  C
  N14      1.0000 0.03542  0.35417  0.94019  Biso   1.000  N
  H132     1.0000 0.15916  0.37818  0.96328  Biso   1.000  H
  C143     1.0000 0.73750  0.93061  0.90028  Biso   1.000  C
  H133     1.0000 0.80969  0.06227  0.86459  Biso   1.000  H
  H134     1.0000 0.40261  0.37219  0.95297  Biso   1.000  H
  H135     1.0000 0.37634  0.33372  0.88899  Biso   1.000  H
  H136     1.0000 0.34133  0.26012  0.94100  Biso   1.000  H
  C144     1.0000 0.96920  0.64619  0.92848  Biso   1.000  C
  C145     1.0000 0.38454  0.95782  0.97977  Biso   1.000  C
  C146     1.0000 0.73143  0.84098  0.90254  Biso   1.000  C
  H137     1.0000 0.79036  0.76681  0.87080  Biso   1.000  H
  C147     1.0000 0.04219  0.42670  0.97977  Biso   1.000  C
  O15      1.0000 0.67259  0.94122  0.93206  Biso   1.000  O
  H138     1.0000 0.96954  0.59738  0.95297  Biso   1.000  H
  H139     1.0000 0.95745  0.62367  0.88899  Biso   1.000  H
  H140     1.0000 0.91880  0.65866  0.94100  Biso   1.000  H
  H141     1.0000 0.43643  0.95647  0.95817  Biso   1.000  H
  H142     1.0000 0.35032  0.89790  0.00192  Biso   1.000  H
  C148     1.0000 0.42672  0.04218  0.02019  Biso   1.000  C
  C149     1.0000 0.65955  0.76581  0.93930  Biso   1.000  C
  H143     1.0000 0.04350  0.47992  0.95817  Biso   1.000  H
  C150     1.0000 0.95779  0.38452  0.02019  Biso   1.000  C
  H144     1.0000 0.10213  0.45242  0.00192  Biso   1.000  H
  C151     1.0000 0.67702  0.03078  0.92848  Biso   1.000  C
  H145     1.0000 0.45242  0.10210  0.99808  Biso   1.000  H
  N15      1.0000 0.35416  0.03541  0.05981  Biso   1.000  N
  H146     1.0000 0.47990  0.04353  0.04179  Biso   1.000  H
  N16      1.0000 0.64589  0.68124  0.94019  Biso   1.000  N
  H147     1.0000 0.62184  0.78099  0.96328  Biso   1.000  H
  H148     1.0000 0.89793  0.35032  0.99808  Biso   1.000  H
  N17      1.0000 0.96459  0.31876  0.05981  Biso   1.000  N
  H149     1.0000 0.95652  0.43639  0.04179  Biso   1.000  H
  H150     1.0000 0.62785  0.03042  0.95297  Biso   1.000  H
  H151     1.0000 0.66633  0.04261  0.88899  Biso   1.000  H
  H152     1.0000 0.73994  0.08122  0.94100  Biso   1.000  H
  C152     1.0000 0.34050  0.10630  0.06070  Biso   1.000  C
  C153     1.0000 0.57327  0.61548  0.97977  Biso   1.000  C
  C154     1.0000 0.89367  0.23419  0.06070  Biso   1.000  C
  C155     1.0000 0.26865  0.10958  0.09746  Biso   1.000  C
  H153     1.0000 0.37819  0.15924  0.03672  Biso   1.000  H
  H154     1.0000 0.52007  0.56361  0.95817  Biso   1.000  H
  C156     1.0000 0.61555  0.57330  0.02019  Biso   1.000  C
  H155     1.0000 0.54755  0.64968  0.00192  Biso   1.000  H
  C157     1.0000 0.89040  0.15902  0.09746  Biso   1.000  C
  H156     1.0000 0.84080  0.21901  0.03672  Biso   1.000  H
  C158     1.0000 0.26255  0.19315  0.09972  Biso   1.000  C
  C159     1.0000 0.20548  0.03284  0.13026  Biso   1.000  C
  H157     1.0000 0.64971  0.54758  0.99808  Biso   1.000  H
  N18      1.0000 0.68125  0.64583  0.05981  Biso   1.000  N
  H158     1.0000 0.56364  0.52008  0.04179  Biso   1.000  H
  C160     1.0000 0.80689  0.06939  0.09972  Biso   1.000  C
  C161     1.0000 0.96717  0.17263  0.13026  Biso   1.000  C
  O16      1.0000 0.32746  0.26867  0.06790  Biso   1.000  O
  C162     1.0000 0.19385  0.19593  0.13380  Biso   1.000  C
  H159     1.0000 0.20959  0.97642  0.12920  Biso   1.000  H
  C163     1.0000 0.13630  0.03406  0.16476  Biso   1.000  C
  C164     1.0000 0.76583  0.65951  0.06070  Biso   1.000  C
  C165     1.0000 0.80402  0.99786  0.13380  Biso   1.000  C
  O17      1.0000 0.73131  0.05878  0.06790  Biso   1.000  O
  C166     1.0000 0.96591  0.10224  0.16476  Biso   1.000  C
  H160     1.0000 0.02361  0.23319  0.12920  Biso   1.000  H
  C167     1.0000 0.32302  0.35381  0.07152  Biso   1.000  C
  C168     1.0000 0.12974  0.11670  0.16574  Biso   1.000  C
  H161     1.0000 0.19027  0.25257  0.13541  Biso   1.000  H
  C169     1.0000 0.07180  0.94528  0.19944  Biso   1.000  C
  C170     1.0000 0.84096  0.73140  0.09746  Biso   1.000  C
  H162     1.0000 0.78105  0.62182  0.03672  Biso   1.000  H
  H163     1.0000 0.74744  0.93766  0.13541  Biso   1.000  H
  C171     1.0000 0.88334  0.01311  0.16574  Biso   1.000  C
  C172     1.0000 0.64620  0.96915  0.07152  Biso   1.000  C
  C173     1.0000 0.05475  0.12653  0.19944  Biso   1.000  C
  H164     1.0000 0.37222  0.40262  0.04698  Biso   1.000  H
  H165     1.0000 0.33372  0.37633  0.11101  Biso   1.000  H
  H166     1.0000 0.26010  0.34127  0.05900  Biso   1.000  H
  C174     1.0000 0.98696  0.87026  0.16574  Biso   1.000  C
  H167     1.0000 0.04797  0.96402  0.23309  Biso   1.000  H
  H168     1.0000 0.10969  0.91693  0.21349  Biso   1.000  H
  C175     1.0000 0.93055  0.73745  0.09972  Biso   1.000  C
  C176     1.0000 0.82735  0.79452  0.13026  Biso   1.000  C
  C177     1.0000 0.87351  0.92818  0.19944  Biso   1.000  C
  H169     1.0000 0.59736  0.96958  0.04698  Biso   1.000  H
  H170     1.0000 0.62373  0.95739  0.11101  Biso   1.000  H
  H171     1.0000 0.65872  0.91878  0.05900  Biso   1.000  H
  H172     1.0000 0.03602  0.08400  0.23309  Biso   1.000  H
  H173     1.0000 0.08307  0.19279  0.21349  Biso   1.000  H
  C178     1.0000 0.89779  0.86370  0.16476  Biso   1.000  C
  C179     1.0000 0.00214  0.80621  0.13380  Biso   1.000  C
  O18      1.0000 0.94129  0.67255  0.06790  Biso   1.000  O
  H174     1.0000 0.76686  0.79039  0.12920  Biso   1.000  H
  H175     1.0000 0.91595  0.95198  0.23309  Biso   1.000  H
  H176     1.0000 0.80717  0.89028  0.21349  Biso   1.000  H
  H177     1.0000 0.06225  0.80970  0.13541  Biso   1.000  H
  C180     1.0000 0.03075  0.67697  0.07152  Biso   1.000  C
  H178     1.0000 0.03041  0.62781  0.04698  Biso   1.000  H
  H179     1.0000 0.04256  0.66628  0.11101  Biso   1.000  H
  H180     1.0000 0.08121  0.73988  0.05900  Biso   1.000  H
