data_image0
_cell_length_a       25.514
_cell_length_b       27.351
_cell_length_c       12.692
_cell_angle_alpha    90
_cell_angle_beta     90
_cell_angle_gamma    90

_symmetry_space_group_name_H-M    "P 1"
_symmetry_int_tables_number       1

loop_
  _symmetry_equiv_pos_as_xyz
  'x, y, z'

loop_
  _atom_site_label
  _atom_site_occupancy
  _atom_site_fract_x
  _atom_site_fract_y
  _atom_site_fract_z
  _atom_site_thermal_displace_type
  _atom_site_B_iso_or_equiv
  _atom_site_type_symbol
  C1       1.0000 0.60069  0.41011  0.55279  Biso   1.000  C
  C2       1.0000 0.56220  0.36660  0.54680  Biso   1.000  C
  N1       1.0000 0.64811  0.39242  0.50221  Biso   1.000  N
  N2       1.0000 0.60712  0.41669  0.66648  Biso   1.000  N
  H1       1.0000 0.58662  0.43969  0.51812  Biso   1.000  H
  N3       1.0000 0.59269  0.32909  0.48928  Biso   1.000  N
  N4       1.0000 0.55240  0.35300  0.65419  Biso   1.000  N
  H2       1.0000 0.52951  0.37531  0.50930  Biso   1.000  H
  C3       1.0000 0.64200  0.34620  0.45737  Biso   1.000  C
  C4       1.0000 0.68649  0.42788  0.46053  Biso   1.000  C
  C5       1.0000 0.57749  0.38690  0.72518  Biso   1.000  C
  C6       1.0000 0.62930  0.46130  0.70958  Biso   1.000  C
  C7       1.0000 0.56781  0.28920  0.43886  Biso   1.000  C
  C8       1.0000 0.50901  0.32540  0.68776  Biso   1.000  C
  O1       1.0000 0.67289  0.32489  0.40199  Biso   1.000  O
  H3       1.0000 0.70408  0.41392  0.39891  Biso   1.000  H
  H4       1.0000 0.66818  0.45761  0.43807  Biso   1.000  H
  N5       1.0000 0.72482  0.43998  0.53971  Biso   1.000  N
  O2       1.0000 0.57129  0.38591  0.82091  Biso   1.000  O
  H5       1.0000 0.61711  0.46499  0.78238  Biso   1.000  H
  H6       1.0000 0.61570  0.48909  0.66932  Biso   1.000  H
  N6       1.0000 0.68700  0.46349  0.70887  Biso   1.000  N
  N7       1.0000 0.55762  0.24599  0.50756  Biso   1.000  N
  H7       1.0000 0.58972  0.27871  0.37953  Biso   1.000  H
  H8       1.0000 0.53441  0.30050  0.40986  Biso   1.000  H
  N8       1.0000 0.51619  0.27290  0.67255  Biso   1.000  N
  H9       1.0000 0.47789  0.33589  0.64868  Biso   1.000  H
  H10      1.0000 0.50270  0.33180  0.76269  Biso   1.000  H
  C9       1.0000 0.77789  0.43081  0.52450  Biso   1.000  C
  C10      1.0000 0.71600  0.47951  0.61606  Biso   1.000  C
  C11      1.0000 0.71561  0.45560  0.79349  Biso   1.000  C
  C12      1.0000 0.51050  0.24771  0.57422  Biso   1.000  C
  C13      1.0000 0.57180  0.20061  0.47849  Biso   1.000  C
  C14      1.0000 0.52689  0.24120  0.75922  Biso   1.000  C
  N9       1.0000 0.80462  0.46031  0.59431  Biso   1.000  N
  O3       1.0000 0.79682  0.40244  0.46187  Biso   1.000  O
  C15      1.0000 0.77111  0.48770  0.66207  Biso   1.000  C
  H11      1.0000 0.70111  0.50930  0.58352  Biso   1.000  H
  N10      1.0000 0.76570  0.46700  0.77009  Biso   1.000  N
  O4       1.0000 0.70001  0.44243  0.88055  Biso   1.000  O
  H12      1.0000 0.47911  0.25860  0.53467  Biso   1.000  H
  C16      1.0000 0.50741  0.19180  0.60660  Biso   1.000  C
  N11      1.0000 0.54229  0.16881  0.53782  Biso   1.000  N
  O5       1.0000 0.60398  0.18943  0.41176  Biso   1.000  O
  N12      1.0000 0.52328  0.19381  0.72116  Biso   1.000  N
  O6       1.0000 0.53414  0.25377  0.84817  Biso   1.000  O
  C17      1.0000 0.86259  0.46251  0.59242  Biso   1.000  C
  H13      1.0000 0.78071  0.52269  0.66365  Biso   1.000  H
  C18      1.0000 0.80811  0.47432  0.85195  Biso   1.000  C
  H14      1.0000 0.47139  0.17879  0.59849  Biso   1.000  H
  C19      1.0000 0.54758  0.11649  0.52348  Biso   1.000  C
  C20      1.0000 0.51591  0.15520  0.78987  Biso   1.000  C
  H15      1.0000 0.87462  0.45380  0.52151  Biso   1.000  H
  H16      1.0000 0.87348  0.49622  0.60605  Biso   1.000  H
  N13      1.0000 0.88740  0.43179  0.66506  Biso   1.000  N
  H17      1.0000 0.82320  0.50700  0.84368  Biso   1.000  H
  H18      1.0000 0.79251  0.47241  0.92247  Biso   1.000  H
  N14      1.0000 0.84851  0.43900  0.84344  Biso   1.000  N
  H19      1.0000 0.56569  0.11001  0.45682  Biso   1.000  H
  H20      1.0000 0.51282  0.10161  0.51970  Biso   1.000  H
  N15      1.0000 0.57780  0.09371  0.61212  Biso   1.000  N
  H21      1.0000 0.48181  0.14040  0.77450  Biso   1.000  H
  H22      1.0000 0.51431  0.16829  0.86165  Biso   1.000  H
  N16      1.0000 0.55499  0.11722  0.78735  Biso   1.000  N
  C21      1.0000 0.91679  0.39410  0.63702  Biso   1.000  C
  C22      1.0000 0.89402  0.44719  0.78010  Biso   1.000  C
  C23      1.0000 0.86141  0.40770  0.92554  Biso   1.000  C
  C24      1.0000 0.62421  0.06888  0.58785  Biso   1.000  C
  C25      1.0000 0.55479  0.07879  0.71100  Biso   1.000  C
  C26      1.0000 0.58591  0.10639  0.87275  Biso   1.000  C
  N17      1.0000 0.94548  0.37958  0.72920  Biso   1.000  N
  O7       1.0000 0.92208  0.37651  0.55476  Biso   1.000  O
  C27      1.0000 0.93451  0.40978  0.81516  Biso   1.000  C
  H23      1.0000 0.90711  0.48112  0.78656  Biso   1.000  H
  N18      1.0000 0.90919  0.38631  0.90545  Biso   1.000  N
  O8       1.0000 0.83272  0.39900  0.00205  Biso   1.000  O
  N19      1.0000 0.63698  0.04131  0.67531  Biso   1.000  N
  O9       1.0000 0.64800  0.07115  0.50181  Biso   1.000  O
  H24      1.0000 0.51999  0.06322  0.70257  Biso   1.000  H
  C28      1.0000 0.59791  0.04259  0.75418  Biso   1.000  C
  N20      1.0000 0.61460  0.06490  0.84967  Biso   1.000  N
  O10      1.0000 0.58830  0.13056  0.95667  Biso   1.000  O
  C29      1.0000 0.98769  0.34372  0.72479  Biso   1.000  C
  H25      1.0000 0.96688  0.42660  0.83840  Biso   1.000  H
  C30      1.0000 0.93870  0.36141  0.98834  Biso   1.000  C
  C31      1.0000 0.67822  0.00622  0.67050  Biso   1.000  C
  H26      1.0000 0.58309  0.00969  0.76710  Biso   1.000  H
  C32      1.0000 0.64290  0.03791  0.93027  Biso   1.000  C
  H27      1.0000 0.99420  0.33469  0.65120  Biso   1.000  H
  N21      1.0000 0.97468  0.29889  0.78601  Biso   1.000  N
  H28      1.0000 0.01991  0.35820  0.75307  Biso   1.000  H
  H29      1.0000 0.97221  0.37830  0.99850  Biso   1.000  H
  N22      1.0000 0.94881  0.31121  0.96667  Biso   1.000  N
  H30      1.0000 0.91899  0.36372  0.05460  Biso   1.000  H
  H31      1.0000 0.69099  0.00431  0.59778  Biso   1.000  H
  N23      1.0000 0.72109  0.01642  0.73747  Biso   1.000  N
  H32      1.0000 0.66391  0.97400  0.68902  Biso   1.000  H
  H33      1.0000 0.63440  0.05210  0.99905  Biso   1.000  H
  H34      1.0000 0.63009  0.00409  0.93051  Biso   1.000  H
  N24      1.0000 0.69871  0.03689  0.91924  Biso   1.000  N
  C33      1.0000 0.96668  0.25560  0.73416  Biso   1.000  C
  C34      1.0000 0.98808  0.29312  0.89411  Biso   1.000  C
  C35      1.0000 0.92780  0.27341  0.02639  Biso   1.000  C
  C36      1.0000 0.77009  0.02790  0.69847  Biso   1.000  C
  C37      1.0000 0.72450  0.00241  0.84691  Biso   1.000  C
  C38      1.0000 0.73399  0.05758  0.98338  Biso   1.000  C
  N25      1.0000 0.97080  0.21959  0.80988  Biso   1.000  N
  O11      1.0000 0.95579  0.24994  0.64300  Biso   1.000  O
  C39      1.0000 0.98840  0.23820  0.90994  Biso   1.000  C
  H35      1.0000 0.02289  0.30748  0.90931  Biso   1.000  H
  N26      1.0000 0.94662  0.23059  0.99141  Biso   1.000  N
  O12      1.0000 0.89590  0.27973  0.10030  Biso   1.000  O
  N27      1.0000 0.80618  0.02431  0.78199  Biso   1.000  N
  O13      1.0000 0.78090  0.03850  0.60755  Biso   1.000  O
  C40      1.0000 0.78232  0.00629  0.87685  Biso   1.000  C
  H36      1.0000 0.71141  0.96870  0.85771  Biso   1.000  H
  N28      1.0000 0.78232  0.04201  0.96470  Biso   1.000  N
  O14      1.0000 0.72109  0.08610  0.05610  Biso   1.000  O
  C41      1.0000 0.97691  0.16720  0.77726  Biso   1.000  C
  H37      1.0000 0.02309  0.22529  0.93145  Biso   1.000  H
  C42      1.0000 0.94619  0.18870  0.05539  Biso   1.000  C
  C43      1.0000 0.86180  0.02980  0.76615  Biso   1.000  C
  H38      1.0000 0.79709  0.97441  0.89844  Biso   1.000  H
  C44      1.0000 0.82602  0.04760  0.03380  Biso   1.000  C
  N29      1.0000 0.93592  0.13751  0.82107  Biso   1.000  N
  H39      1.0000 0.97601  0.16500  0.70028  Biso   1.000  H
  H40      1.0000 0.01101  0.15499  0.80129  Biso   1.000  H
  N30      1.0000 0.91769  0.14701  0.00859  Biso   1.000  N
  H41      1.0000 0.93000  0.19688  0.12315  Biso   1.000  H
  H42      1.0000 0.98240  0.17879  0.06926  Biso   1.000  H
  H43      1.0000 0.87920  0.00058  0.79396  Biso   1.000  H
  H44      1.0000 0.86850  0.03078  0.69028  Biso   1.000  H
  N31      1.0000 0.88520  0.07151  0.81295  Biso   1.000  N
  N32      1.0000 0.86360  0.08351  0.99968  Biso   1.000  N
  H45      1.0000 0.84381  0.01601  0.04058  Biso   1.000  H
  H46      1.0000 0.81308  0.05682  0.10377  Biso   1.000  H
  C45      1.0000 0.90441  0.10910  0.75827  Biso   1.000  C
  C46      1.0000 0.93870  0.11689  0.92468  Biso   1.000  C
  C47      1.0000 0.87438  0.12500  0.05358  Biso   1.000  C
  C48      1.0000 0.90319  0.07170  0.92011  Biso   1.000  C
  O15      1.0000 0.89759  0.11671  0.66065  Biso   1.000  O
  H47      1.0000 0.97519  0.10720  0.94114  Biso   1.000  H
  O16      1.0000 0.85051  0.14149  0.12929  Biso   1.000  O
  H48      1.0000 0.92251  0.04139  0.93768  Biso   1.000  H
  C49      1.0000 0.39931  0.58989  0.55279  Biso   1.000  C
  N33      1.0000 0.35189  0.60758  0.50221  Biso   1.000  N
  N34      1.0000 0.39288  0.58331  0.66648  Biso   1.000  N
  H49      1.0000 0.41338  0.56031  0.51812  Biso   1.000  H
  C50      1.0000 0.43780  0.63340  0.54680  Biso   1.000  C
  C51      1.0000 0.31351  0.57212  0.46053  Biso   1.000  C
  C52      1.0000 0.35800  0.65380  0.45737  Biso   1.000  C
  C53      1.0000 0.37070  0.53870  0.70958  Biso   1.000  C
  C54      1.0000 0.42251  0.61310  0.72518  Biso   1.000  C
  N35      1.0000 0.40731  0.67091  0.48928  Biso   1.000  N
  N36      1.0000 0.44760  0.64700  0.65419  Biso   1.000  N
  H50      1.0000 0.47049  0.62469  0.50930  Biso   1.000  H
  N37      1.0000 0.27518  0.56002  0.53971  Biso   1.000  N
  H51      1.0000 0.29592  0.58608  0.39891  Biso   1.000  H
  H52      1.0000 0.33182  0.54239  0.43807  Biso   1.000  H
  O17      1.0000 0.32711  0.67511  0.40199  Biso   1.000  O
  N38      1.0000 0.31300  0.53651  0.70887  Biso   1.000  N
  H53      1.0000 0.38289  0.53501  0.78238  Biso   1.000  H
  H54      1.0000 0.38430  0.51091  0.66932  Biso   1.000  H
  O18      1.0000 0.42871  0.61409  0.82091  Biso   1.000  O
  C55      1.0000 0.43219  0.71080  0.43886  Biso   1.000  C
  C56      1.0000 0.49099  0.67460  0.68776  Biso   1.000  C
  C57      1.0000 0.28400  0.52049  0.61606  Biso   1.000  C
  C58      1.0000 0.22211  0.56919  0.52450  Biso   1.000  C
  C59      1.0000 0.28439  0.54440  0.79349  Biso   1.000  C
  H55      1.0000 0.41028  0.72129  0.37953  Biso   1.000  H
  H56      1.0000 0.46559  0.69950  0.40986  Biso   1.000  H
  N39      1.0000 0.44238  0.75401  0.50756  Biso   1.000  N
  H57      1.0000 0.52211  0.66411  0.64868  Biso   1.000  H
  H58      1.0000 0.49730  0.66820  0.76269  Biso   1.000  H
  N40      1.0000 0.48381  0.72710  0.67255  Biso   1.000  N
  C60      1.0000 0.22889  0.51230  0.66207  Biso   1.000  C
  H59      1.0000 0.29889  0.49070  0.58352  Biso   1.000  H
  N41      1.0000 0.19538  0.53969  0.59431  Biso   1.000  N
  O19      1.0000 0.20318  0.59756  0.46187  Biso   1.000  O
  N42      1.0000 0.23430  0.53300  0.77009  Biso   1.000  N
  O20      1.0000 0.29999  0.55757  0.88055  Biso   1.000  O
  C61      1.0000 0.42820  0.79939  0.47849  Biso   1.000  C
  C62      1.0000 0.48950  0.75229  0.57422  Biso   1.000  C
  C63      1.0000 0.47311  0.75880  0.75922  Biso   1.000  C
  H60      1.0000 0.21929  0.47731  0.66365  Biso   1.000  H
  C64      1.0000 0.13741  0.53749  0.59242  Biso   1.000  C
  C65      1.0000 0.19189  0.52568  0.85195  Biso   1.000  C
  N43      1.0000 0.45771  0.83119  0.53782  Biso   1.000  N
  O21      1.0000 0.39602  0.81057  0.41176  Biso   1.000  O
  H61      1.0000 0.52089  0.74140  0.53467  Biso   1.000  H
  C66      1.0000 0.49259  0.80820  0.60660  Biso   1.000  C
  N44      1.0000 0.47672  0.80619  0.72116  Biso   1.000  N
  O22      1.0000 0.46586  0.74623  0.84817  Biso   1.000  O
  H62      1.0000 0.12538  0.54620  0.52151  Biso   1.000  H
  H63      1.0000 0.12652  0.50378  0.60605  Biso   1.000  H
  N45      1.0000 0.11260  0.56821  0.66506  Biso   1.000  N
  H64      1.0000 0.17680  0.49300  0.84368  Biso   1.000  H
  H65      1.0000 0.20749  0.52759  0.92247  Biso   1.000  H
  N46      1.0000 0.15149  0.56100  0.84344  Biso   1.000  N
  C67      1.0000 0.45242  0.88351  0.52348  Biso   1.000  C
  H66      1.0000 0.52861  0.82121  0.59849  Biso   1.000  H
  C68      1.0000 0.48409  0.84480  0.78987  Biso   1.000  C
  C69      1.0000 0.08321  0.60590  0.63702  Biso   1.000  C
  C70      1.0000 0.10598  0.55281  0.78010  Biso   1.000  C
  C71      1.0000 0.13859  0.59230  0.92554  Biso   1.000  C
  H67      1.0000 0.43431  0.88999  0.45682  Biso   1.000  H
  H68      1.0000 0.48718  0.89839  0.51970  Biso   1.000  H
  N47      1.0000 0.42220  0.90629  0.61212  Biso   1.000  N
  H69      1.0000 0.51819  0.85960  0.77450  Biso   1.000  H
  H70      1.0000 0.48569  0.83171  0.86165  Biso   1.000  H
  N48      1.0000 0.44501  0.88278  0.78735  Biso   1.000  N
  N49      1.0000 0.05452  0.62042  0.72920  Biso   1.000  N
  O23      1.0000 0.07792  0.62349  0.55476  Biso   1.000  O
  C72      1.0000 0.06549  0.59022  0.81516  Biso   1.000  C
  H71      1.0000 0.09289  0.51888  0.78656  Biso   1.000  H
  N50      1.0000 0.09081  0.61369  0.90545  Biso   1.000  N
  O24      1.0000 0.16728  0.60100  0.00205  Biso   1.000  O
  C73      1.0000 0.37579  0.93112  0.58785  Biso   1.000  C
  C74      1.0000 0.44521  0.92121  0.71100  Biso   1.000  C
  C75      1.0000 0.41409  0.89361  0.87275  Biso   1.000  C
  C76      1.0000 0.01231  0.65628  0.72479  Biso   1.000  C
  H72      1.0000 0.03312  0.57340  0.83840  Biso   1.000  H
  C77      1.0000 0.06130  0.63859  0.98834  Biso   1.000  C
  N51      1.0000 0.36302  0.95869  0.67531  Biso   1.000  N
  O25      1.0000 0.35200  0.92885  0.50181  Biso   1.000  O
  H73      1.0000 0.48001  0.93678  0.70257  Biso   1.000  H
  C78      1.0000 0.40209  0.95741  0.75418  Biso   1.000  C
  N52      1.0000 0.38540  0.93510  0.84967  Biso   1.000  N
  O26      1.0000 0.41170  0.86944  0.95667  Biso   1.000  O
  H74      1.0000 0.00580  0.66531  0.65120  Biso   1.000  H
  N53      1.0000 0.02532  0.70111  0.78601  Biso   1.000  N
  H75      1.0000 0.98009  0.64180  0.75307  Biso   1.000  H
  H76      1.0000 0.02779  0.62170  0.99850  Biso   1.000  H
  N54      1.0000 0.05119  0.68879  0.96667  Biso   1.000  N
  H77      1.0000 0.08101  0.63628  0.05460  Biso   1.000  H
  C79      1.0000 0.32178  0.99378  0.67050  Biso   1.000  C
  H78      1.0000 0.41691  0.99031  0.76710  Biso   1.000  H
  C80      1.0000 0.35710  0.96209  0.93027  Biso   1.000  C
  C81      1.0000 0.03332  0.74440  0.73416  Biso   1.000  C
  C82      1.0000 0.01192  0.70688  0.89411  Biso   1.000  C
  C83      1.0000 0.07220  0.72659  0.02639  Biso   1.000  C
  H79      1.0000 0.30901  0.99569  0.59778  Biso   1.000  H
  N55      1.0000 0.27891  0.98358  0.73747  Biso   1.000  N
  H80      1.0000 0.33609  0.02600  0.68902  Biso   1.000  H
  H81      1.0000 0.36560  0.94790  0.99905  Biso   1.000  H
  H82      1.0000 0.36991  0.99591  0.93051  Biso   1.000  H
  N56      1.0000 0.30129  0.96311  0.91924  Biso   1.000  N
  N57      1.0000 0.02920  0.78041  0.80988  Biso   1.000  N
  O27      1.0000 0.04421  0.75006  0.64300  Biso   1.000  O
  C84      1.0000 0.01160  0.76180  0.90994  Biso   1.000  C
  H83      1.0000 0.97711  0.69252  0.90931  Biso   1.000  H
  N58      1.0000 0.05338  0.76941  0.99141  Biso   1.000  N
  O28      1.0000 0.10410  0.72027  0.10030  Biso   1.000  O
  C85      1.0000 0.22991  0.97210  0.69847  Biso   1.000  C
  C86      1.0000 0.27550  0.99759  0.84691  Biso   1.000  C
  C87      1.0000 0.26601  0.94242  0.98338  Biso   1.000  C
  C88      1.0000 0.02309  0.83280  0.77726  Biso   1.000  C
  H84      1.0000 0.97691  0.77471  0.93145  Biso   1.000  H
  C89      1.0000 0.05381  0.81130  0.05539  Biso   1.000  C
  N59      1.0000 0.19382  0.97569  0.78199  Biso   1.000  N
  O29      1.0000 0.21910  0.96150  0.60755  Biso   1.000  O
  C90      1.0000 0.21768  0.99371  0.87685  Biso   1.000  C
  H85      1.0000 0.28859  0.03130  0.85771  Biso   1.000  H
  N60      1.0000 0.21768  0.95799  0.96470  Biso   1.000  N
  O30      1.0000 0.27891  0.91390  0.05610  Biso   1.000  O
  H86      1.0000 0.02399  0.83500  0.70028  Biso   1.000  H
  N61      1.0000 0.06408  0.86249  0.82107  Biso   1.000  N
  H87      1.0000 0.98899  0.84501  0.80129  Biso   1.000  H
  H88      1.0000 0.07000  0.80312  0.12315  Biso   1.000  H
  H89      1.0000 0.01760  0.82121  0.06926  Biso   1.000  H
  N62      1.0000 0.08231  0.85299  0.00859  Biso   1.000  N
  C91      1.0000 0.13820  0.97020  0.76615  Biso   1.000  C
  H90      1.0000 0.20291  0.02559  0.89844  Biso   1.000  H
  C92      1.0000 0.17398  0.95240  0.03380  Biso   1.000  C
  C93      1.0000 0.09559  0.89090  0.75827  Biso   1.000  C
  C94      1.0000 0.06130  0.88311  0.92468  Biso   1.000  C
  C95      1.0000 0.12562  0.87500  0.05358  Biso   1.000  C
  N63      1.0000 0.11480  0.92849  0.81295  Biso   1.000  N
  H91      1.0000 0.12080  0.99942  0.79396  Biso   1.000  H
  H92      1.0000 0.13150  0.96922  0.69028  Biso   1.000  H
  N64      1.0000 0.13640  0.91649  0.99968  Biso   1.000  N
  H93      1.0000 0.15619  0.98399  0.04058  Biso   1.000  H
  H94      1.0000 0.18692  0.94318  0.10377  Biso   1.000  H
  O31      1.0000 0.10241  0.88329  0.66065  Biso   1.000  O
  C96      1.0000 0.09681  0.92830  0.92011  Biso   1.000  C
  H95      1.0000 0.02481  0.89280  0.94114  Biso   1.000  H
  O32      1.0000 0.14949  0.85851  0.12929  Biso   1.000  O
  H96      1.0000 0.07749  0.95861  0.93768  Biso   1.000  H
  O33      1.0000 0.39759  0.38331  0.33927  Biso   1.000  O
  C97      1.0000 0.40441  0.39092  0.24173  Biso   1.000  C
  N65      1.0000 0.43592  0.36251  0.17893  Biso   1.000  N
  N66      1.0000 0.38520  0.42850  0.18697  Biso   1.000  N
  C98      1.0000 0.47691  0.33278  0.22266  Biso   1.000  C
  C99      1.0000 0.43870  0.38309  0.07532  Biso   1.000  C
  C100     1.0000 0.40319  0.42828  0.07989  Biso   1.000  C
  C101     1.0000 0.36180  0.47018  0.23377  Biso   1.000  C
  N67      1.0000 0.47080  0.28039  0.19012  Biso   1.000  N
  H97      1.0000 0.47601  0.33502  0.29972  Biso   1.000  H
  H98      1.0000 0.51101  0.34500  0.19871  Biso   1.000  H
  H99      1.0000 0.47519  0.39278  0.05878  Biso   1.000  H
  N68      1.0000 0.41769  0.35300  0.99141  Biso   1.000  N
  H100     1.0000 0.42251  0.45859  0.06232  Biso   1.000  H
  N69      1.0000 0.36360  0.41651  0.00032  Biso   1.000  N
  H101     1.0000 0.37920  0.49940  0.20596  Biso   1.000  H
  H102     1.0000 0.36850  0.46920  0.30972  Biso   1.000  H
  N70      1.0000 0.30618  0.47570  0.21801  Biso   1.000  N
  C102     1.0000 0.46668  0.24442  0.26576  Biso   1.000  C
  C103     1.0000 0.48840  0.26178  0.08998  Biso   1.000  C
  C104     1.0000 0.44619  0.31129  0.94461  Biso   1.000  C
  C105     1.0000 0.37438  0.37501  0.94642  Biso   1.000  C
  C106     1.0000 0.32602  0.45241  0.96620  Biso   1.000  C
  C107     1.0000 0.27009  0.47209  0.30153  Biso   1.000  C
  C108     1.0000 0.28232  0.49369  0.12307  Biso   1.000  C
  O34      1.0000 0.45579  0.25008  0.35700  Biso   1.000  O
  N71      1.0000 0.47468  0.20109  0.21399  Biso   1.000  N
  C109     1.0000 0.48808  0.20690  0.10589  Biso   1.000  C
  H103     1.0000 0.52309  0.27469  0.06847  Biso   1.000  H
  N72      1.0000 0.44662  0.26939  0.00859  Biso   1.000  N
  H104     1.0000 0.43000  0.30310  0.87677  Biso   1.000  H
  H105     1.0000 0.48240  0.32119  0.93066  Biso   1.000  H
  O35      1.0000 0.35051  0.35849  0.87071  Biso   1.000  O
  N73      1.0000 0.28232  0.45801  0.03530  Biso   1.000  N
  H106     1.0000 0.34381  0.48400  0.95942  Biso   1.000  H
  H107     1.0000 0.31308  0.44320  0.89623  Biso   1.000  H
  N74      1.0000 0.22109  0.48360  0.26253  Biso   1.000  N
  O36      1.0000 0.28090  0.46148  0.39237  Biso   1.000  O
  C110     1.0000 0.22450  0.49761  0.15309  Biso   1.000  C
  H108     1.0000 0.29709  0.52561  0.10148  Biso   1.000  H
  C111     1.0000 0.48769  0.15630  0.27521  Biso   1.000  C
  H109     1.0000 0.52289  0.19250  0.09069  Biso   1.000  H
  N75      1.0000 0.44881  0.18880  0.03333  Biso   1.000  N
  C112     1.0000 0.42780  0.22661  0.97361  Biso   1.000  C
  C113     1.0000 0.23399  0.44240  0.01662  Biso   1.000  C
  C114     1.0000 0.17822  0.49380  0.32950  Biso   1.000  C
  H110     1.0000 0.21141  0.53132  0.14229  Biso   1.000  H
  N76      1.0000 0.19871  0.46309  0.08068  Biso   1.000  N
  H111     1.0000 0.51991  0.14179  0.24693  Biso   1.000  H
  H112     1.0000 0.49420  0.16530  0.34880  Biso   1.000  H
  N77      1.0000 0.44548  0.12040  0.27080  Biso   1.000  N
  C115     1.0000 0.43870  0.13861  0.01158  Biso   1.000  C
  O37      1.0000 0.39590  0.22025  0.89970  Biso   1.000  O
  O38      1.0000 0.22109  0.41388  0.94390  Biso   1.000  O
  H113     1.0000 0.16391  0.52601  0.31098  Biso   1.000  H
  H114     1.0000 0.19099  0.49570  0.40222  Biso   1.000  H
  N78      1.0000 0.13698  0.45870  0.32469  Biso   1.000  N
  C116     1.0000 0.14290  0.46210  0.06973  Biso   1.000  C
  C117     1.0000 0.41679  0.10588  0.36298  Biso   1.000  C
  C118     1.0000 0.43451  0.09020  0.18476  Biso   1.000  C
  H115     1.0000 0.47221  0.12171  0.00150  Biso   1.000  H
  N79      1.0000 0.40919  0.11371  0.09447  Biso   1.000  N
  H116     1.0000 0.41899  0.13630  0.94540  Biso   1.000  H
  C119     1.0000 0.12421  0.43110  0.41207  Biso   1.000  C
  C120     1.0000 0.09791  0.45739  0.24582  Biso   1.000  C
  H117     1.0000 0.13440  0.44792  0.00087  Biso   1.000  H
  H118     1.0000 0.13009  0.49589  0.06949  Biso   1.000  H
  N80      1.0000 0.11460  0.43508  0.15033  Biso   1.000  N
  N81      1.0000 0.38740  0.06819  0.33486  Biso   1.000  N
  O39      1.0000 0.42208  0.12351  0.44516  Biso   1.000  O
  H119     1.0000 0.46688  0.07342  0.16160  Biso   1.000  H
  C121     1.0000 0.39402  0.05280  0.21990  Biso   1.000  C
  C122     1.0000 0.36141  0.09228  0.07438  Biso   1.000  C
  N82      1.0000 0.07780  0.40631  0.38788  Biso   1.000  N
  O40      1.0000 0.14800  0.42883  0.49819  Biso   1.000  O
  C123     1.0000 0.05479  0.42119  0.28900  Biso   1.000  C
  H120     1.0000 0.08309  0.49029  0.23290  Biso   1.000  H
  C124     1.0000 0.08591  0.39359  0.12717  Biso   1.000  C
  C125     1.0000 0.36259  0.03751  0.40758  Biso   1.000  C
  H121     1.0000 0.40711  0.01890  0.21336  Biso   1.000  H
  N83      1.0000 0.34851  0.06098  0.15648  Biso   1.000  N
  O41      1.0000 0.33272  0.10098  0.99787  Biso   1.000  O
  C126     1.0000 0.04758  0.38350  0.47652  Biso   1.000  C
  H122     1.0000 0.01999  0.43680  0.29743  Biso   1.000  H
  N84      1.0000 0.05499  0.38280  0.21257  Biso   1.000  N
  O42      1.0000 0.08830  0.36942  0.04333  Biso   1.000  O
  H123     1.0000 0.37462  0.04621  0.47849  Biso   1.000  H
  H124     1.0000 0.37348  0.00380  0.39387  Biso   1.000  H
  N85      1.0000 0.30462  0.03971  0.40569  Biso   1.000  N
  C127     1.0000 0.30811  0.02570  0.14797  Biso   1.000  C
  H125     1.0000 0.06569  0.39000  0.54318  Biso   1.000  H
  H126     1.0000 0.01282  0.39841  0.48030  Biso   1.000  H
  N86      1.0000 0.04229  0.33121  0.46218  Biso   1.000  N
  C128     1.0000 0.01591  0.34481  0.21013  Biso   1.000  C
  C129     1.0000 0.27789  0.06921  0.47550  Biso   1.000  C
  C130     1.0000 0.27111  0.01228  0.33793  Biso   1.000  C
  H127     1.0000 0.29251  0.02760  0.07753  Biso   1.000  H
  N87      1.0000 0.26570  0.03302  0.22991  Biso   1.000  N
  H128     1.0000 0.32320  0.99302  0.15632  Biso   1.000  H
  C131     1.0000 0.07180  0.29940  0.52151  Biso   1.000  C
  C132     1.0000 0.00741  0.30822  0.39340  Biso   1.000  C
  H129     1.0000 0.01431  0.33169  0.13828  Biso   1.000  H
  N88      1.0000 0.02328  0.30620  0.27876  Biso   1.000  N
  H130     1.0000 0.98181  0.35958  0.22550  Biso   1.000  H
  N89      1.0000 0.22482  0.06000  0.46029  Biso   1.000  N
  O43      1.0000 0.29682  0.09758  0.53806  Biso   1.000  O
  C133     1.0000 0.21600  0.02051  0.38386  Biso   1.000  C
  H131     1.0000 0.28071  0.97730  0.33627  Biso   1.000  H
  C134     1.0000 0.21561  0.04439  0.20651  Biso   1.000  C
  N90      1.0000 0.05762  0.25399  0.49236  Biso   1.000  N
  O44      1.0000 0.10398  0.31059  0.58817  Biso   1.000  O
  C135     1.0000 0.01050  0.25231  0.42578  Biso   1.000  C
  H132     1.0000 0.97139  0.32119  0.40151  Biso   1.000  H
  C136     1.0000 0.02689  0.25878  0.24078  Biso   1.000  C
  C137     1.0000 0.18649  0.07210  0.53947  Biso   1.000  C
  N91      1.0000 0.18700  0.03649  0.29113  Biso   1.000  N
  H133     1.0000 0.20111  0.99071  0.41648  Biso   1.000  H
  O45      1.0000 0.20001  0.05755  0.11937  Biso   1.000  O
  C138     1.0000 0.06781  0.21081  0.56106  Biso   1.000  C
  N92      1.0000 0.01619  0.22708  0.32737  Biso   1.000  N
  H134     1.0000 0.97911  0.24142  0.46525  Biso   1.000  H
  O46      1.0000 0.03414  0.24624  0.15183  Biso   1.000  O
  H135     1.0000 0.20408  0.08610  0.60109  Biso   1.000  H
  H136     1.0000 0.16818  0.04241  0.56185  Biso   1.000  H
  N93      1.0000 0.14811  0.10760  0.49779  Biso   1.000  N
  C139     1.0000 0.12930  0.03868  0.29042  Biso   1.000  C
  N94      1.0000 0.09269  0.17089  0.51072  Biso   1.000  N
  H137     1.0000 0.08972  0.22131  0.62047  Biso   1.000  H
  H138     1.0000 0.03441  0.19952  0.59006  Biso   1.000  H
  C140     1.0000 0.00901  0.17458  0.31217  Biso   1.000  C
  C141     1.0000 0.14200  0.15382  0.54263  Biso   1.000  C
  C142     1.0000 0.10069  0.08991  0.44721  Biso   1.000  C
  H139     1.0000 0.11711  0.03499  0.21762  Biso   1.000  H
  H140     1.0000 0.11570  0.01090  0.33068  Biso   1.000  H
  N95      1.0000 0.10712  0.08329  0.33352  Biso   1.000  N
  C143     1.0000 0.06220  0.13341  0.45320  Biso   1.000  C
  N96      1.0000 0.05240  0.14701  0.34581  Biso   1.000  N
  H141     1.0000 0.00270  0.16818  0.23731  Biso   1.000  H
  H142     1.0000 0.97789  0.16409  0.35132  Biso   1.000  H
  O47      1.0000 0.17289  0.17509  0.59801  Biso   1.000  O
  H143     1.0000 0.08662  0.06029  0.48188  Biso   1.000  H
  C144     1.0000 0.07749  0.11309  0.27482  Biso   1.000  C
  H144     1.0000 0.02951  0.12471  0.49070  Biso   1.000  H
  O48      1.0000 0.07129  0.11411  0.17909  Biso   1.000  O
  O49      1.0000 0.60241  0.61669  0.33927  Biso   1.000  O
  C145     1.0000 0.59559  0.60908  0.24173  Biso   1.000  C
  N97      1.0000 0.61480  0.57150  0.18697  Biso   1.000  N
  N98      1.0000 0.56408  0.63749  0.17893  Biso   1.000  N
  C146     1.0000 0.63820  0.52982  0.23377  Biso   1.000  C
  C147     1.0000 0.59681  0.57172  0.07989  Biso   1.000  C
  C148     1.0000 0.56130  0.61691  0.07532  Biso   1.000  C
  C149     1.0000 0.52309  0.66722  0.22266  Biso   1.000  C
  H145     1.0000 0.62080  0.50060  0.20596  Biso   1.000  H
  H146     1.0000 0.63150  0.53080  0.30972  Biso   1.000  H
  N99      1.0000 0.69382  0.52430  0.21801  Biso   1.000  N
  H147     1.0000 0.57749  0.54141  0.06232  Biso   1.000  H
  N100     1.0000 0.63640  0.58349  0.00032  Biso   1.000  N
  H148     1.0000 0.52481  0.60722  0.05878  Biso   1.000  H
  N101     1.0000 0.58231  0.64700  0.99141  Biso   1.000  N
  H149     1.0000 0.52399  0.66498  0.29972  Biso   1.000  H
  H150     1.0000 0.48899  0.65500  0.19871  Biso   1.000  H
  N102     1.0000 0.52920  0.71961  0.19012  Biso   1.000  N
  C150     1.0000 0.72991  0.52791  0.30153  Biso   1.000  C
  C151     1.0000 0.71768  0.50631  0.12307  Biso   1.000  C
  C152     1.0000 0.67398  0.54759  0.96620  Biso   1.000  C
  C153     1.0000 0.62562  0.62499  0.94642  Biso   1.000  C
  C154     1.0000 0.55381  0.68871  0.94461  Biso   1.000  C
  C155     1.0000 0.53332  0.75558  0.26576  Biso   1.000  C
  C156     1.0000 0.51160  0.73822  0.08998  Biso   1.000  C
  N103     1.0000 0.77891  0.51640  0.26253  Biso   1.000  N
  O50      1.0000 0.71910  0.53852  0.39237  Biso   1.000  O
  C157     1.0000 0.77550  0.50239  0.15309  Biso   1.000  C
  H151     1.0000 0.70291  0.47439  0.10148  Biso   1.000  H
  N104     1.0000 0.71768  0.54199  0.03530  Biso   1.000  N
  H152     1.0000 0.65619  0.51600  0.95942  Biso   1.000  H
  H153     1.0000 0.68692  0.55680  0.89623  Biso   1.000  H
  O51      1.0000 0.64949  0.64151  0.87071  Biso   1.000  O
  N105     1.0000 0.55338  0.73061  0.00859  Biso   1.000  N
  H154     1.0000 0.57000  0.69690  0.87677  Biso   1.000  H
  H155     1.0000 0.51760  0.67881  0.93066  Biso   1.000  H
  N106     1.0000 0.52532  0.79891  0.21399  Biso   1.000  N
  O52      1.0000 0.54421  0.74992  0.35700  Biso   1.000  O
  H156     1.0000 0.47691  0.72531  0.06847  Biso   1.000  H
  C158     1.0000 0.51192  0.79310  0.10589  Biso   1.000  C
  C159     1.0000 0.82178  0.50620  0.32950  Biso   1.000  C
  H157     1.0000 0.78859  0.46868  0.14229  Biso   1.000  H
  N107     1.0000 0.80129  0.53691  0.08068  Biso   1.000  N
  C160     1.0000 0.76601  0.55760  0.01662  Biso   1.000  C
  C161     1.0000 0.57220  0.77339  0.97361  Biso   1.000  C
  C162     1.0000 0.51231  0.84370  0.27521  Biso   1.000  C
  H158     1.0000 0.47711  0.80750  0.09069  Biso   1.000  H
  N108     1.0000 0.55119  0.81120  0.03333  Biso   1.000  N
  H159     1.0000 0.83609  0.47399  0.31098  Biso   1.000  H
  H160     1.0000 0.80901  0.50430  0.40222  Biso   1.000  H
  N109     1.0000 0.86302  0.54130  0.32469  Biso   1.000  N
  C163     1.0000 0.85710  0.53790  0.06973  Biso   1.000  C
  O53      1.0000 0.77891  0.58612  0.94390  Biso   1.000  O
  O54      1.0000 0.60410  0.77975  0.89970  Biso   1.000  O
  H161     1.0000 0.48009  0.85821  0.24693  Biso   1.000  H
  H162     1.0000 0.50580  0.83470  0.34880  Biso   1.000  H
  N110     1.0000 0.55452  0.87960  0.27080  Biso   1.000  N
  C164     1.0000 0.56130  0.86139  0.01158  Biso   1.000  C
  C165     1.0000 0.87579  0.56890  0.41207  Biso   1.000  C
  C166     1.0000 0.90209  0.54261  0.24582  Biso   1.000  C
  H163     1.0000 0.86560  0.55208  0.00087  Biso   1.000  H
  H164     1.0000 0.86991  0.50411  0.06949  Biso   1.000  H
  N111     1.0000 0.88540  0.56492  0.15033  Biso   1.000  N
  C167     1.0000 0.58321  0.89412  0.36298  Biso   1.000  C
  C168     1.0000 0.56549  0.90980  0.18476  Biso   1.000  C
  H165     1.0000 0.52779  0.87829  0.00150  Biso   1.000  H
  N112     1.0000 0.59081  0.88629  0.09447  Biso   1.000  N
  H166     1.0000 0.58101  0.86370  0.94540  Biso   1.000  H
  N113     1.0000 0.92220  0.59369  0.38788  Biso   1.000  N
  O55      1.0000 0.85200  0.57117  0.49819  Biso   1.000  O
  C169     1.0000 0.94521  0.57881  0.28900  Biso   1.000  C
  H167     1.0000 0.91691  0.50971  0.23290  Biso   1.000  H
  C170     1.0000 0.91409  0.60641  0.12717  Biso   1.000  C
  N114     1.0000 0.61260  0.93181  0.33486  Biso   1.000  N
  O56      1.0000 0.57792  0.87649  0.44516  Biso   1.000  O
  H168     1.0000 0.53312  0.92658  0.16160  Biso   1.000  H
  C171     1.0000 0.60598  0.94720  0.21990  Biso   1.000  C
  C172     1.0000 0.63859  0.90772  0.07438  Biso   1.000  C
  C173     1.0000 0.95242  0.61650  0.47652  Biso   1.000  C
  H169     1.0000 0.98001  0.56320  0.29743  Biso   1.000  H
  N115     1.0000 0.94501  0.61720  0.21257  Biso   1.000  N
  O57      1.0000 0.91170  0.63058  0.04333  Biso   1.000  O
  C174     1.0000 0.63741  0.96249  0.40758  Biso   1.000  C
  H170     1.0000 0.59289  0.98110  0.21336  Biso   1.000  H
  N116     1.0000 0.65149  0.93902  0.15648  Biso   1.000  N
  O58      1.0000 0.66728  0.89902  0.99787  Biso   1.000  O
  H171     1.0000 0.93431  0.61000  0.54318  Biso   1.000  H
  H172     1.0000 0.98718  0.60159  0.48030  Biso   1.000  H
  N117     1.0000 0.95771  0.66879  0.46218  Biso   1.000  N
  C175     1.0000 0.98409  0.65519  0.21013  Biso   1.000  C
  H173     1.0000 0.62538  0.95379  0.47849  Biso   1.000  H
  H174     1.0000 0.62652  0.99620  0.39387  Biso   1.000  H
  N118     1.0000 0.69538  0.96029  0.40569  Biso   1.000  N
  C176     1.0000 0.69189  0.97430  0.14797  Biso   1.000  C
  C177     1.0000 0.92820  0.70060  0.52151  Biso   1.000  C
  C178     1.0000 0.99259  0.69178  0.39340  Biso   1.000  C
  H175     1.0000 0.98569  0.66831  0.13828  Biso   1.000  H
  N119     1.0000 0.97672  0.69380  0.27876  Biso   1.000  N
  H176     1.0000 0.01819  0.64042  0.22550  Biso   1.000  H
  C179     1.0000 0.72211  0.93079  0.47550  Biso   1.000  C
  C180     1.0000 0.72889  0.98772  0.33793  Biso   1.000  C
  H177     1.0000 0.70749  0.97240  0.07753  Biso   1.000  H
  N120     1.0000 0.73430  0.96698  0.22991  Biso   1.000  N
  H178     1.0000 0.67680  0.00698  0.15632  Biso   1.000  H
  N121     1.0000 0.94238  0.74601  0.49236  Biso   1.000  N
  O59      1.0000 0.89602  0.68941  0.58817  Biso   1.000  O
  C181     1.0000 0.98950  0.74769  0.42578  Biso   1.000  C
  H179     1.0000 0.02861  0.67881  0.40151  Biso   1.000  H
  C182     1.0000 0.97311  0.74122  0.24078  Biso   1.000  C
  N122     1.0000 0.77518  0.94000  0.46029  Biso   1.000  N
  O60      1.0000 0.70318  0.90242  0.53806  Biso   1.000  O
  C183     1.0000 0.78400  0.97949  0.38386  Biso   1.000  C
  H180     1.0000 0.71929  0.02270  0.33627  Biso   1.000  H
  C184     1.0000 0.78439  0.95561  0.20651  Biso   1.000  C
  C185     1.0000 0.93219  0.78919  0.56106  Biso   1.000  C
  N123     1.0000 0.98381  0.77292  0.32737  Biso   1.000  N
  H181     1.0000 0.02089  0.75858  0.46525  Biso   1.000  H
  O61      1.0000 0.96586  0.75376  0.15183  Biso   1.000  O
  C186     1.0000 0.81351  0.92790  0.53947  Biso   1.000  C
  N124     1.0000 0.81300  0.96351  0.29113  Biso   1.000  N
  H182     1.0000 0.79889  0.00929  0.41648  Biso   1.000  H
  O62      1.0000 0.79999  0.94245  0.11937  Biso   1.000  O
  H183     1.0000 0.91028  0.77869  0.62047  Biso   1.000  H
  H184     1.0000 0.96559  0.80048  0.59006  Biso   1.000  H
  N125     1.0000 0.90731  0.82911  0.51072  Biso   1.000  N
  C187     1.0000 0.99099  0.82542  0.31217  Biso   1.000  C
  N126     1.0000 0.85189  0.89240  0.49779  Biso   1.000  N
  H185     1.0000 0.79592  0.91390  0.60109  Biso   1.000  H
  H186     1.0000 0.83182  0.95759  0.56185  Biso   1.000  H
  C188     1.0000 0.87070  0.96132  0.29042  Biso   1.000  C
  C189     1.0000 0.85800  0.84618  0.54263  Biso   1.000  C
  C190     1.0000 0.93780  0.86659  0.45320  Biso   1.000  C
  H187     1.0000 0.99730  0.83182  0.23731  Biso   1.000  H
  N127     1.0000 0.94760  0.85299  0.34581  Biso   1.000  N
  H188     1.0000 0.02211  0.83591  0.35132  Biso   1.000  H
  C191     1.0000 0.89931  0.91009  0.44721  Biso   1.000  C
  N128     1.0000 0.89288  0.91671  0.33352  Biso   1.000  N
  H189     1.0000 0.88289  0.96501  0.21762  Biso   1.000  H
  H190     1.0000 0.88430  0.98910  0.33068  Biso   1.000  H
  O63      1.0000 0.82711  0.82491  0.59801  Biso   1.000  O
  H191     1.0000 0.97049  0.87529  0.49070  Biso   1.000  H
  C192     1.0000 0.92251  0.88691  0.27482  Biso   1.000  C
  H192     1.0000 0.91338  0.93971  0.48188  Biso   1.000  H
  O64      1.0000 0.92871  0.88589  0.17909  Biso   1.000  O
  Ne1      1.0000 0.24851  0.25690  0.24914  Biso   1.000  Ne
  He1      1.0000 0.26689  0.29782  0.47388  Biso   1.000  He
  He2      1.0000 0.21494  0.23930  0.00427  Biso   1.000  He
  Ar1      1.0000 0.24702  0.25057  0.22180  Biso   1.000  Ar
  Ne2      1.0000 0.74851  0.24310  0.75083  Biso   1.000  Ne
  He3      1.0000 0.71531  0.26046  0.99359  Biso   1.000  He
  He4      1.0000 0.76660  0.20230  0.52762  Biso   1.000  He
  Ar2      1.0000 0.74506  0.24826  0.78241  Biso   1.000  Ar
  Ne3      1.0000 0.25149  0.75690  0.75083  Biso   1.000  Ne
  He5      1.0000 0.28596  0.73882  0.00103  Biso   1.000  He
  He6      1.0000 0.23260  0.79812  0.52324  Biso   1.000  He
  Ar3      1.0000 0.25495  0.75176  0.78262  Biso   1.000  Ar
  Ne4      1.0000 0.75149  0.74310  0.24914  Biso   1.000  Ne
  He7      1.0000 0.72955  0.70030  0.49337  Biso   1.000  He
  He8      1.0000 0.78715  0.76320  0.02747  Biso   1.000  He
  Ar4      1.0000 0.75594  0.74914  0.21303  Biso   1.000  Ar
