data_image0
_cell_length_a       18.139
_cell_length_b       21.311
_cell_length_c       22.34
_cell_angle_alpha    90
_cell_angle_beta     90.92
_cell_angle_gamma    90

_symmetry_space_group_name_H-M    "P 1"
_symmetry_int_tables_number       1

loop_
  _symmetry_equiv_pos_as_xyz
  'x, y, z'

loop_
  _atom_site_label
  _atom_site_occupancy
  _atom_site_fract_x
  _atom_site_fract_y
  _atom_site_fract_z
  _atom_site_thermal_displace_type
  _atom_site_B_iso_or_equiv
  _atom_site_type_symbol
  C1       1.0000 0.51953  0.28502  0.36459  Biso   1.000  C
  N1       1.0000 0.50054  0.26310  0.30456  Biso   1.000  N
  C2       1.0000 0.60445  0.29130  0.36289  Biso   1.000  C
  H1       1.0000 0.50426  0.25442  0.39540  Biso   1.000  H
  N2       1.0000 0.49544  0.34682  0.37870  Biso   1.000  N
  C3       1.0000 0.42864  0.24128  0.28728  Biso   1.000  C
  C4       1.0000 0.56265  0.24748  0.27291  Biso   1.000  C
  N3       1.0000 0.62286  0.26470  0.30675  Biso   1.000  N
  H2       1.0000 0.62832  0.26822  0.39638  Biso   1.000  H
  N4       1.0000 0.61575  0.35751  0.36844  Biso   1.000  N
  C5       1.0000 0.41894  0.36268  0.39611  Biso   1.000  C
  C6       1.0000 0.55033  0.38980  0.38291  Biso   1.000  C
  N5       1.0000 0.37815  0.29102  0.27116  Biso   1.000  N
  H3       1.0000 0.40801  0.21731  0.32050  Biso   1.000  H
  H4       1.0000 0.43325  0.21271  0.25312  Biso   1.000  H
  O1       1.0000 0.56250  0.22430  0.22344  Biso   1.000  O
  C7       1.0000 0.69744  0.25452  0.28692  Biso   1.000  C
  C8       1.0000 0.68562  0.38590  0.38582  Biso   1.000  C
  N6       1.0000 0.37126  0.37408  0.34651  Biso   1.000  N
  H5       1.0000 0.39895  0.32819  0.41979  Biso   1.000  H
  H6       1.0000 0.42032  0.40022  0.42159  Biso   1.000  H
  O2       1.0000 0.54656  0.44362  0.39611  Biso   1.000  O
  C9       1.0000 0.35323  0.29919  0.21520  Biso   1.000  C
  C10      1.0000 0.33334  0.32429  0.31360  Biso   1.000  C
  H7       1.0000 0.69625  0.22341  0.25460  Biso   1.000  H
  H8       1.0000 0.72644  0.23669  0.32018  Biso   1.000  H
  N7       1.0000 0.73511  0.31111  0.26534  Biso   1.000  N
  H9       1.0000 0.71245  0.35751  0.41299  Biso   1.000  H
  H10      1.0000 0.67656  0.42509  0.40730  Biso   1.000  H
  N8       1.0000 0.73116  0.39890  0.33312  Biso   1.000  N
  C11      1.0000 0.33971  0.43189  0.33451  Biso   1.000  C
  N9       1.0000 0.29434  0.34170  0.21493  Biso   1.000  N
  O3       1.0000 0.37660  0.27230  0.17034  Biso   1.000  O
  C12      1.0000 0.27674  0.35920  0.27560  Biso   1.000  C
  H11      1.0000 0.30914  0.29468  0.34132  Biso   1.000  H
  C13      1.0000 0.77651  0.35418  0.30429  Biso   1.000  C
  C14      1.0000 0.75772  0.31580  0.20710  Biso   1.000  C
  C15      1.0000 0.73761  0.45789  0.31069  Biso   1.000  C
  N10      1.0000 0.28814  0.42532  0.28858  Biso   1.000  N
  O4       1.0000 0.35433  0.48078  0.35998  Biso   1.000  O
  C16      1.0000 0.24512  0.34531  0.16502  Biso   1.000  C
  H12      1.0000 0.22606  0.34611  0.28558  Biso   1.000  H
  C17      1.0000 0.82254  0.39360  0.26221  Biso   1.000  C
  H13      1.0000 0.80802  0.33119  0.33348  Biso   1.000  H
  N11      1.0000 0.80821  0.36249  0.20392  Biso   1.000  N
  O5       1.0000 0.73561  0.28361  0.16506  Biso   1.000  O
  N12      1.0000 0.78980  0.45530  0.26548  Biso   1.000  N
  O6       1.0000 0.70161  0.50429  0.32475  Biso   1.000  O
  C18      1.0000 0.23323  0.47149  0.27779  Biso   1.000  C
  H14      1.0000 0.19700  0.32889  0.17688  Biso   1.000  H
  H15      1.0000 0.26362  0.31810  0.13319  Biso   1.000  H
  N13      1.0000 0.23494  0.40791  0.14111  Biso   1.000  N
  H16      1.0000 0.87541  0.39369  0.27358  Biso   1.000  H
  C19      1.0000 0.84029  0.38281  0.14800  Biso   1.000  C
  C20      1.0000 0.82810  0.51349  0.25079  Biso   1.000  C
  H17      1.0000 0.24393  0.50828  0.30281  Biso   1.000  H
  H18      1.0000 0.18523  0.45479  0.28961  Biso   1.000  H
  N14      1.0000 0.22902  0.49069  0.21511  Biso   1.000  N
  C21      1.0000 0.19054  0.45371  0.17079  Biso   1.000  C
  C22      1.0000 0.23749  0.41842  0.08058  Biso   1.000  C
  H19      1.0000 0.89373  0.38708  0.15418  Biso   1.000  H
  H20      1.0000 0.83220  0.34991  0.11801  Biso   1.000  H
  N15      1.0000 0.81199  0.44099  0.12450  Biso   1.000  N
  H21      1.0000 0.81132  0.54690  0.27739  Biso   1.000  H
  H22      1.0000 0.88111  0.50781  0.25782  Biso   1.000  H
  N16      1.0000 0.81560  0.53212  0.19000  Biso   1.000  N
  C23      1.0000 0.22793  0.55408  0.19931  Biso   1.000  C
  H23      1.0000 0.14600  0.43410  0.18780  Biso   1.000  H
  C24      1.0000 0.16974  0.50068  0.12231  Biso   1.000  C
  N17      1.0000 0.20601  0.47590  0.06930  Biso   1.000  N
  O7       1.0000 0.26703  0.38398  0.04374  Biso   1.000  O
  C25      1.0000 0.84663  0.50110  0.13932  Biso   1.000  C
  C26      1.0000 0.77442  0.44442  0.07029  Biso   1.000  C
  C27      1.0000 0.79025  0.59199  0.17639  Biso   1.000  C
  N18      1.0000 0.19953  0.55980  0.14317  Biso   1.000  N
  O8       1.0000 0.24951  0.59767  0.23118  Biso   1.000  O
  H24      1.0000 0.11559  0.50312  0.11622  Biso   1.000  H
  C28      1.0000 0.18609  0.49622  0.00958  Biso   1.000  C
  C29      1.0000 0.82519  0.54460  0.08672  Biso   1.000  C
  H25      1.0000 0.90079  0.49688  0.14362  Biso   1.000  H
  N19      1.0000 0.77412  0.50542  0.05229  Biso   1.000  N
  O9       1.0000 0.74550  0.40012  0.04611  Biso   1.000  O
  N20      1.0000 0.79103  0.59791  0.11550  Biso   1.000  N
  O10      1.0000 0.76894  0.63071  0.21158  Biso   1.000  O
  C30      1.0000 0.17584  0.61888  0.11850  Biso   1.000  C
  H26      1.0000 0.13229  0.50012  0.00712  Biso   1.000  H
  H27      1.0000 0.20053  0.46319  0.98151  Biso   1.000  H
  N21      1.0000 0.21751  0.55361  0.99011  Biso   1.000  N
  H28      1.0000 0.86860  0.55699  0.06299  Biso   1.000  H
  C31      1.0000 0.76079  0.51931  0.98890  Biso   1.000  C
  C32      1.0000 0.78732  0.65900  0.08681  Biso   1.000  C
  H29      1.0000 0.12269  0.61649  0.10982  Biso   1.000  H
  H30      1.0000 0.18344  0.65149  0.14890  Biso   1.000  H
  N22      1.0000 0.21233  0.63770  0.06518  Biso   1.000  N
  C33      1.0000 0.18931  0.61602  0.00551  Biso   1.000  C
  C34      1.0000 0.26168  0.55591  0.94041  Biso   1.000  C
  H31      1.0000 0.80800  0.52851  0.97009  Biso   1.000  H
  H32      1.0000 0.74012  0.48191  0.96938  Biso   1.000  H
  N23      1.0000 0.71113  0.57168  0.97842  Biso   1.000  N
  H33      1.0000 0.83383  0.66740  0.06648  Biso   1.000  H
  H34      1.0000 0.78059  0.69152  0.11729  Biso   1.000  H
  N24      1.0000 0.72620  0.66201  0.04316  Biso   1.000  N
  C35      1.0000 0.26449  0.68171  0.06308  Biso   1.000  C
  H35      1.0000 0.13533  0.61902  0.99928  Biso   1.000  H
  C36      1.0000 0.23110  0.65980  0.96369  Biso   1.000  C
  N25      1.0000 0.26830  0.61710  0.92371  Biso   1.000  N
  O11      1.0000 0.28870  0.51124  0.91552  Biso   1.000  O
  C37      1.0000 0.73333  0.63582  0.98290  Biso   1.000  C
  C38      1.0000 0.65112  0.56468  0.93768  Biso   1.000  C
  C39      1.0000 0.67408  0.70729  0.04499  Biso   1.000  C
  N26      1.0000 0.28239  0.69429  0.00618  Biso   1.000  N
  O12      1.0000 0.29300  0.70898  0.10776  Biso   1.000  O
  H36      1.0000 0.19748  0.68880  0.94180  Biso   1.000  H
  C40      1.0000 0.31281  0.63770  0.87460  Biso   1.000  C
  C41      1.0000 0.67471  0.67261  0.94579  Biso   1.000  C
  H37      1.0000 0.78352  0.64220  0.96718  Biso   1.000  H
  N27      1.0000 0.62920  0.62418  0.92188  Biso   1.000  N
  O13      1.0000 0.62828  0.51518  0.92031  Biso   1.000  O
  N28      1.0000 0.63973  0.71160  0.99167  Biso   1.000  N
  O14      1.0000 0.65943  0.73901  0.09025  Biso   1.000  O
  C42      1.0000 0.31990  0.75050  0.98800  Biso   1.000  C
  H38      1.0000 0.31531  0.60368  0.84519  Biso   1.000  H
  H39      1.0000 0.28811  0.67341  0.85508  Biso   1.000  H
  N29      1.0000 0.38650  0.65609  0.89059  Biso   1.000  N
  H40      1.0000 0.69718  0.69818  0.91400  Biso   1.000  H
  C43      1.0000 0.57900  0.63319  0.87022  Biso   1.000  C
  C44      1.0000 0.58760  0.76209  0.97618  Biso   1.000  C
  H41      1.0000 0.32328  0.77922  0.02221  Biso   1.000  H
  H42      1.0000 0.29028  0.77129  0.95662  Biso   1.000  H
  N30      1.0000 0.39202  0.73929  0.96598  Biso   1.000  N
  C45      1.0000 0.40631  0.72052  0.90531  Biso   1.000  C
  C46      1.0000 0.44438  0.62118  0.87648  Biso   1.000  C
  N31      1.0000 0.50849  0.65548  0.88709  Biso   1.000  N
  H43      1.0000 0.60111  0.66332  0.84250  Biso   1.000  H
  H44      1.0000 0.57312  0.59331  0.84900  Biso   1.000  H
  N32      1.0000 0.51361  0.73920  0.96208  Biso   1.000  N
  H45      1.0000 0.58501  0.79142  0.00989  Biso   1.000  H
  H46      1.0000 0.60621  0.78518  0.94171  Biso   1.000  H
  C47      1.0000 0.45521  0.75191  0.99731  Biso   1.000  C
  H47      1.0000 0.38412  0.75032  0.87622  Biso   1.000  H
  C48      1.0000 0.49180  0.72061  0.90191  Biso   1.000  C
  O15      1.0000 0.44347  0.56910  0.85240  Biso   1.000  O
  O16      1.0000 0.45843  0.76970  0.04857  Biso   1.000  O
  H48      1.0000 0.51000  0.75022  0.87129  Biso   1.000  H
  C49      1.0000 0.28546  0.16212  0.41791  Biso   1.000  C
  N33      1.0000 0.28912  0.10178  0.38841  Biso   1.000  N
  H49      1.0000 0.27412  0.19459  0.38810  Biso   1.000  H
  H50      1.0000 0.33367  0.17179  0.43609  Biso   1.000  H
  N34      1.0000 0.22954  0.16372  0.46429  Biso   1.000  N
  C50      1.0000 0.29284  0.09638  0.32829  Biso   1.000  C
  C51      1.0000 0.32214  0.04810  0.41921  Biso   1.000  C
  C52      1.0000 0.16996  0.20421  0.45991  Biso   1.000  C
  C53      1.0000 0.24628  0.14382  0.52469  Biso   1.000  C
  O17      1.0000 0.27816  0.13904  0.29126  Biso   1.000  O
  N35      1.0000 0.31656  0.03801  0.31530  Biso   1.000  N
  C54      1.0000 0.33882  0.00239  0.36759  Biso   1.000  C
  H51      1.0000 0.36763  0.06002  0.44151  Biso   1.000  H
  N36      1.0000 0.27265  0.01342  0.45610  Biso   1.000  N
  N37      1.0000 0.14186  0.20970  0.51609  Biso   1.000  N
  O18      1.0000 0.14652  0.22861  0.41483  Biso   1.000  O
  N38      1.0000 0.22605  0.07940  0.53628  Biso   1.000  N
  H52      1.0000 0.29773  0.15311  0.53691  Biso   1.000  H
  C55      1.0000 0.18908  0.18131  0.56238  Biso   1.000  C
  C56      1.0000 0.33630  0.01849  0.25429  Biso   1.000  C
  H53      1.0000 0.39173  0.99099  0.36670  Biso   1.000  H
  N39      1.0000 0.29296  0.94871  0.37914  Biso   1.000  N
  C57      1.0000 0.26132  0.95420  0.43528  Biso   1.000  C
  C58      1.0000 0.27176  0.02628  0.51999  Biso   1.000  C
  C59      1.0000 0.08993  0.26080  0.53042  Biso   1.000  C
  C60      1.0000 0.17567  0.07400  0.58141  Biso   1.000  C
  H54      1.0000 0.21308  0.21308  0.58848  Biso   1.000  H
  N40      1.0000 0.15397  0.13261  0.59618  Biso   1.000  N
  H55      1.0000 0.33081  0.05448  0.22729  Biso   1.000  H
  H56      1.0000 0.38824  0.00591  0.25429  Biso   1.000  H
  N41      1.0000 0.29214  0.96781  0.23181  Biso   1.000  N
  C61      1.0000 0.31062  0.88701  0.35501  Biso   1.000  C
  O19      1.0000 0.22815  0.91277  0.46116  Biso   1.000  O
  H57      1.0000 0.32237  0.03421  0.53400  Biso   1.000  H
  H58      1.0000 0.25387  0.98888  0.54089  Biso   1.000  H
  H59      1.0000 0.11168  0.28680  0.56229  Biso   1.000  H
  H60      1.0000 0.08284  0.28732  0.49501  Biso   1.000  H
  N42      1.0000 0.02018  0.23828  0.54918  Biso   1.000  N
  O20      1.0000 0.15478  0.02492  0.60357  Biso   1.000  O
  C62      1.0000 0.10555  0.14481  0.64552  Biso   1.000  C
  C63      1.0000 0.24232  0.97799  0.18521  Biso   1.000  C
  C64      1.0000 0.30600  0.90202  0.24121  Biso   1.000  C
  N43      1.0000 0.27701  0.87659  0.29758  Biso   1.000  N
  H61      1.0000 0.36436  0.88321  0.35161  Biso   1.000  H
  H62      1.0000 0.29402  0.85458  0.38282  Biso   1.000  H
  C65      1.0000 0.00656  0.22219  0.61028  Biso   1.000  C
  C66      1.0000 0.95588  0.25259  0.51779  Biso   1.000  C
  H63      1.0000 0.12508  0.18052  0.66839  Biso   1.000  H
  H64      1.0000 0.10585  0.10821  0.67202  Biso   1.000  H
  N44      1.0000 0.03005  0.15832  0.62770  Biso   1.000  N
  O21      1.0000 0.22062  0.02778  0.16690  Biso   1.000  O
  N45      1.0000 0.22173  0.91901  0.16430  Biso   1.000  N
  C67      1.0000 0.26022  0.86828  0.19291  Biso   1.000  C
  H65      1.0000 0.35912  0.89231  0.23732  Biso   1.000  H
  C68      1.0000 0.22921  0.82812  0.28612  Biso   1.000  C
  H66      1.0000 0.02558  0.25442  0.63849  Biso   1.000  H
  C69      1.0000 0.92076  0.21609  0.61221  Biso   1.000  C
  N46      1.0000 0.89887  0.23955  0.55383  Biso   1.000  N
  O22      1.0000 0.95147  0.27460  0.46761  Biso   1.000  O
  C70      1.0000 0.97447  0.11820  0.63558  Biso   1.000  C
  C71      1.0000 0.17150  0.90911  0.11398  Biso   1.000  C
  H67      1.0000 0.29202  0.84581  0.16448  Biso   1.000  H
  N47      1.0000 0.21492  0.82479  0.22711  Biso   1.000  N
  O23      1.0000 0.20383  0.79321  0.32403  Biso   1.000  O
  H68      1.0000 0.89957  0.24128  0.64498  Biso   1.000  H
  N48      1.0000 0.90919  0.14819  0.62103  Biso   1.000  N
  C72      1.0000 0.82255  0.24912  0.53610  Biso   1.000  C
  O24      1.0000 0.97938  0.06396  0.65483  Biso   1.000  O
  H69      1.0000 0.16463  0.94890  0.09272  Biso   1.000  H
  H70      1.0000 0.19383  0.87922  0.08631  Biso   1.000  H
  N49      1.0000 0.10030  0.88551  0.13175  Biso   1.000  N
  C73      1.0000 0.17652  0.77148  0.20020  Biso   1.000  C
  C74      1.0000 0.83819  0.12369  0.64100  Biso   1.000  C
  H71      1.0000 0.82014  0.27920  0.50302  Biso   1.000  H
  H72      1.0000 0.79577  0.26700  0.56981  Biso   1.000  H
  N50      1.0000 0.78718  0.19014  0.51739  Biso   1.000  N
  C75      1.0000 0.03849  0.92441  0.13162  Biso   1.000  C
  C76      1.0000 0.08093  0.82019  0.12831  Biso   1.000  C
  H73      1.0000 0.20399  0.75778  0.16520  Biso   1.000  H
  H74      1.0000 0.17692  0.73690  0.22899  Biso   1.000  H
  N51      1.0000 0.10151  0.78340  0.18185  Biso   1.000  N
  H75      1.0000 0.84719  0.08709  0.66660  Biso   1.000  H
  H76      1.0000 0.81408  0.15579  0.66531  Biso   1.000  H
  N52      1.0000 0.78889  0.10591  0.59287  Biso   1.000  N
  C77      1.0000 0.75876  0.18629  0.46040  Biso   1.000  C
  C78      1.0000 0.74488  0.15232  0.55849  Biso   1.000  C
  N53      1.0000 0.97862  0.88579  0.13149  Biso   1.000  N
  O25      1.0000 0.03962  0.98146  0.13292  Biso   1.000  O
  C79      1.0000 0.99801  0.82080  0.12781  Biso   1.000  C
  H77      1.0000 0.10011  0.80071  0.09151  Biso   1.000  H
  C80      1.0000 0.04000  0.76209  0.21041  Biso   1.000  C
  C81      1.0000 0.78014  0.04669  0.57120  Biso   1.000  C
  N54      1.0000 0.70934  0.13688  0.45941  Biso   1.000  N
  O26      1.0000 0.77616  0.21712  0.41742  Biso   1.000  O
  H78      1.0000 0.71397  0.17841  0.58481  Biso   1.000  H
  C82      1.0000 0.69794  0.10882  0.51811  Biso   1.000  C
  C83      1.0000 0.90680  0.90920  0.11300  Biso   1.000  C
  H79      1.0000 0.97748  0.80132  0.09088  Biso   1.000  H
  N55      1.0000 0.98003  0.78438  0.18078  Biso   1.000  N
  O27      1.0000 0.04203  0.72831  0.25482  Biso   1.000  O
  N56      1.0000 0.73024  0.04791  0.52621  Biso   1.000  N
  O28      1.0000 0.81415  0.00042  0.59090  Biso   1.000  O
  C84      1.0000 0.66054  0.12379  0.40860  Biso   1.000  C
  H80      1.0000 0.64534  0.10938  0.52921  Biso   1.000  H
  H81      1.0000 0.91272  0.95172  0.09688  Biso   1.000  H
  H82      1.0000 0.88759  0.88260  0.08058  Biso   1.000  H
  N57      1.0000 0.85371  0.91108  0.15991  Biso   1.000  N
  C85      1.0000 0.90500  0.76430  0.19461  Biso   1.000  C
  C86      1.0000 0.69455  0.99090  0.50320  Biso   1.000  C
  H83      1.0000 0.66116  0.15959  0.38111  Biso   1.000  H
  H84      1.0000 0.61005  0.11900  0.42279  Biso   1.000  H
  N58      1.0000 0.68157  0.06720  0.37619  Biso   1.000  N
  C87      1.0000 0.82484  0.96668  0.18082  Biso   1.000  C
  C88      1.0000 0.81564  0.85641  0.18091  Biso   1.000  C
  H85      1.0000 0.88151  0.74778  0.15812  Biso   1.000  H
  H86      1.0000 0.90762  0.73009  0.22380  Biso   1.000  H
  N59      1.0000 0.85982  0.81371  0.21807  Biso   1.000  N
  H87      1.0000 0.71227  0.95500  0.52670  Biso   1.000  H
  H88      1.0000 0.64125  0.99451  0.50911  Biso   1.000  H
  N60      1.0000 0.70737  0.97860  0.44057  Biso   1.000  N
  C89      1.0000 0.70396  0.06921  0.31821  Biso   1.000  C
  C90      1.0000 0.65977  0.00540  0.39450  Biso   1.000  C
  N61      1.0000 0.76770  0.95012  0.21847  Biso   1.000  N
  O29      1.0000 0.84304  0.01929  0.16703  Biso   1.000  O
  C91      1.0000 0.75802  0.88358  0.22510  Biso   1.000  C
  H89      1.0000 0.79111  0.83379  0.14738  Biso   1.000  H
  C92      1.0000 0.83771  0.81521  0.27640  Biso   1.000  C
  C93      1.0000 0.74016  0.92290  0.42288  Biso   1.000  C
  N62      1.0000 0.71101  0.00798  0.29811  Biso   1.000  N
  O30      1.0000 0.72055  0.11510  0.29019  Biso   1.000  O
  C94      1.0000 0.67533  0.96471  0.33970  Biso   1.000  C
  H90      1.0000 0.60712  0.00380  0.40560  Biso   1.000  H
  C95      1.0000 0.71202  0.99460  0.23490  Biso   1.000  C
  H91      1.0000 0.70710  0.87021  0.21480  Biso   1.000  H
  N63      1.0000 0.78313  0.85848  0.28218  Biso   1.000  N
  O31      1.0000 0.86255  0.78345  0.31732  Biso   1.000  O
  N64      1.0000 0.72731  0.91582  0.36173  Biso   1.000  N
  O32      1.0000 0.77922  0.88818  0.45252  Biso   1.000  O
  H92      1.0000 0.62973  0.94632  0.32229  Biso   1.000  H
  H93      1.0000 0.66364  0.97832  0.22250  Biso   1.000  H
  H94      1.0000 0.72013  0.03388  0.21310  Biso   1.000  H
  C96      1.0000 0.73443  0.85679  0.33142  Biso   1.000  C
  H95      1.0000 0.75215  0.82530  0.36012  Biso   1.000  H
  H96      1.0000 0.68552  0.84360  0.31692  Biso   1.000  H
  C97      1.0000 0.68947  0.38698  0.64498  Biso   1.000  C
  N65      1.0000 0.70719  0.44869  0.62085  Biso   1.000  N
  H97      1.0000 0.63579  0.38318  0.64838  Biso   1.000  H
  H98      1.0000 0.70607  0.35461  0.61718  Biso   1.000  H
  N66      1.0000 0.72308  0.37661  0.70242  Biso   1.000  N
  C98      1.0000 0.73877  0.45418  0.56471  Biso   1.000  C
  C99      1.0000 0.66127  0.50242  0.63240  Biso   1.000  C
  C100     1.0000 0.69409  0.40200  0.75878  Biso   1.000  C
  C101     1.0000 0.77088  0.32809  0.71388  Biso   1.000  C
  N67      1.0000 0.72744  0.51340  0.54389  Biso   1.000  N
  O33      1.0000 0.77194  0.41274  0.53883  Biso   1.000  O
  C102     1.0000 0.67795  0.54812  0.58078  Biso   1.000  C
  H99      1.0000 0.60837  0.49101  0.63330  Biso   1.000  H
  N68      1.0000 0.68359  0.53799  0.68469  Biso   1.000  N
  N69      1.0000 0.70801  0.46779  0.76823  Biso   1.000  N
  C103     1.0000 0.73987  0.36831  0.80709  Biso   1.000  C
  H100     1.0000 0.64097  0.39229  0.76272  Biso   1.000  H
  N70      1.0000 0.78517  0.32481  0.77288  Biso   1.000  N
  O34      1.0000 0.79627  0.29323  0.67596  Biso   1.000  O
  C104     1.0000 0.72833  0.52630  0.48001  Biso   1.000  C
  H101     1.0000 0.63247  0.55999  0.55849  Biso   1.000  H
  N71      1.0000 0.71097  0.60180  0.61158  Biso   1.000  N
  C105     1.0000 0.70726  0.59641  0.67171  Biso   1.000  C
  C106     1.0000 0.66379  0.51851  0.74571  Biso   1.000  C
  C107     1.0000 0.75777  0.47802  0.81479  Biso   1.000  C
  N72      1.0000 0.77836  0.41899  0.83569  Biso   1.000  N
  H102     1.0000 0.70807  0.34578  0.83552  Biso   1.000  H
  C108     1.0000 0.82358  0.27150  0.79979  Biso   1.000  C
  H103     1.0000 0.74627  0.48890  0.45910  Biso   1.000  H
  H104     1.0000 0.67777  0.53418  0.46600  Biso   1.000  H
  N73      1.0000 0.77404  0.57942  0.46371  Biso   1.000  N
  C109     1.0000 0.71464  0.66210  0.58208  Biso   1.000  C
  O35      1.0000 0.72199  0.63906  0.70873  Biso   1.000  O
  H105     1.0000 0.66929  0.55450  0.77270  Biso   1.000  H
  H106     1.0000 0.61186  0.50589  0.74571  Biso   1.000  H
  O36      1.0000 0.77947  0.52780  0.83310  Biso   1.000  O
  C110     1.0000 0.82859  0.40908  0.88601  Biso   1.000  C
  H107     1.0000 0.79610  0.25780  0.83480  Biso   1.000  H
  H108     1.0000 0.82317  0.23692  0.77100  Biso   1.000  H
  N74      1.0000 0.89859  0.28342  0.81814  Biso   1.000  N
  C111     1.0000 0.75387  0.64380  0.47531  Biso   1.000  C
  C112     1.0000 0.82442  0.57402  0.41859  Biso   1.000  C
  N75      1.0000 0.77056  0.66369  0.53570  Biso   1.000  N
  H109     1.0000 0.72598  0.69462  0.61190  Biso   1.000  H
  H110     1.0000 0.66648  0.67181  0.56390  Biso   1.000  H
  H111     1.0000 0.83552  0.44892  0.90728  Biso   1.000  H
  H112     1.0000 0.80631  0.37919  0.91368  Biso   1.000  H
  N76      1.0000 0.89980  0.38548  0.86824  Biso   1.000  N
  C113     1.0000 0.91922  0.32021  0.87169  Biso   1.000  C
  C114     1.0000 0.96010  0.26212  0.78958  Biso   1.000  C
  H113     1.0000 0.70236  0.65309  0.46309  Biso   1.000  H
  C115     1.0000 0.81107  0.68129  0.43761  Biso   1.000  C
  N77      1.0000 0.84612  0.63258  0.40381  Biso   1.000  N
  O37      1.0000 0.84532  0.52494  0.39643  Biso   1.000  O
  C116     1.0000 0.83019  0.70419  0.54009  Biso   1.000  C
  C117     1.0000 0.96160  0.42438  0.86842  Biso   1.000  C
  H114     1.0000 0.89999  0.30069  0.90849  Biso   1.000  H
  C118     1.0000 0.00209  0.32082  0.87218  Biso   1.000  C
  O38      1.0000 0.95806  0.22833  0.74517  Biso   1.000  O
  N78      1.0000 0.02011  0.28441  0.81922  Biso   1.000  N
  H115     1.0000 0.78707  0.71311  0.41151  Biso   1.000  H
  N79      1.0000 0.85824  0.70968  0.48395  Biso   1.000  N
  C119     1.0000 0.89455  0.64478  0.35452  Biso   1.000  C
  O39      1.0000 0.85357  0.72859  0.58517  Biso   1.000  O
  O40      1.0000 0.96047  0.48144  0.86712  Biso   1.000  O
  N80      1.0000 0.02147  0.38581  0.86851  Biso   1.000  N
  H116     1.0000 0.02261  0.30130  0.90911  Biso   1.000  H
  C120     1.0000 0.09509  0.26428  0.80539  Biso   1.000  C
  C121     1.0000 0.91016  0.76078  0.46962  Biso   1.000  C
  H117     1.0000 0.87502  0.68049  0.33160  Biso   1.000  H
  H118     1.0000 0.89424  0.60818  0.32802  Biso   1.000  H
  N81      1.0000 0.97004  0.65830  0.37230  Biso   1.000  N
  C122     1.0000 0.09329  0.40918  0.88700  Biso   1.000  C
  H119     1.0000 0.11858  0.24781  0.84192  Biso   1.000  H
  H120     1.0000 0.09248  0.23012  0.77620  Biso   1.000  H
  N82      1.0000 0.14028  0.31369  0.78193  Biso   1.000  N
  H121     1.0000 0.88847  0.78678  0.43770  Biso   1.000  H
  H122     1.0000 0.91726  0.78729  0.50499  Biso   1.000  H
  N83      1.0000 0.97997  0.73830  0.45082  Biso   1.000  N
  C123     1.0000 0.99354  0.72221  0.38971  Biso   1.000  C
  C124     1.0000 0.02562  0.61818  0.36442  Biso   1.000  C
  H123     1.0000 0.08738  0.45169  0.90312  Biso   1.000  H
  H124     1.0000 0.11251  0.38262  0.91941  Biso   1.000  H
  N84      1.0000 0.14639  0.41110  0.84008  Biso   1.000  N
  C125     1.0000 0.18451  0.35639  0.81908  Biso   1.000  C
  C126     1.0000 0.16239  0.31519  0.72359  Biso   1.000  C
  C127     1.0000 0.04427  0.75262  0.48220  Biso   1.000  C
  H125     1.0000 0.97451  0.75440  0.36151  Biso   1.000  H
  C128     1.0000 0.07934  0.71611  0.38778  Biso   1.000  C
  N85      1.0000 0.09096  0.64821  0.37897  Biso   1.000  N
  O41      1.0000 0.02072  0.56393  0.34517  Biso   1.000  O
  C129     1.0000 0.17530  0.46671  0.81922  Biso   1.000  C
  C130     1.0000 0.24207  0.38360  0.77490  Biso   1.000  C
  H126     1.0000 0.20899  0.33382  0.85262  Biso   1.000  H
  N86      1.0000 0.21696  0.35850  0.71782  Biso   1.000  N
  O42      1.0000 0.13760  0.28342  0.68268  Biso   1.000  O
  N87      1.0000 0.10122  0.73957  0.44616  Biso   1.000  N
  O43      1.0000 0.04868  0.77458  0.53239  Biso   1.000  O
  H127     1.0000 0.10052  0.74131  0.35501  Biso   1.000  H
  C131     1.0000 0.16196  0.62372  0.35900  Biso   1.000  C
  N88      1.0000 0.23239  0.45010  0.78152  Biso   1.000  N
  O44      1.0000 0.15711  0.51926  0.83296  Biso   1.000  O
  H128     1.0000 0.29300  0.37018  0.78520  Biso   1.000  H
  C132     1.0000 0.26566  0.35681  0.66862  Biso   1.000  C
  C133     1.0000 0.17754  0.74910  0.46389  Biso   1.000  C
  H129     1.0000 0.15296  0.58711  0.33339  Biso   1.000  H
  H130     1.0000 0.18601  0.65581  0.33469  Biso   1.000  H
  N89      1.0000 0.21126  0.60588  0.40712  Biso   1.000  N
  C134     1.0000 0.28808  0.49458  0.76509  Biso   1.000  C
  N90      1.0000 0.27278  0.41579  0.63826  Biso   1.000  N
  H131     1.0000 0.24795  0.32528  0.63992  Biso   1.000  H
  H132     1.0000 0.31457  0.34358  0.68312  Biso   1.000  H
  H133     1.0000 0.17996  0.77922  0.49702  Biso   1.000  H
  H134     1.0000 0.20433  0.76702  0.43018  Biso   1.000  H
  N91      1.0000 0.21297  0.69011  0.48260  Biso   1.000  N
  C135     1.0000 0.25527  0.65229  0.44151  Biso   1.000  C
  C136     1.0000 0.21996  0.54671  0.42879  Biso   1.000  C
  N92      1.0000 0.28909  0.50800  0.70188  Biso   1.000  N
  H135     1.0000 0.33651  0.47830  0.77750  Biso   1.000  H
  H136     1.0000 0.27996  0.53390  0.78690  Biso   1.000  H
  C137     1.0000 0.25994  0.42288  0.57711  Biso   1.000  C
  C138     1.0000 0.32476  0.46469  0.66029  Biso   1.000  C
  C139     1.0000 0.24133  0.68631  0.53960  Biso   1.000  C
  H137     1.0000 0.28612  0.67838  0.41518  Biso   1.000  H
  C140     1.0000 0.30216  0.60879  0.48189  Biso   1.000  C
  N93      1.0000 0.26986  0.54789  0.47379  Biso   1.000  N
  O45      1.0000 0.18594  0.50040  0.40909  Biso   1.000  O
  C141     1.0000 0.29619  0.56919  0.68178  Biso   1.000  C
  N94      1.0000 0.29278  0.47858  0.55943  Biso   1.000  N
  O46      1.0000 0.22087  0.38820  0.54747  Biso   1.000  O
  C142     1.0000 0.34038  0.50542  0.60549  Biso   1.000  C
  H138     1.0000 0.37037  0.44630  0.67771  Biso   1.000  H
  N95      1.0000 0.29075  0.63690  0.54058  Biso   1.000  N
  O47      1.0000 0.22394  0.71714  0.58257  Biso   1.000  O
  H139     1.0000 0.35475  0.60940  0.47079  Biso   1.000  H
  C143     1.0000 0.30554  0.49092  0.49680  Biso   1.000  C
  N96      1.0000 0.31858  0.56722  0.62380  Biso   1.000  N
  O48      1.0000 0.27960  0.61513  0.70981  Biso   1.000  O
  H140     1.0000 0.39298  0.50378  0.59439  Biso   1.000  H
  C144     1.0000 0.33955  0.62381  0.59139  Biso   1.000  C
  H141     1.0000 0.28788  0.45502  0.47329  Biso   1.000  H
  H142     1.0000 0.35884  0.49449  0.49089  Biso   1.000  H
  H143     1.0000 0.33899  0.65961  0.61888  Biso   1.000  H
  H144     1.0000 0.39005  0.61902  0.57720  Biso   1.000  H
  O49      1.0000 0.64577  0.98081  0.64001  Biso   1.000  O
  C145     1.0000 0.66038  0.93191  0.66548  Biso   1.000  C
  N97      1.0000 0.62889  0.87410  0.65349  Biso   1.000  N
  N98      1.0000 0.71196  0.92530  0.71142  Biso   1.000  N
  C146     1.0000 0.58116  0.86270  0.60388  Biso   1.000  C
  C147     1.0000 0.66675  0.82432  0.68639  Biso   1.000  C
  C148     1.0000 0.72340  0.85918  0.72440  Biso   1.000  C
  C149     1.0000 0.76686  0.97152  0.72221  Biso   1.000  C
  N99      1.0000 0.50465  0.84679  0.62130  Biso   1.000  N
  H145     1.0000 0.60114  0.82821  0.58020  Biso   1.000  H
  H146     1.0000 0.57977  0.90019  0.57841  Biso   1.000  H
  N100     1.0000 0.62200  0.79100  0.72883  Biso   1.000  N
  H147     1.0000 0.69096  0.79471  0.65868  Biso   1.000  H
  H148     1.0000 0.77409  0.84609  0.71442  Biso   1.000  H
  N101     1.0000 0.70581  0.84168  0.78506  Biso   1.000  N
  H149     1.0000 0.75617  0.00831  0.69718  Biso   1.000  H
  H150     1.0000 0.81486  0.95481  0.71039  Biso   1.000  H
  N102     1.0000 0.77108  0.99071  0.78488  Biso   1.000  N
  C150     1.0000 0.44977  0.88982  0.61709  Biso   1.000  C
  C151     1.0000 0.48056  0.78499  0.63540  Biso   1.000  C
  C152     1.0000 0.57146  0.74131  0.71271  Biso   1.000  C
  C153     1.0000 0.64687  0.79921  0.78479  Biso   1.000  C
  C154     1.0000 0.75498  0.84529  0.83502  Biso   1.000  C
  C155     1.0000 0.77216  0.05410  0.80069  Biso   1.000  C
  C156     1.0000 0.80961  0.95369  0.82920  Biso   1.000  C
  N103     1.0000 0.38439  0.85749  0.63155  Biso   1.000  N
  O50      1.0000 0.45359  0.94360  0.60388  Biso   1.000  O
  C157     1.0000 0.39570  0.79128  0.63710  Biso   1.000  C
  H151     1.0000 0.49589  0.75440  0.60460  Biso   1.000  H
  N104     1.0000 0.49956  0.76308  0.69543  Biso   1.000  N
  H152     1.0000 0.59208  0.71728  0.67950  Biso   1.000  H
  H153     1.0000 0.56690  0.71268  0.74692  Biso   1.000  H
  O51      1.0000 0.62350  0.77228  0.82965  Biso   1.000  O
  H154     1.0000 0.80309  0.82891  0.82311  Biso   1.000  H
  H155     1.0000 0.73648  0.81812  0.86681  Biso   1.000  H
  N105     1.0000 0.76521  0.90789  0.85888  Biso   1.000  N
  N106     1.0000 0.80061  0.05978  0.85682  Biso   1.000  N
  O52      1.0000 0.75058  0.09770  0.76881  Biso   1.000  O
  C158     1.0000 0.83041  0.00070  0.87769  Biso   1.000  C
  H156     1.0000 0.85409  0.93412  0.81219  Biso   1.000  H
  C159     1.0000 0.31448  0.88588  0.61418  Biso   1.000  C
  N107     1.0000 0.37729  0.76472  0.69324  Biso   1.000  N
  H157     1.0000 0.37177  0.76819  0.60361  Biso   1.000  H
  C160     1.0000 0.43750  0.74750  0.72709  Biso   1.000  C
  C161     1.0000 0.76260  0.91840  0.91941  Biso   1.000  C
  C162     1.0000 0.82431  0.11891  0.88149  Biso   1.000  C
  H158     1.0000 0.88450  0.00310  0.88382  Biso   1.000  H
  N108     1.0000 0.79408  0.97588  0.93069  Biso   1.000  N
  N109     1.0000 0.26899  0.89888  0.66687  Biso   1.000  N
  H159     1.0000 0.28764  0.85749  0.58700  Biso   1.000  H
  H160     1.0000 0.32359  0.92511  0.59269  Biso   1.000  H
  C163     1.0000 0.30265  0.75449  0.71312  Biso   1.000  C
  O53      1.0000 0.43760  0.72427  0.77655  Biso   1.000  O
  O54      1.0000 0.73312  0.88396  0.95626  Biso   1.000  O
  H161     1.0000 0.87741  0.11651  0.89022  Biso   1.000  H
  H162     1.0000 0.81671  0.15152  0.85109  Biso   1.000  H
  N110     1.0000 0.78782  0.13772  0.93481  Biso   1.000  N
  C164     1.0000 0.81401  0.99620  0.99041  Biso   1.000  C
  C165     1.0000 0.26249  0.95791  0.68930  Biso   1.000  C
  C166     1.0000 0.22358  0.85421  0.69570  Biso   1.000  C
  N111     1.0000 0.26498  0.81108  0.73465  Biso   1.000  N
  H163     1.0000 0.30390  0.72338  0.74540  Biso   1.000  H
  H164     1.0000 0.27366  0.73671  0.67981  Biso   1.000  H
  C167     1.0000 0.73560  0.18169  0.93692  Biso   1.000  C
  C168     1.0000 0.81083  0.11600  0.99449  Biso   1.000  C
  H165     1.0000 0.86781  0.00009  0.99292  Biso   1.000  H
  H166     1.0000 0.79962  0.96321  0.01848  Biso   1.000  H
  N112     1.0000 0.78258  0.05359  0.00989  Biso   1.000  N
  O55      1.0000 0.29848  0.00432  0.67524  Biso   1.000  O
  N113     1.0000 0.21029  0.95528  0.73452  Biso   1.000  N
  C169     1.0000 0.17755  0.89362  0.73779  Biso   1.000  C
  H167     1.0000 0.19208  0.83121  0.66651  Biso   1.000  H
  C170     1.0000 0.24237  0.81582  0.79290  Biso   1.000  C
  N114     1.0000 0.71771  0.19431  0.99382  Biso   1.000  N
  O56      1.0000 0.70710  0.20900  0.89228  Biso   1.000  O
  C171     1.0000 0.76899  0.15978  0.03630  Biso   1.000  C
  H168     1.0000 0.86482  0.11900  0.00071  Biso   1.000  H
  C172     1.0000 0.73841  0.05589  0.05958  Biso   1.000  C
  C173     1.0000 0.17199  0.01351  0.74920  Biso   1.000  C
  H169     1.0000 0.12468  0.89372  0.72641  Biso   1.000  H
  N115     1.0000 0.19188  0.86251  0.79612  Biso   1.000  N
  O57      1.0000 0.26448  0.78363  0.83493  Biso   1.000  O
  C174     1.0000 0.68019  0.25048  0.01199  Biso   1.000  C
  N116     1.0000 0.73180  0.11712  0.07628  Biso   1.000  N
  H170     1.0000 0.80261  0.18882  0.05819  Biso   1.000  H
  O58      1.0000 0.71140  0.01126  0.08452  Biso   1.000  O
  H171     1.0000 0.18878  0.04688  0.72261  Biso   1.000  H
  H172     1.0000 0.11898  0.00779  0.74222  Biso   1.000  H
  N117     1.0000 0.18449  0.03210  0.81000  Biso   1.000  N
  C175     1.0000 0.15980  0.88278  0.85199  Biso   1.000  C
  N118     1.0000 0.60808  0.23931  0.03402  Biso   1.000  N
  H173     1.0000 0.67681  0.27920  0.97779  Biso   1.000  H
  H174     1.0000 0.70981  0.27132  0.04342  Biso   1.000  H
  C176     1.0000 0.68729  0.13772  0.12539  Biso   1.000  C
  C177     1.0000 0.20990  0.09202  0.82361  Biso   1.000  C
  C178     1.0000 0.15347  0.00108  0.86072  Biso   1.000  C
  N119     1.0000 0.18811  0.94102  0.87549  Biso   1.000  N
  H175     1.0000 0.10637  0.88710  0.84581  Biso   1.000  H
  H176     1.0000 0.16789  0.84989  0.88198  Biso   1.000  H
  C179     1.0000 0.54488  0.25189  0.00268  Biso   1.000  C
  C180     1.0000 0.59378  0.22050  0.09468  Biso   1.000  C
  N120     1.0000 0.61359  0.15612  0.10941  Biso   1.000  N
  H177     1.0000 0.68484  0.10370  0.15480  Biso   1.000  H
  H178     1.0000 0.71204  0.17338  0.14491  Biso   1.000  H
  N121     1.0000 0.20912  0.09788  0.88449  Biso   1.000  N
  O59      1.0000 0.23120  0.13068  0.78842  Biso   1.000  O
  C181     1.0000 0.17491  0.04458  0.91332  Biso   1.000  C
  H179     1.0000 0.09930  0.99690  0.85642  Biso   1.000  H
  C182     1.0000 0.22567  0.94439  0.92971  Biso   1.000  C
  N122     1.0000 0.48648  0.23922  0.03791  Biso   1.000  N
  O60      1.0000 0.54172  0.26972  0.95142  Biso   1.000  O
  C183     1.0000 0.50829  0.22059  0.09808  Biso   1.000  C
  H180     1.0000 0.61603  0.25029  0.12378  Biso   1.000  H
  C184     1.0000 0.55571  0.12121  0.12351  Biso   1.000  C
  C185     1.0000 0.21278  0.15898  0.91319  Biso   1.000  C
  H181     1.0000 0.13149  0.05701  0.93701  Biso   1.000  H
  N123     1.0000 0.22603  0.00540  0.94770  Biso   1.000  N
  O61      1.0000 0.25460  0.90010  0.95388  Biso   1.000  O
  C186     1.0000 0.41249  0.26212  0.02381  Biso   1.000  C
  N124     1.0000 0.49160  0.15551  0.11290  Biso   1.000  N
  H182     1.0000 0.49010  0.25020  0.12870  Biso   1.000  H
  O62      1.0000 0.55663  0.06907  0.14760  Biso   1.000  O
  H183     1.0000 0.16632  0.16738  0.93351  Biso   1.000  H
  H184     1.0000 0.21951  0.19150  0.88270  Biso   1.000  H
  N125     1.0000 0.27390  0.16198  0.95684  Biso   1.000  N
  C187     1.0000 0.23930  0.01929  0.01110  Biso   1.000  C
  N126     1.0000 0.36042  0.21158  0.00832  Biso   1.000  N
  H185     1.0000 0.41508  0.29140  0.99010  Biso   1.000  H
  H186     1.0000 0.39388  0.28520  0.05828  Biso   1.000  H
  C188     1.0000 0.42110  0.13322  0.12982  Biso   1.000  C
  C189     1.0000 0.32601  0.20731  0.95500  Biso   1.000  C
  C190     1.0000 0.26682  0.13580  0.01710  Biso   1.000  C
  H187     1.0000 0.25997  0.98189  0.03062  Biso   1.000  H
  H188     1.0000 0.19210  0.02848  0.02990  Biso   1.000  H
  N127     1.0000 0.28901  0.07170  0.02157  Biso   1.000  N
  C191     1.0000 0.32538  0.17259  0.05421  Biso   1.000  C
  N128     1.0000 0.37090  0.12421  0.07812  Biso   1.000  N
  H189     1.0000 0.39904  0.16330  0.15749  Biso   1.000  H
  H190     1.0000 0.42703  0.09329  0.15100  Biso   1.000  H
  O63      1.0000 0.34072  0.23898  0.90974  Biso   1.000  O
  H191     1.0000 0.21658  0.14218  0.03281  Biso   1.000  H
  C192     1.0000 0.34903  0.06471  0.06231  Biso   1.000  C
  H192     1.0000 0.30291  0.19821  0.08599  Biso   1.000  H
  O64      1.0000 0.37181  0.01520  0.07973  Biso   1.000  O
  Ne1      1.0000 0.50541  0.50209  0.13186  Biso   1.000  Ne
  He1      1.0000 0.50935  0.62552  0.23582  Biso   1.000  He
  He2      1.0000 0.50622  0.39088  0.03694  Biso   1.000  He
  Ar1      1.0000 0.50385  0.50724  0.13606  Biso   1.000  Ar
  Ne2      1.0000 0.00172  0.01217  0.37515  Biso   1.000  Ne
  He3      1.0000 0.00071  0.93583  0.48904  Biso   1.000  He
  He4      1.0000 0.96784  0.13513  0.30395  Biso   1.000  He
  Ar2      1.0000 0.99407  0.02970  0.36697  Biso   1.000  Ar
  Ne3      1.0000 0.49470  0.00208  0.86814  Biso   1.000  Ne
  He5      1.0000 0.49347  0.88472  0.95128  Biso   1.000  He
  He6      1.0000 0.49148  0.11483  0.78556  Biso   1.000  He
  Ar3      1.0000 0.49624  0.00724  0.86394  Biso   1.000  Ar
  Ne4      1.0000 0.99839  0.51217  0.62484  Biso   1.000  Ne
  He7      1.0000 0.03217  0.63300  0.69449  Biso   1.000  He
  He8      1.0000 0.99886  0.42832  0.50542  Biso   1.000  He
  Ar4      1.0000 0.00603  0.52966  0.63308  Biso   1.000  Ar
