data_image0
_cell_length_a       16.792
_cell_length_b       19.978
_cell_length_c       23.171
_cell_angle_alpha    102.93
_cell_angle_beta     101.11
_cell_angle_gamma    112.55

_symmetry_space_group_name_H-M    "P 1"
_symmetry_int_tables_number       1

loop_
  _symmetry_equiv_pos_as_xyz
  'x, y, z'

loop_
  _atom_site_label
  _atom_site_occupancy
  _atom_site_fract_x
  _atom_site_fract_y
  _atom_site_fract_z
  _atom_site_thermal_displace_type
  _atom_site_B_iso_or_equiv
  _atom_site_type_symbol
  C1       1.0000 0.55074  0.44352  0.42062  Biso   1.000  C
  C2       1.0000 0.51461  0.37837  0.41848  Biso   1.000  C
  C3       1.0000 0.60610  0.52100  0.41950  Biso   1.000  C
  C4       1.0000 0.47409  0.29879  0.41429  Biso   1.000  C
  C5       1.0000 0.68020  0.53081  0.39781  Biso   1.000  C
  C6       1.0000 0.58710  0.58128  0.43948  Biso   1.000  C
  C7       1.0000 0.43212  0.24608  0.35450  Biso   1.000  C
  N1       1.0000 0.48161  0.28418  0.46630  Biso   1.000  N
  C8       1.0000 0.73389  0.60371  0.39580  Biso   1.000  C
  H1       1.0000 0.69409  0.48909  0.38458  Biso   1.000  H
  H2       1.0000 0.53612  0.57372  0.45401  Biso   1.000  H
  C9       1.0000 0.64181  0.65401  0.43892  Biso   1.000  C
  H3       1.0000 0.43083  0.26271  0.31911  Biso   1.000  H
  C10      1.0000 0.39141  0.16750  0.34742  Biso   1.000  C
  C11      1.0000 0.44511  0.20659  0.45792  Biso   1.000  C
  C12      1.0000 0.71790  0.66482  0.41648  Biso   1.000  C
  H4       1.0000 0.78311  0.61029  0.37951  Biso   1.000  H
  H5       1.0000 0.62872  0.69589  0.45308  Biso   1.000  H
  H6       1.0000 0.36031  0.12888  0.30770  Biso   1.000  H
  C13      1.0000 0.39928  0.15031  0.40069  Biso   1.000  C
  C14      1.0000 0.45398  0.18891  0.51669  Biso   1.000  C
  C15      1.0000 0.77786  0.74269  0.41028  Biso   1.000  C
  H7       1.0000 0.37273  0.09812  0.39869  Biso   1.000  H
  C16      1.0000 0.45881  0.17611  0.56511  Biso   1.000  C
  C17      1.0000 0.74760  0.72970  0.34072  Biso   1.000  C
  C18      1.0000 0.77011  0.81101  0.45000  Biso   1.000  C
  C19      1.0000 0.88051  0.76621  0.43748  Biso   1.000  C
  C20      1.0000 0.46638  0.16469  0.61941  Biso   1.000  C
  C21      1.0000 0.66402  0.72461  0.31259  Biso   1.000  C
  C22      1.0000 0.79337  0.70897  0.30048  Biso   1.000  C
  C23      1.0000 0.77868  0.82158  0.51361  Biso   1.000  C
  C24      1.0000 0.76640  0.87059  0.42742  Biso   1.000  C
  C25      1.0000 0.91359  0.73939  0.48181  Biso   1.000  C
  C26      1.0000 0.93959  0.82391  0.42202  Biso   1.000  C
  C27      1.0000 0.47152  0.15732  0.67110  Biso   1.000  C
  C28      1.0000 0.62720  0.70368  0.24898  Biso   1.000  C
  H8       1.0000 0.63018  0.73612  0.33848  Biso   1.000  H
  H9       1.0000 0.84891  0.70819  0.31809  Biso   1.000  H
  C29      1.0000 0.76173  0.69009  0.23762  Biso   1.000  C
  H10      1.0000 0.78530  0.78451  0.53089  Biso   1.000  H
  C30      1.0000 0.77746  0.88487  0.55068  Biso   1.000  C
  C31      1.0000 0.76778  0.93339  0.46528  Biso   1.000  C
  H11      1.0000 0.76278  0.86620  0.38509  Biso   1.000  H
  H12      1.0000 0.87240  0.70092  0.49350  Biso   1.000  H
  C32      1.0000 0.00497  0.76749  0.50919  Biso   1.000  C
  H13      1.0000 0.91691  0.84493  0.39361  Biso   1.000  H
  C33      1.0000 0.03459  0.85218  0.44861  Biso   1.000  C
  C34      1.0000 0.48670  0.15540  0.73531  Biso   1.000  C
  C35      1.0000 0.67454  0.68943  0.21322  Biso   1.000  C
  H14      1.0000 0.56881  0.69971  0.23152  Biso   1.000  H
  H15      1.0000 0.79441  0.67799  0.21108  Biso   1.000  H
  H16      1.0000 0.78159  0.89070  0.59319  Biso   1.000  H
  C36      1.0000 0.77016  0.94268  0.52530  Biso   1.000  C
  H17      1.0000 0.76722  0.97292  0.44912  Biso   1.000  H
  H18      1.0000 0.02690  0.74960  0.54039  Biso   1.000  H
  C37      1.0000 0.06608  0.82331  0.49070  Biso   1.000  C
  H19      1.0000 0.07580  0.89099  0.43711  Biso   1.000  H
  C38      1.0000 0.44640  0.08832  0.74700  Biso   1.000  C
  N2       1.0000 0.54239  0.22458  0.77768  Biso   1.000  N
  O1       1.0000 0.65019  0.67041  0.14710  Biso   1.000  O
  C39      1.0000 0.76478  0.00471  0.56502  Biso   1.000  C
  C40      1.0000 0.16513  0.85312  0.52069  Biso   1.000  C
  H20      1.0000 0.40794  0.04121  0.71431  Biso   1.000  H
  C41      1.0000 0.46398  0.09190  0.80832  Biso   1.000  C
  C42      1.0000 0.55883  0.22472  0.83612  Biso   1.000  C
  C43      1.0000 0.56458  0.66880  0.11860  Biso   1.000  C
  C44      1.0000 0.75701  0.05869  0.59929  Biso   1.000  C
  C45      1.0000 0.24562  0.88090  0.54528  Biso   1.000  C
  H21      1.0000 0.43600  0.04662  0.81819  Biso   1.000  H
  C46      1.0000 0.52007  0.15858  0.85470  Biso   1.000  C
  C47      1.0000 0.61887  0.29898  0.88008  Biso   1.000  C
  H22      1.0000 0.56729  0.71950  0.13541  Biso   1.000  H
  H23      1.0000 0.55281  0.65537  0.07339  Biso   1.000  H
  H24      1.0000 0.51592  0.63053  0.12782  Biso   1.000  H
  C48      1.0000 0.74402  0.11652  0.63999  Biso   1.000  C
  C49      1.0000 0.33837  0.91350  0.57680  Biso   1.000  C
  H25      1.0000 0.53333  0.16142  0.89722  Biso   1.000  H
  C50      1.0000 0.67409  0.36431  0.91319  Biso   1.000  C
  N3       1.0000 0.73061  0.09848  0.69131  Biso   1.000  N
  C51      1.0000 0.74619  0.17857  0.62658  Biso   1.000  C
  N4       1.0000 0.36181  0.89722  0.62858  Biso   1.000  N
  C52      1.0000 0.40192  0.96241  0.55492  Biso   1.000  C
  C53      1.0000 0.74071  0.44214  0.95202  Biso   1.000  C
  C54      1.0000 0.71633  0.15032  0.72940  Biso   1.000  C
  C55      1.0000 0.73380  0.23268  0.66989  Biso   1.000  C
  H26      1.0000 0.75591  0.18621  0.58909  Biso   1.000  H
  C56      1.0000 0.45219  0.92842  0.65852  Biso   1.000  C
  C57      1.0000 0.49170  0.99292  0.58691  Biso   1.000  C
  H27      1.0000 0.38261  0.97389  0.51860  Biso   1.000  H
  C58      1.0000 0.71881  0.50250  0.95240  Biso   1.000  C
  C59      1.0000 0.82329  0.45551  0.99081  Biso   1.000  C
  C60      1.0000 0.71482  0.21770  0.71938  Biso   1.000  C
  C61      1.0000 0.69777  0.12798  0.78481  Biso   1.000  C
  H28      1.0000 0.73909  0.27931  0.66351  Biso   1.000  H
  C62      1.0000 0.51680  0.97580  0.63901  Biso   1.000  C
  C63      1.0000 0.47258  0.90938  0.71300  Biso   1.000  C
  H29      1.0000 0.53622  0.02582  0.57312  Biso   1.000  H
  C64      1.0000 0.77939  0.57642  0.99160  Biso   1.000  C
  H30      1.0000 0.66233  0.49342  0.92581  Biso   1.000  H
  H31      1.0000 0.83829  0.41411  0.99058  Biso   1.000  H
  C65      1.0000 0.88390  0.52930  0.03011  Biso   1.000  C
  H32      1.0000 0.70050  0.25060  0.74751  Biso   1.000  H
  C66      1.0000 0.68223  0.10392  0.82700  Biso   1.000  C
  H33      1.0000 0.57911  0.99669  0.66169  Biso   1.000  H
  C67      1.0000 0.48706  0.89137  0.76008  Biso   1.000  C
  H34      1.0000 0.76440  0.61767  0.99188  Biso   1.000  H
  C68      1.0000 0.86198  0.58977  0.03048  Biso   1.000  C
  H35      1.0000 0.94042  0.53849  0.05670  Biso   1.000  H
  C69      1.0000 0.66860  0.07922  0.87230  Biso   1.000  C
  C70      1.0000 0.49430  0.86712  0.80851  Biso   1.000  C
  C71      1.0000 0.93209  0.67188  0.07239  Biso   1.000  C
  C72      1.0000 0.66269  0.05852  0.91542  Biso   1.000  C
  C73      1.0000 0.49449  0.84402  0.85200  Biso   1.000  C
  C74      1.0000 0.89363  0.73182  0.06769  Biso   1.000  C
  C75      1.0000 0.95228  0.68048  0.14252  Biso   1.000  C
  C76      1.0000 0.01720  0.69129  0.04990  Biso   1.000  C
  C77      1.0000 0.65373  0.03583  0.96902  Biso   1.000  C
  C78      1.0000 0.48511  0.80351  0.89922  Biso   1.000  C
  C79      1.0000 0.93140  0.78980  0.04329  Biso   1.000  C
  C80      1.0000 0.81683  0.72280  0.08571  Biso   1.000  C
  C81      1.0000 0.92271  0.61787  0.16338  Biso   1.000  C
  C82      1.0000 0.00537  0.75391  0.18508  Biso   1.000  C
  C83      1.0000 0.00864  0.68613  0.98802  Biso   1.000  C
  C84      1.0000 0.10087  0.71047  0.09088  Biso   1.000  C
  N5       1.0000 0.69342  0.98812  0.97889  Biso   1.000  N
  C85      1.0000 0.61320  0.05971  0.01102  Biso   1.000  C
  N6       1.0000 0.40958  0.79018  0.91421  Biso   1.000  N
  C86      1.0000 0.54858  0.78248  0.92250  Biso   1.000  C
  H36      1.0000 0.98391  0.79588  0.03100  Biso   1.000  H
  C87      1.0000 0.89221  0.83872  0.03682  Biso   1.000  C
  C88      1.0000 0.77768  0.77170  0.07919  Biso   1.000  C
  H37      1.0000 0.79100  0.68310  0.10238  Biso   1.000  H
  H38      1.0000 0.88640  0.56766  0.13428  Biso   1.000  H
  C89      1.0000 0.94629  0.62869  0.22680  Biso   1.000  C
  C90      1.0000 0.02899  0.76479  0.24850  Biso   1.000  C
  H39      1.0000 0.02562  0.79669  0.17079  Biso   1.000  H
  H40      1.0000 0.95142  0.67299  0.95999  Biso   1.000  H
  C91      1.0000 0.08369  0.70023  0.96702  Biso   1.000  C
  H41      1.0000 0.10670  0.71411  0.13321  Biso   1.000  H
  C92      1.0000 0.17598  0.72457  0.06988  Biso   1.000  C
  C93      1.0000 0.69261  0.96431  0.03081  Biso   1.000  C
  H42      1.0000 0.58612  0.09230  0.00422  Biso   1.000  H
  C94      1.0000 0.61250  0.03577  0.06289  Biso   1.000  C
  C95      1.0000 0.39487  0.75319  0.95552  Biso   1.000  C
  C96      1.0000 0.53319  0.74360  0.96450  Biso   1.000  C
  H43      1.0000 0.60192  0.79413  0.91030  Biso   1.000  H
  H44      1.0000 0.91802  0.87840  0.02010  Biso   1.000  H
  C97      1.0000 0.81539  0.82968  0.05479  Biso   1.000  C
  H45      1.0000 0.72507  0.76558  0.09139  Biso   1.000  H
  H46      1.0000 0.92611  0.58591  0.24110  Biso   1.000  H
  C98      1.0000 0.99938  0.70219  0.26941  Biso   1.000  C
  H47      1.0000 0.06541  0.81499  0.27761  Biso   1.000  H
  H48      1.0000 0.07779  0.69670  0.92469  Biso   1.000  H
  C99      1.0000 0.16738  0.71947  0.00799  Biso   1.000  C
  H49      1.0000 0.23319  0.73782  0.09791  Biso   1.000  H
  C100     1.0000 0.73422  0.91681  0.03719  Biso   1.000  C
  C101     1.0000 0.65222  0.98808  0.07281  Biso   1.000  C
  H50      1.0000 0.58482  0.05210  0.09158  Biso   1.000  H
  C102     1.0000 0.31370  0.74158  0.97251  Biso   1.000  C
  C103     1.0000 0.45530  0.72820  0.98150  Biso   1.000  C
  H51      1.0000 0.57600  0.72748  0.98159  Biso   1.000  H
  C104     1.0000 0.76788  0.87860  0.04390  Biso   1.000  C
  O2       1.0000 0.02930  0.72178  0.33400  Biso   1.000  O
  C105     1.0000 0.24877  0.73077  0.98918  Biso   1.000  C
  H52      1.0000 0.65161  0.97182  0.10830  Biso   1.000  H
  H53      1.0000 0.44337  0.70128  0.01018  Biso   1.000  H
  C106     1.0000 0.00281  0.65080  0.35481  Biso   1.000  C
  H54      1.0000 0.94293  0.61122  0.32720  Biso   1.000  H
  H55      1.0000 0.04774  0.63102  0.35281  Biso   1.000  H
  H56      1.0000 0.00077  0.66469  0.39770  Biso   1.000  H
  C107     1.0000 0.44930  0.55651  0.57941  Biso   1.000  C
  C108     1.0000 0.39392  0.47901  0.58048  Biso   1.000  C
  C109     1.0000 0.48538  0.62159  0.58150  Biso   1.000  C
  C110     1.0000 0.31982  0.46920  0.60218  Biso   1.000  C
  C111     1.0000 0.41289  0.41868  0.56050  Biso   1.000  C
  C112     1.0000 0.52593  0.70122  0.58570  Biso   1.000  C
  C113     1.0000 0.26607  0.39630  0.60418  Biso   1.000  C
  H57      1.0000 0.30592  0.51092  0.61540  Biso   1.000  H
  C114     1.0000 0.35822  0.34602  0.56111  Biso   1.000  C
  H58      1.0000 0.46391  0.42631  0.54602  Biso   1.000  H
  C115     1.0000 0.56787  0.75388  0.64548  Biso   1.000  C
  N7       1.0000 0.51838  0.71578  0.53368  Biso   1.000  N
  C116     1.0000 0.28212  0.33520  0.58351  Biso   1.000  C
  H59      1.0000 0.21688  0.38967  0.62048  Biso   1.000  H
  H60      1.0000 0.37130  0.30412  0.54691  Biso   1.000  H
  H61      1.0000 0.56921  0.73733  0.68092  Biso   1.000  H
  C117     1.0000 0.60863  0.83253  0.65261  Biso   1.000  C
  C118     1.0000 0.55490  0.79339  0.54211  Biso   1.000  C
  C119     1.0000 0.22207  0.25727  0.58970  Biso   1.000  C
  H62      1.0000 0.63969  0.87108  0.69228  Biso   1.000  H
  C120     1.0000 0.60068  0.84970  0.59929  Biso   1.000  C
  C121     1.0000 0.54597  0.81110  0.48330  Biso   1.000  C
  C122     1.0000 0.22991  0.18900  0.54998  Biso   1.000  C
  C123     1.0000 0.25243  0.27033  0.65931  Biso   1.000  C
  C124     1.0000 0.11951  0.23380  0.56251  Biso   1.000  C
  H63      1.0000 0.62729  0.90189  0.60129  Biso   1.000  H
  C125     1.0000 0.54123  0.82393  0.43492  Biso   1.000  C
  C126     1.0000 0.22133  0.17840  0.48642  Biso   1.000  C
  C127     1.0000 0.23362  0.12939  0.57261  Biso   1.000  C
  C128     1.0000 0.33600  0.27541  0.68739  Biso   1.000  C
  C129     1.0000 0.20662  0.29098  0.69950  Biso   1.000  C
  C130     1.0000 0.08643  0.26059  0.51822  Biso   1.000  C
  C131     1.0000 0.06039  0.17612  0.57801  Biso   1.000  C
  C132     1.0000 0.53358  0.83528  0.38062  Biso   1.000  C
  C133     1.0000 0.22248  0.11509  0.44931  Biso   1.000  C
  H64      1.0000 0.21472  0.21550  0.46910  Biso   1.000  H
  C134     1.0000 0.23218  0.06662  0.53471  Biso   1.000  C
  H65      1.0000 0.23723  0.13382  0.61489  Biso   1.000  H
  C135     1.0000 0.37280  0.29627  0.75100  Biso   1.000  C
  H66      1.0000 0.36978  0.26390  0.66150  Biso   1.000  H
  H67      1.0000 0.15108  0.29177  0.68190  Biso   1.000  H
  C136     1.0000 0.23828  0.30989  0.76241  Biso   1.000  C
  H68      1.0000 0.12761  0.29909  0.50649  Biso   1.000  H
  C137     1.0000 0.99496  0.23247  0.49080  Biso   1.000  C
  H69      1.0000 0.08313  0.15510  0.60642  Biso   1.000  H
  C138     1.0000 0.96540  0.14778  0.55138  Biso   1.000  C
  C139     1.0000 0.52850  0.84269  0.32889  Biso   1.000  C
  H70      1.0000 0.21842  0.10931  0.40679  Biso   1.000  H
  C140     1.0000 0.22977  0.05728  0.47468  Biso   1.000  C
  H71      1.0000 0.23282  0.02711  0.55091  Biso   1.000  H
  C141     1.0000 0.32549  0.31061  0.78681  Biso   1.000  C
  H72      1.0000 0.43123  0.30033  0.76851  Biso   1.000  H
  H73      1.0000 0.20560  0.32202  0.78891  Biso   1.000  H
  H74      1.0000 0.97312  0.25041  0.45960  Biso   1.000  H
  C142     1.0000 0.93388  0.17670  0.50928  Biso   1.000  C
  H75      1.0000 0.92419  0.10897  0.56288  Biso   1.000  H
  C143     1.0000 0.51334  0.84463  0.26472  Biso   1.000  C
  C144     1.0000 0.23520  0.99532  0.43501  Biso   1.000  C
  O3       1.0000 0.34982  0.32960  0.85289  Biso   1.000  O
  C145     1.0000 0.83489  0.14690  0.47929  Biso   1.000  C
  C146     1.0000 0.55362  0.91169  0.25299  Biso   1.000  C
  N8       1.0000 0.45760  0.77538  0.22230  Biso   1.000  N
  C147     1.0000 0.24300  0.94132  0.40069  Biso   1.000  C
  C148     1.0000 0.43538  0.33122  0.88138  Biso   1.000  C
  C149     1.0000 0.75440  0.11911  0.45471  Biso   1.000  C
  H76      1.0000 0.59210  0.95882  0.28572  Biso   1.000  H
  C150     1.0000 0.53598  0.90808  0.19171  Biso   1.000  C
  C151     1.0000 0.44121  0.77532  0.16391  Biso   1.000  C
  C152     1.0000 0.25600  0.88350  0.35999  Biso   1.000  C
  H77      1.0000 0.43275  0.28053  0.86462  Biso   1.000  H
  H78      1.0000 0.44719  0.34458  0.92660  Biso   1.000  H
  H79      1.0000 0.48411  0.36951  0.87221  Biso   1.000  H
  C153     1.0000 0.66158  0.08652  0.42318  Biso   1.000  C
  H80      1.0000 0.56401  0.95339  0.18179  Biso   1.000  H
  C154     1.0000 0.47986  0.84138  0.14528  Biso   1.000  C
  C155     1.0000 0.38106  0.70098  0.11991  Biso   1.000  C
  N9       1.0000 0.26938  0.90148  0.30868  Biso   1.000  N
  C156     1.0000 0.25380  0.82139  0.37341  Biso   1.000  C
  N10      1.0000 0.63821  0.10279  0.37140  Biso   1.000  N
  C157     1.0000 0.59812  0.03762  0.44512  Biso   1.000  C
  H81      1.0000 0.46671  0.83861  0.10282  Biso   1.000  H
  C158     1.0000 0.32592  0.63571  0.08680  Biso   1.000  C
  C159     1.0000 0.28368  0.84969  0.27059  Biso   1.000  C
  C160     1.0000 0.26619  0.76728  0.33010  Biso   1.000  C
  H82      1.0000 0.24411  0.81380  0.41089  Biso   1.000  H
  C161     1.0000 0.54779  0.07162  0.34151  Biso   1.000  C
  C162     1.0000 0.50832  0.00709  0.41308  Biso   1.000  C
  H83      1.0000 0.61738  0.02607  0.48139  Biso   1.000  H
  C163     1.0000 0.25933  0.55790  0.04801  Biso   1.000  C
  C164     1.0000 0.28520  0.78231  0.28060  Biso   1.000  C
  C165     1.0000 0.30216  0.87198  0.21518  Biso   1.000  C
  H84      1.0000 0.26087  0.72070  0.33648  Biso   1.000  H
  C166     1.0000 0.48324  0.02423  0.36102  Biso   1.000  C
  C167     1.0000 0.52741  0.09057  0.28698  Biso   1.000  C
  H85      1.0000 0.46382  0.97421  0.42691  Biso   1.000  H
  C168     1.0000 0.28121  0.49751  0.04759  Biso   1.000  C
  C169     1.0000 0.17669  0.54453  0.00922  Biso   1.000  C
  H86      1.0000 0.29953  0.74943  0.25252  Biso   1.000  H
  C170     1.0000 0.31779  0.89609  0.17299  Biso   1.000  C
  H87      1.0000 0.42089  0.00327  0.33830  Biso   1.000  H
  C171     1.0000 0.51287  0.10859  0.23990  Biso   1.000  C
  C172     1.0000 0.22057  0.42360  0.00838  Biso   1.000  C
  H88      1.0000 0.33768  0.50659  0.07418  Biso   1.000  H
  C173     1.0000 0.11611  0.47068  0.96992  Biso   1.000  C
  H89      1.0000 0.16173  0.58590  0.00941  Biso   1.000  H
  C174     1.0000 0.33136  0.92079  0.12768  Biso   1.000  C
  C175     1.0000 0.50568  0.13291  0.19152  Biso   1.000  C
  C176     1.0000 0.13801  0.41019  0.96950  Biso   1.000  C
  H90      1.0000 0.23559  0.38229  0.00810  Biso   1.000  H
  H91      1.0000 0.05957  0.46147  0.94328  Biso   1.000  H
  C177     1.0000 0.33728  0.94151  0.08461  Biso   1.000  C
  C178     1.0000 0.50547  0.15599  0.14798  Biso   1.000  C
  C179     1.0000 0.06790  0.32808  0.92759  Biso   1.000  C
  C180     1.0000 0.34631  0.96421  0.03101  Biso   1.000  C
  C181     1.0000 0.51493  0.19652  0.10081  Biso   1.000  C
  C182     1.0000 0.10639  0.26820  0.93229  Biso   1.000  C
  C183     1.0000 0.98279  0.30867  0.95008  Biso   1.000  C
  C184     1.0000 0.04768  0.31950  0.85751  Biso   1.000  C
  N11      1.0000 0.30659  0.01190  0.02109  Biso   1.000  N
  C185     1.0000 0.38683  0.94032  0.98901  Biso   1.000  C
  N12      1.0000 0.59043  0.20980  0.08582  Biso   1.000  N
  C186     1.0000 0.45141  0.21748  0.07748  Biso   1.000  C
  C187     1.0000 0.06861  0.21022  0.95669  Biso   1.000  C
  C188     1.0000 0.18321  0.27723  0.91432  Biso   1.000  C
  C189     1.0000 0.89912  0.28949  0.90910  Biso   1.000  C
  C190     1.0000 0.99140  0.31390  0.01201  Biso   1.000  C
  C191     1.0000 0.99458  0.24610  0.81490  Biso   1.000  C
  C192     1.0000 0.07728  0.38209  0.83660  Biso   1.000  C
  C193     1.0000 0.30742  0.03572  0.96922  Biso   1.000  C
  H92      1.0000 0.41389  0.90768  0.99581  Biso   1.000  H
  C194     1.0000 0.38749  0.96419  0.93709  Biso   1.000  C
  C195     1.0000 0.60508  0.24679  0.04452  Biso   1.000  C
  C196     1.0000 0.46682  0.25641  0.03548  Biso   1.000  C
  H93      1.0000 0.39810  0.20589  0.08968  Biso   1.000  H
  C197     1.0000 0.10783  0.16131  0.96321  Biso   1.000  C
  H94      1.0000 0.01608  0.20408  0.96899  Biso   1.000  H
  C198     1.0000 0.22228  0.22831  0.92079  Biso   1.000  C
  H95      1.0000 0.20902  0.31692  0.89760  Biso   1.000  H
  C199     1.0000 0.82401  0.27539  0.93011  Biso   1.000  C
  H96      1.0000 0.89332  0.28590  0.86678  Biso   1.000  H
  C200     1.0000 0.91629  0.29980  0.03301  Biso   1.000  C
  H97      1.0000 0.04860  0.32702  0.04000  Biso   1.000  H
  C201     1.0000 0.97101  0.23517  0.75148  Biso   1.000  C
  H98      1.0000 0.97440  0.20333  0.82920  Biso   1.000  H
  H99      1.0000 0.11359  0.43230  0.86571  Biso   1.000  H
  C202     1.0000 0.05370  0.37127  0.77318  Biso   1.000  C
  C203     1.0000 0.34779  0.01190  0.92722  Biso   1.000  C
  C204     1.0000 0.26580  0.08320  0.96279  Biso   1.000  C
  H100     1.0000 0.41520  0.94791  0.90841  Biso   1.000  H
  C205     1.0000 0.54472  0.27181  0.01849  Biso   1.000  C
  C206     1.0000 0.68631  0.25839  0.02752  Biso   1.000  C
  H101     1.0000 0.42399  0.27248  0.01839  Biso   1.000  H
  C207     1.0000 0.18460  0.17028  0.94519  Biso   1.000  C
  H102     1.0000 0.08200  0.12161  0.97988  Biso   1.000  H
  H103     1.0000 0.27486  0.23438  0.90859  Biso   1.000  H
  C208     1.0000 0.83261  0.28049  0.99199  Biso   1.000  C
  H104     1.0000 0.76679  0.26222  0.90212  Biso   1.000  H
  H105     1.0000 0.92222  0.30331  0.07530  Biso   1.000  H
  H106     1.0000 0.93458  0.18497  0.72238  Biso   1.000  H
  C209     1.0000 0.00058  0.29778  0.73062  Biso   1.000  C
  H107     1.0000 0.07390  0.41410  0.75889  Biso   1.000  H
  H108     1.0000 0.34840  0.02819  0.89169  Biso   1.000  H
  C210     1.0000 0.23208  0.12141  0.95609  Biso   1.000  C
  H109     1.0000 0.55662  0.29868  0.98980  Biso   1.000  H
  C211     1.0000 0.75117  0.26919  0.01080  Biso   1.000  C
  O4       1.0000 0.97070  0.27818  0.66599  Biso   1.000  O
  C212     1.0000 0.99723  0.34923  0.64522  Biso   1.000  C
  H110     1.0000 0.95230  0.36901  0.64722  Biso   1.000  H
  H111     1.0000 0.99916  0.33527  0.60229  Biso   1.000  H
  H112     1.0000 0.05709  0.38879  0.67279  Biso   1.000  H
  Ne1      1.0000 0.86102  0.70917  0.74155  Biso   1.000  Ne
  He1      1.0000 0.90193  0.79866  0.77637  Biso   1.000  He
  He2      1.0000 0.73556  0.66766  0.73286  Biso   1.000  He
  He3      1.0000 0.78874  0.53413  0.69691  Biso   1.000  He
  Ar1      1.0000 0.73486  0.66623  0.73262  Biso   1.000  Ar
  Ne2      1.0000 0.13898  0.29082  0.25845  Biso   1.000  Ne
  He4      1.0000 0.21150  0.45127  0.30173  Biso   1.000  He
  He5      1.0000 0.12388  0.54395  0.32670  Biso   1.000  He
  He6      1.0000 0.06035  0.16764  0.21283  Biso   1.000  He
  Ar2      1.0000 0.16602  0.29819  0.26315  Biso   1.000  Ar
