data_image0
_cell_length_a       18.356
_cell_length_b       10.767
_cell_length_c       25.544
_cell_angle_alpha    90
_cell_angle_beta     92.66
_cell_angle_gamma    90

_symmetry_space_group_name_H-M    "P 1"
_symmetry_int_tables_number       1

loop_
  _symmetry_equiv_pos_as_xyz
  'x, y, z'

loop_
  _atom_site_label
  _atom_site_occupancy
  _atom_site_fract_x
  _atom_site_fract_y
  _atom_site_fract_z
  _atom_site_thermal_displace_type
  _atom_site_B_iso_or_equiv
  _atom_site_type_symbol
  S1       1.0000 0.59222  0.85465  0.56085  Biso   1.000  S
  C1       1.0000 0.59964  0.96099  0.50775  Biso   1.000  C
  C2       1.0000 0.68003  0.79326  0.56650  Biso   1.000  C
  C3       1.0000 0.56783  0.92310  0.45986  Biso   1.000  C
  C4       1.0000 0.62861  0.08071  0.51265  Biso   1.000  C
  N1       1.0000 0.73039  0.82734  0.53315  Biso   1.000  N
  N2       1.0000 0.68995  0.71264  0.60624  Biso   1.000  N
  C5       1.0000 0.56441  0.00056  0.41620  Biso   1.000  C
  H1       1.0000 0.54830  0.84360  0.45688  Biso   1.000  H
  C6       1.0000 0.62337  0.15900  0.46954  Biso   1.000  C
  C7       1.0000 0.66800  0.12696  0.56172  Biso   1.000  C
  N3       1.0000 0.79531  0.77320  0.53879  Biso   1.000  N
  N4       1.0000 0.75440  0.65729  0.61133  Biso   1.000  N
  C8       1.0000 0.53309  0.95347  0.36553  Biso   1.000  C
  C9       1.0000 0.59251  0.12000  0.42185  Biso   1.000  C
  H2       1.0000 0.64102  0.23971  0.47279  Biso   1.000  H
  O1       1.0000 0.68708  0.06241  0.59812  Biso   1.000  O
  O2       1.0000 0.68120  0.24789  0.55932  Biso   1.000  O
  C10      1.0000 0.80397  0.68849  0.57673  Biso   1.000  C
  O3       1.0000 0.48337  0.86654  0.37270  Biso   1.000  O
  O4       1.0000 0.55067  0.98811  0.32312  Biso   1.000  O
  S2       1.0000 0.58306  0.23637  0.37172  Biso   1.000  S
  C11      1.0000 0.72402  0.30194  0.60240  Biso   1.000  C
  S3       1.0000 0.88724  0.61113  0.58562  Biso   1.000  S
  C12      1.0000 0.44878  0.81675  0.32379  Biso   1.000  C
  C13      1.0000 0.65192  0.18984  0.33037  Biso   1.000  C
  H3       1.0000 0.73282  0.38804  0.59518  Biso   1.000  H
  H4       1.0000 0.76968  0.25894  0.60671  Biso   1.000  H
  H5       1.0000 0.69800  0.29470  0.63398  Biso   1.000  H
  C14      1.0000 0.92795  0.64465  0.52499  Biso   1.000  C
  H6       1.0000 0.44542  0.88130  0.29789  Biso   1.000  H
  H7       1.0000 0.40078  0.78713  0.33049  Biso   1.000  H
  H8       1.0000 0.47772  0.74961  0.31129  Biso   1.000  H
  N5       1.0000 0.64701  0.24222  0.28307  Biso   1.000  N
  N6       1.0000 0.70432  0.11489  0.34876  Biso   1.000  N
  C15      1.0000 0.98582  0.72648  0.52695  Biso   1.000  C
  C16      1.0000 0.90776  0.58419  0.47820  Biso   1.000  C
  N7       1.0000 0.69689  0.21009  0.24972  Biso   1.000  N
  N8       1.0000 0.75483  0.08192  0.31525  Biso   1.000  N
  H9       1.0000 0.99879  0.76651  0.55831  Biso   1.000  H
  C17      1.0000 0.02537  0.75016  0.48224  Biso   1.000  C
  C18      1.0000 0.94686  0.60815  0.43407  Biso   1.000  C
  C19      1.0000 0.84301  0.49884  0.47354  Biso   1.000  C
  C20      1.0000 0.74802  0.12808  0.26704  Biso   1.000  C
  C21      1.0000 0.00614  0.68989  0.43501  Biso   1.000  C
  C22      1.0000 0.08779  0.83793  0.48627  Biso   1.000  C
  H10      1.0000 0.93307  0.56868  0.40280  Biso   1.000  H
  O5       1.0000 0.78912  0.50794  0.49780  Biso   1.000  O
  O6       1.0000 0.85244  0.41014  0.43811  Biso   1.000  O
  S4       1.0000 0.80895  0.08777  0.21943  Biso   1.000  S
  S5       1.0000 0.05849  0.71506  0.37850  Biso   1.000  S
  O7       1.0000 0.13542  0.84220  0.45539  Biso   1.000  O
  O8       1.0000 0.08538  0.90954  0.52829  Biso   1.000  O
  C23      1.0000 0.79039  0.32646  0.42968  Biso   1.000  C
  C24      1.0000 0.86214  0.97130  0.25168  Biso   1.000  C
  S6       1.0000 0.99688  0.63936  0.31783  Biso   1.000  S
  C25      1.0000 0.14481  0.99731  0.53750  Biso   1.000  C
  H11      1.0000 0.80359  0.25978  0.40711  Biso   1.000  H
  H12      1.0000 0.75002  0.37151  0.41369  Biso   1.000  H
  H13      1.0000 0.77678  0.29340  0.46268  Biso   1.000  H
  C26      1.0000 0.85711  0.85391  0.22871  Biso   1.000  C
  C27      1.0000 0.91057  0.98681  0.29565  Biso   1.000  C
  C28      1.0000 0.94383  0.76790  0.29271  Biso   1.000  C
  H14      1.0000 0.19061  0.95440  0.53640  Biso   1.000  H
  H15      1.0000 0.14228  0.06028  0.51089  Biso   1.000  H
  H16      1.0000 0.14079  0.03520  0.57132  Biso   1.000  H
  H17      1.0000 0.82523  0.84230  0.19979  Biso   1.000  H
  C29      1.0000 0.89821  0.75397  0.24757  Biso   1.000  C
  C30      1.0000 0.94810  0.88446  0.31576  Biso   1.000  C
  C31      1.0000 0.92928  0.10616  0.32301  Biso   1.000  C
  C32      1.0000 0.89283  0.63240  0.22001  Biso   1.000  C
  H18      1.0000 0.97752  0.89449  0.34609  Biso   1.000  H
  O9       1.0000 0.96538  0.11052  0.36310  Biso   1.000  O
  O10      1.0000 0.90546  0.20535  0.29836  Biso   1.000  O
  O11      1.0000 0.92625  0.54138  0.23467  Biso   1.000  O
  O12      1.0000 0.84867  0.63490  0.17734  Biso   1.000  O
  C33      1.0000 0.92728  0.32414  0.32066  Biso   1.000  C
  C34      1.0000 0.84579  0.52020  0.14704  Biso   1.000  C
  H19      1.0000 0.90361  0.38971  0.30090  Biso   1.000  H
  H20      1.0000 0.97922  0.33333  0.31928  Biso   1.000  H
  H21      1.0000 0.91362  0.32813  0.35640  Biso   1.000  H
  H22      1.0000 0.80782  0.52596  0.12012  Biso   1.000  H
  H23      1.0000 0.83608  0.45166  0.16969  Biso   1.000  H
  H24      1.0000 0.89168  0.50738  0.13129  Biso   1.000  H
  S7       1.0000 0.40775  0.14535  0.43913  Biso   1.000  S
  C35      1.0000 0.31995  0.20674  0.43352  Biso   1.000  C
  C36      1.0000 0.40039  0.03901  0.49223  Biso   1.000  C
  N9       1.0000 0.31003  0.28736  0.39378  Biso   1.000  N
  N10      1.0000 0.26964  0.17266  0.46687  Biso   1.000  N
  C37      1.0000 0.43219  0.07690  0.54012  Biso   1.000  C
  C38      1.0000 0.37142  0.91929  0.48733  Biso   1.000  C
  N11      1.0000 0.24563  0.34271  0.38865  Biso   1.000  N
  N12      1.0000 0.20471  0.22680  0.46119  Biso   1.000  N
  H25      1.0000 0.45172  0.15640  0.54310  Biso   1.000  H
  C39      1.0000 0.43556  0.99944  0.58378  Biso   1.000  C
  C40      1.0000 0.37665  0.84100  0.53044  Biso   1.000  C
  C41      1.0000 0.33202  0.87304  0.43827  Biso   1.000  C
  C42      1.0000 0.19600  0.31151  0.42326  Biso   1.000  C
  C43      1.0000 0.46689  0.04653  0.63449  Biso   1.000  C
  C44      1.0000 0.40746  0.88000  0.57814  Biso   1.000  C
  H26      1.0000 0.35901  0.76029  0.52719  Biso   1.000  H
  O13      1.0000 0.31289  0.93759  0.40186  Biso   1.000  O
  O14      1.0000 0.31883  0.75211  0.44070  Biso   1.000  O
  S8       1.0000 0.11273  0.38887  0.41440  Biso   1.000  S
  O15      1.0000 0.44936  0.01189  0.67690  Biso   1.000  O
  O16      1.0000 0.51665  0.13346  0.62728  Biso   1.000  O
  S9       1.0000 0.41691  0.76363  0.62826  Biso   1.000  S
  C45      1.0000 0.27600  0.69806  0.39759  Biso   1.000  C
  C46      1.0000 0.07202  0.35535  0.47499  Biso   1.000  C
  C47      1.0000 0.55119  0.18325  0.67619  Biso   1.000  C
  C48      1.0000 0.34810  0.81016  0.66961  Biso   1.000  C
  H27      1.0000 0.26721  0.61196  0.40480  Biso   1.000  H
  H28      1.0000 0.23029  0.74106  0.39331  Biso   1.000  H
  H29      1.0000 0.30202  0.70530  0.36600  Biso   1.000  H
  C49      1.0000 0.01421  0.27352  0.47307  Biso   1.000  C
  C50      1.0000 0.09226  0.41581  0.52178  Biso   1.000  C
  H30      1.0000 0.55460  0.11870  0.70210  Biso   1.000  H
  H31      1.0000 0.59919  0.21287  0.66949  Biso   1.000  H
  H32      1.0000 0.52230  0.25039  0.68869  Biso   1.000  H
  N13      1.0000 0.35296  0.75778  0.71695  Biso   1.000  N
  N14      1.0000 0.29571  0.88511  0.65127  Biso   1.000  N
  H33      1.0000 0.00118  0.23349  0.44171  Biso   1.000  H
  C51      1.0000 0.97460  0.24984  0.51774  Biso   1.000  C
  C52      1.0000 0.05316  0.39185  0.56591  Biso   1.000  C
  C53      1.0000 0.15696  0.50116  0.52644  Biso   1.000  C
  N15      1.0000 0.30314  0.78991  0.75030  Biso   1.000  N
  N16      1.0000 0.24519  0.91808  0.68473  Biso   1.000  N
  C54      1.0000 0.99389  0.31011  0.56501  Biso   1.000  C
  C55      1.0000 0.91218  0.16207  0.51371  Biso   1.000  C
  H34      1.0000 0.06690  0.43132  0.59718  Biso   1.000  H
  O17      1.0000 0.21091  0.49206  0.50222  Biso   1.000  O
  O18      1.0000 0.14753  0.58986  0.56191  Biso   1.000  O
  C56      1.0000 0.25201  0.87192  0.73294  Biso   1.000  C
  S10      1.0000 0.94148  0.28494  0.62152  Biso   1.000  S
  O19      1.0000 0.86460  0.15780  0.54463  Biso   1.000  O
  O20      1.0000 0.91464  0.09046  0.47170  Biso   1.000  O
  C57      1.0000 0.20958  0.67354  0.57030  Biso   1.000  C
  S11      1.0000 0.19102  0.91223  0.78059  Biso   1.000  S
  S12      1.0000 0.00314  0.36064  0.68219  Biso   1.000  S
  C58      1.0000 0.85521  0.00269  0.46249  Biso   1.000  C
  H35      1.0000 0.19639  0.74022  0.59291  Biso   1.000  H
  H36      1.0000 0.25000  0.62849  0.58629  Biso   1.000  H
  H37      1.0000 0.22319  0.70660  0.53730  Biso   1.000  H
  C59      1.0000 0.13789  0.02870  0.74834  Biso   1.000  C
  C60      1.0000 0.05619  0.23210  0.70727  Biso   1.000  C
  H38      1.0000 0.85769  0.93972  0.48910  Biso   1.000  H
  H39      1.0000 0.85919  0.96480  0.42870  Biso   1.000  H
  H40      1.0000 0.80941  0.04560  0.46358  Biso   1.000  H
  C61      1.0000 0.14291  0.14609  0.77127  Biso   1.000  C
  C62      1.0000 0.08940  0.01319  0.70433  Biso   1.000  C
  C63      1.0000 0.10182  0.24603  0.75242  Biso   1.000  C
  C64      1.0000 0.05192  0.11554  0.68422  Biso   1.000  C
  H41      1.0000 0.17480  0.15770  0.80019  Biso   1.000  H
  C65      1.0000 0.07069  0.89384  0.67701  Biso   1.000  C
  C66      1.0000 0.10720  0.36760  0.78001  Biso   1.000  C
  H42      1.0000 0.02251  0.10551  0.65389  Biso   1.000  H
  O21      1.0000 0.03460  0.88948  0.63692  Biso   1.000  O
  O22      1.0000 0.09451  0.79465  0.70163  Biso   1.000  O
  O23      1.0000 0.07373  0.45862  0.76535  Biso   1.000  O
  O24      1.0000 0.15135  0.36510  0.82268  Biso   1.000  O
  C67      1.0000 0.07269  0.67586  0.67936  Biso   1.000  C
  C68      1.0000 0.15418  0.47980  0.85298  Biso   1.000  C
  H43      1.0000 0.09641  0.61029  0.69912  Biso   1.000  H
  H44      1.0000 0.02081  0.66667  0.68070  Biso   1.000  H
  H45      1.0000 0.08640  0.67187  0.64358  Biso   1.000  H
  H46      1.0000 0.19220  0.47404  0.87990  Biso   1.000  H
  H47      1.0000 0.16389  0.54834  0.83029  Biso   1.000  H
  H48      1.0000 0.10829  0.49262  0.86869  Biso   1.000  H
  N17      1.0000 0.69687  0.28987  0.74971  Biso   1.000  N
  N18      1.0000 0.64700  0.25782  0.78306  Biso   1.000  N
  C69      1.0000 0.74800  0.37188  0.76703  Biso   1.000  C
  C70      1.0000 0.65191  0.31021  0.83037  Biso   1.000  C
  S13      1.0000 0.80894  0.41219  0.71942  Biso   1.000  S
  N19      1.0000 0.75482  0.41813  0.81524  Biso   1.000  N
  S14      1.0000 0.58305  0.26358  0.87171  Biso   1.000  S
  N20      1.0000 0.70430  0.38507  0.84875  Biso   1.000  N
  C71      1.0000 0.86212  0.52875  0.75167  Biso   1.000  C
  C72      1.0000 0.59255  0.37996  0.92187  Biso   1.000  C
  C73      1.0000 0.85710  0.64614  0.72871  Biso   1.000  C
  C74      1.0000 0.91056  0.51323  0.79564  Biso   1.000  C
  C75      1.0000 0.56445  0.49940  0.91619  Biso   1.000  C
  C76      1.0000 0.62336  0.34104  0.96957  Biso   1.000  C
  H49      1.0000 0.82521  0.65766  0.69978  Biso   1.000  H
  C77      1.0000 0.89819  0.74598  0.74760  Biso   1.000  C
  C78      1.0000 0.94809  0.61549  0.81579  Biso   1.000  C
  C79      1.0000 0.92932  0.39380  0.82300  Biso   1.000  C
  C80      1.0000 0.56782  0.57686  0.95985  Biso   1.000  C
  C81      1.0000 0.53313  0.54648  0.86552  Biso   1.000  C
  H50      1.0000 0.64100  0.26033  0.97278  Biso   1.000  H
  C82      1.0000 0.62859  0.41934  0.01264  Biso   1.000  C
  C83      1.0000 0.94382  0.73214  0.79270  Biso   1.000  C
  C84      1.0000 0.89282  0.86756  0.72001  Biso   1.000  C
  H51      1.0000 0.97750  0.60546  0.84608  Biso   1.000  H
  O25      1.0000 0.96542  0.38952  0.86309  Biso   1.000  O
  O26      1.0000 0.90545  0.29470  0.79839  Biso   1.000  O
  H52      1.0000 0.54829  0.65636  0.95691  Biso   1.000  H
  C85      1.0000 0.59962  0.53896  0.00774  Biso   1.000  C
  O27      1.0000 0.55065  0.51193  0.82312  Biso   1.000  O
  O28      1.0000 0.48336  0.63351  0.87269  Biso   1.000  O
  C86      1.0000 0.66804  0.37299  0.06171  Biso   1.000  C
  S15      1.0000 0.99687  0.86059  0.81782  Biso   1.000  S
  O29      1.0000 0.92623  0.95867  0.73466  Biso   1.000  O
  O30      1.0000 0.84866  0.86514  0.67733  Biso   1.000  O
  C87      1.0000 0.92732  0.17591  0.82065  Biso   1.000  C
  S16      1.0000 0.59226  0.64540  0.06084  Biso   1.000  S
  C88      1.0000 0.44882  0.68320  0.82378  Biso   1.000  C
  O31      1.0000 0.68712  0.43763  0.09811  Biso   1.000  O
  O32      1.0000 0.68118  0.25207  0.05928  Biso   1.000  O
  S17      1.0000 0.05848  0.78490  0.87849  Biso   1.000  S
  C89      1.0000 0.84577  0.97985  0.64703  Biso   1.000  C
  H53      1.0000 0.90360  0.11034  0.80089  Biso   1.000  H
  H54      1.0000 0.97920  0.16671  0.81931  Biso   1.000  H
  H55      1.0000 0.91361  0.17191  0.85639  Biso   1.000  H
  C90      1.0000 0.68006  0.70670  0.06645  Biso   1.000  C
  H56      1.0000 0.44541  0.61874  0.79792  Biso   1.000  H
  H57      1.0000 0.40082  0.71292  0.83048  Biso   1.000  H
  H58      1.0000 0.47771  0.75044  0.81132  Biso   1.000  H
  C91      1.0000 0.72401  0.19811  0.10239  Biso   1.000  C
  C92      1.0000 0.00612  0.81007  0.93500  Biso   1.000  C
  H59      1.0000 0.80781  0.97399  0.62011  Biso   1.000  H
  H60      1.0000 0.89172  0.99257  0.63132  Biso   1.000  H
  H61      1.0000 0.83612  0.04830  0.66968  Biso   1.000  H
  N21      1.0000 0.73037  0.67270  0.03314  Biso   1.000  N
  N22      1.0000 0.68998  0.78741  0.10619  Biso   1.000  N
  H62      1.0000 0.73280  0.11201  0.09517  Biso   1.000  H
  H63      1.0000 0.76972  0.24111  0.10670  Biso   1.000  H
  H64      1.0000 0.69804  0.20526  0.13397  Biso   1.000  H
  C93      1.0000 0.94685  0.89180  0.93406  Biso   1.000  C
  C94      1.0000 0.02535  0.74979  0.98223  Biso   1.000  C
  N23      1.0000 0.79535  0.72676  0.03878  Biso   1.000  N
  N24      1.0000 0.75444  0.84267  0.11132  Biso   1.000  N
  C95      1.0000 0.90775  0.91576  0.97819  Biso   1.000  C
  H65      1.0000 0.93311  0.93127  0.90279  Biso   1.000  H
  C96      1.0000 0.98580  0.77347  0.02694  Biso   1.000  C
  C97      1.0000 0.08783  0.66212  0.98626  Biso   1.000  C
  C98      1.0000 0.80401  0.81146  0.07672  Biso   1.000  C
  C99      1.0000 0.92798  0.85530  0.02498  Biso   1.000  C
  C100     1.0000 0.84305  0.00121  0.97353  Biso   1.000  C
  H66      1.0000 0.99883  0.73354  0.05830  Biso   1.000  H
  O33      1.0000 0.13541  0.65784  0.95538  Biso   1.000  O
  O34      1.0000 0.08542  0.59051  0.02828  Biso   1.000  O
  S18      1.0000 0.88728  0.88892  0.08557  Biso   1.000  S
  O35      1.0000 0.78911  0.99211  0.99779  Biso   1.000  O
  O36      1.0000 0.85242  0.08990  0.93810  Biso   1.000  O
  C101     1.0000 0.14480  0.50274  0.03749  Biso   1.000  C
  C102     1.0000 0.79037  0.17349  0.92967  Biso   1.000  C
  H67      1.0000 0.14232  0.43968  0.01088  Biso   1.000  H
  H68      1.0000 0.19065  0.54556  0.03639  Biso   1.000  H
  H69      1.0000 0.14082  0.46485  0.07127  Biso   1.000  H
  H70      1.0000 0.80363  0.24018  0.90710  Biso   1.000  H
  H71      1.0000 0.75001  0.12854  0.91368  Biso   1.000  H
  H72      1.0000 0.77682  0.20656  0.96271  Biso   1.000  H
  N25      1.0000 0.30316  0.71013  0.25031  Biso   1.000  N
  C103     1.0000 0.25202  0.62812  0.23295  Biso   1.000  C
  N26      1.0000 0.35297  0.74218  0.21692  Biso   1.000  N
  S19      1.0000 0.19104  0.58781  0.28060  Biso   1.000  S
  N27      1.0000 0.24515  0.58187  0.18474  Biso   1.000  N
  C104     1.0000 0.34806  0.68979  0.16962  Biso   1.000  C
  C105     1.0000 0.13785  0.47125  0.24835  Biso   1.000  C
  N28      1.0000 0.29572  0.61493  0.15124  Biso   1.000  N
  S20      1.0000 0.41692  0.73642  0.12827  Biso   1.000  S
  C106     1.0000 0.14287  0.35386  0.27128  Biso   1.000  C
  C107     1.0000 0.08941  0.48677  0.20434  Biso   1.000  C
  C108     1.0000 0.40748  0.62004  0.07815  Biso   1.000  C
  H73      1.0000 0.17481  0.34234  0.30020  Biso   1.000  H
  C109     1.0000 0.10183  0.25402  0.25243  Biso   1.000  C
  C110     1.0000 0.05189  0.38451  0.18423  Biso   1.000  C
  C111     1.0000 0.07070  0.60620  0.17698  Biso   1.000  C
  C112     1.0000 0.43557  0.50060  0.08379  Biso   1.000  C
  C113     1.0000 0.37661  0.65896  0.03045  Biso   1.000  C
  C114     1.0000 0.05615  0.26786  0.20728  Biso   1.000  C
  C115     1.0000 0.10715  0.13244  0.27998  Biso   1.000  C
  H74      1.0000 0.02252  0.39454  0.15390  Biso   1.000  H
  O37      1.0000 0.03461  0.61048  0.13689  Biso   1.000  O
  O38      1.0000 0.09452  0.70530  0.20163  Biso   1.000  O
  C116     1.0000 0.43215  0.42314  0.04013  Biso   1.000  C
  C117     1.0000 0.46690  0.45352  0.13450  Biso   1.000  C
  H75      1.0000 0.35902  0.73967  0.02720  Biso   1.000  H
  C118     1.0000 0.37138  0.58066  0.98738  Biso   1.000  C
  S21      1.0000 0.00310  0.13941  0.18220  Biso   1.000  S
  O39      1.0000 0.07374  0.04133  0.26536  Biso   1.000  O
  O40      1.0000 0.15132  0.13486  0.32269  Biso   1.000  O
  C119     1.0000 0.07271  0.82409  0.17934  Biso   1.000  C
  H76      1.0000 0.45168  0.34364  0.04311  Biso   1.000  H
  C120     1.0000 0.40035  0.46104  0.99228  Biso   1.000  C
  O41      1.0000 0.44937  0.48807  0.17687  Biso   1.000  O
  O42      1.0000 0.51661  0.36649  0.12729  Biso   1.000  O
  C121     1.0000 0.33198  0.62701  0.93828  Biso   1.000  C
  S22      1.0000 0.94149  0.21510  0.12153  Biso   1.000  S
  C122     1.0000 0.15420  0.02015  0.35299  Biso   1.000  C
  H77      1.0000 0.09637  0.88966  0.19909  Biso   1.000  H
  H78      1.0000 0.02082  0.83329  0.18071  Biso   1.000  H
  H79      1.0000 0.08641  0.82809  0.14359  Biso   1.000  H
  S23      1.0000 0.40776  0.35460  0.93914  Biso   1.000  S
  C123     1.0000 0.55120  0.31680  0.17620  Biso   1.000  C
  O43      1.0000 0.31285  0.56237  0.90191  Biso   1.000  O
  O44      1.0000 0.31879  0.74793  0.94070  Biso   1.000  O
  C124     1.0000 0.99385  0.18993  0.06502  Biso   1.000  C
  H80      1.0000 0.19222  0.02601  0.37991  Biso   1.000  H
  H81      1.0000 0.10831  0.00743  0.36870  Biso   1.000  H
  H82      1.0000 0.16390  0.95170  0.33030  Biso   1.000  H
  C125     1.0000 0.31991  0.29330  0.93353  Biso   1.000  C
  H83      1.0000 0.55462  0.38126  0.20210  Biso   1.000  H
  H84      1.0000 0.59920  0.28708  0.16950  Biso   1.000  H
  H85      1.0000 0.52232  0.24956  0.18870  Biso   1.000  H
  C126     1.0000 0.27596  0.80189  0.89760  Biso   1.000  C
  C127     1.0000 0.05318  0.10820  0.06592  Biso   1.000  C
  C128     1.0000 0.97462  0.25021  0.01775  Biso   1.000  C
  N29      1.0000 0.26960  0.32730  0.96688  Biso   1.000  N
  N30      1.0000 0.31004  0.21259  0.89379  Biso   1.000  N
  H86      1.0000 0.26717  0.88799  0.90481  Biso   1.000  H
  H87      1.0000 0.23025  0.75889  0.89332  Biso   1.000  H
  H88      1.0000 0.30198  0.79474  0.86601  Biso   1.000  H
  C129     1.0000 0.09222  0.08424  0.02179  Biso   1.000  C
  H89      1.0000 0.06691  0.06873  0.09719  Biso   1.000  H
  C130     1.0000 0.91220  0.33788  0.01372  Biso   1.000  C
  C131     1.0000 0.01417  0.22653  0.97308  Biso   1.000  C
  N31      1.0000 0.20467  0.27324  0.96120  Biso   1.000  N
  N32      1.0000 0.24559  0.15733  0.88870  Biso   1.000  N
  C132     1.0000 0.15697  0.99879  0.02645  Biso   1.000  C
  C133     1.0000 0.07204  0.14470  0.97500  Biso   1.000  C
  O45      1.0000 0.91461  0.40949  0.97174  Biso   1.000  O
  O46      1.0000 0.86462  0.34216  0.04464  Biso   1.000  O
  H90      1.0000 0.00119  0.26646  0.94172  Biso   1.000  H
  C134     1.0000 0.19602  0.18854  0.92330  Biso   1.000  C
  O47      1.0000 0.21086  0.00789  0.00219  Biso   1.000  O
  O48      1.0000 0.14755  0.91010  0.06188  Biso   1.000  O
  S24      1.0000 0.11269  0.11108  0.91441  Biso   1.000  S
  C135     1.0000 0.85517  0.49726  0.96249  Biso   1.000  C
  C136     1.0000 0.20960  0.82651  0.07031  Biso   1.000  C
  H91      1.0000 0.85765  0.56032  0.98911  Biso   1.000  H
  H92      1.0000 0.80937  0.45444  0.96363  Biso   1.000  H
  H93      1.0000 0.85920  0.53515  0.92871  Biso   1.000  H
  H94      1.0000 0.19640  0.75982  0.09288  Biso   1.000  H
  H95      1.0000 0.25002  0.87146  0.08630  Biso   1.000  H
  H96      1.0000 0.22321  0.79344  0.03731  Biso   1.000  H
