data_image0
_cell_length_a       11.347
_cell_length_b       29.503
_cell_length_c       17.066
_cell_angle_alpha    90
_cell_angle_beta     95.23
_cell_angle_gamma    90

_symmetry_space_group_name_H-M    "P 1"
_symmetry_int_tables_number       1

loop_
  _symmetry_equiv_pos_as_xyz
  'x, y, z'

loop_
  _atom_site_label
  _atom_site_occupancy
  _atom_site_fract_x
  _atom_site_fract_y
  _atom_site_fract_z
  _atom_site_thermal_displace_type
  _atom_site_B_iso_or_equiv
  _atom_site_type_symbol
  C1       1.0000 0.52167  0.69261  0.39688  Biso   1.000  C
  C2       1.0000 0.50455  0.68759  0.31380  Biso   1.000  C
  N1       1.0000 0.63617  0.70142  0.42018  Biso   1.000  N
  H1       1.0000 0.46073  0.69010  0.43130  Biso   1.000  H
  C3       1.0000 0.38737  0.68000  0.26449  Biso   1.000  C
  C4       1.0000 0.61575  0.69159  0.28732  Biso   1.000  C
  C5       1.0000 0.69873  0.70000  0.35322  Biso   1.000  C
  B1       1.0000 0.69679  0.70650  0.50491  Biso   1.000  B
  C6       1.0000 0.39926  0.63831  0.20983  Biso   1.000  C
  C7       1.0000 0.36002  0.72138  0.21412  Biso   1.000  C
  C8       1.0000 0.28712  0.66861  0.31621  Biso   1.000  C
  H2       1.0000 0.63350  0.68918  0.23419  Biso   1.000  H
  C9       1.0000 0.81702  0.71240  0.36111  Biso   1.000  C
  F1       1.0000 0.73217  0.66325  0.53416  Biso   1.000  F
  F2       1.0000 0.61789  0.72494  0.55234  Biso   1.000  F
  N2       1.0000 0.81141  0.73498  0.49821  Biso   1.000  N
  H3       1.0000 0.40217  0.61051  0.24131  Biso   1.000  H
  H4       1.0000 0.47213  0.64099  0.18341  Biso   1.000  H
  H5       1.0000 0.33100  0.63709  0.17029  Biso   1.000  H
  N3       1.0000 0.33917  0.76406  0.24142  Biso   1.000  N
  C10      1.0000 0.36309  0.72430  0.13239  Biso   1.000  C
  H6       1.0000 0.21250  0.66529  0.28303  Biso   1.000  H
  H7       1.0000 0.27957  0.69301  0.35440  Biso   1.000  H
  H8       1.0000 0.30542  0.64010  0.34428  Biso   1.000  H
  C11      1.0000 0.87306  0.72938  0.43042  Biso   1.000  C
  C12      1.0000 0.88796  0.70759  0.29103  Biso   1.000  C
  C13      1.0000 0.88447  0.75809  0.55352  Biso   1.000  C
  C14      1.0000 0.33330  0.79399  0.17741  Biso   1.000  C
  B2       1.0000 0.29335  0.77931  0.31992  Biso   1.000  B
  C15      1.0000 0.34647  0.76870  0.11021  Biso   1.000  C
  H9       1.0000 0.37469  0.69969  0.09809  Biso   1.000  H
  C16      1.0000 0.98713  0.74911  0.44549  Biso   1.000  C
  C17      1.0000 0.90819  0.74311  0.24248  Biso   1.000  C
  C18      1.0000 0.93570  0.66610  0.27149  Biso   1.000  C
  C19      1.0000 0.99258  0.76721  0.52121  Biso   1.000  C
  C20      1.0000 0.85287  0.77219  0.63348  Biso   1.000  C
  C21      1.0000 0.32483  0.84069  0.18759  Biso   1.000  C
  F3       1.0000 0.35218  0.76101  0.38647  Biso   1.000  F
  F4       1.0000 0.17176  0.76806  0.31692  Biso   1.000  F
  N4       1.0000 0.30576  0.83154  0.32492  Biso   1.000  N
  H10      1.0000 0.34443  0.78009  0.05802  Biso   1.000  H
  H11      1.0000 0.04785  0.74979  0.41071  Biso   1.000  H
  F5       1.0000 0.86557  0.78429  0.25690  Biso   1.000  F
  C22      1.0000 0.97479  0.73942  0.17870  Biso   1.000  C
  F6       1.0000 0.91907  0.62994  0.31739  Biso   1.000  F
  C23      1.0000 0.00030  0.66061  0.20789  Biso   1.000  C
  H12      1.0000 0.05806  0.78301  0.54693  Biso   1.000  H
  C24      1.0000 0.73826  0.79931  0.62742  Biso   1.000  C
  C25      1.0000 0.84317  0.73060  0.68750  Biso   1.000  C
  C26      1.0000 0.95168  0.80341  0.67220  Biso   1.000  C
  C27      1.0000 0.31590  0.86018  0.26131  Biso   1.000  C
  C28      1.0000 0.32871  0.87191  0.11951  Biso   1.000  C
  C29      1.0000 0.30665  0.85710  0.38929  Biso   1.000  C
  F7       1.0000 0.99396  0.77501  0.13398  Biso   1.000  F
  C30      1.0000 0.01955  0.69651  0.16252  Biso   1.000  C
  F8       1.0000 0.04783  0.62028  0.19200  Biso   1.000  F
  C31      1.0000 0.64090  0.79650  0.66873  Biso   1.000  C
  C32      1.0000 0.71577  0.83530  0.57199  Biso   1.000  C
  H13      1.0000 0.78141  0.71020  0.66443  Biso   1.000  H
  H14      1.0000 0.82297  0.74070  0.73940  Biso   1.000  H
  H15      1.0000 0.91913  0.71450  0.69321  Biso   1.000  H
  H16      1.0000 0.95998  0.82998  0.63890  Biso   1.000  H
  H17      1.0000 0.93077  0.81310  0.72410  Biso   1.000  H
  H18      1.0000 0.02669  0.78670  0.67808  Biso   1.000  H
  C33      1.0000 0.32556  0.90509  0.29062  Biso   1.000  C
  C34      1.0000 0.42494  0.87500  0.07573  Biso   1.000  C
  C35      1.0000 0.23666  0.90259  0.10050  Biso   1.000  C
  C36      1.0000 0.31891  0.90309  0.37070  Biso   1.000  C
  H19      1.0000 0.29988  0.84581  0.44078  Biso   1.000  H
  F9       1.0000 0.08285  0.69210  0.09903  Biso   1.000  F
  C37      1.0000 0.55777  0.83019  0.63901  Biso   1.000  C
  H20      1.0000 0.63017  0.77568  0.71003  Biso   1.000  H
  N5       1.0000 0.60874  0.85354  0.57941  Biso   1.000  N
  H21      1.0000 0.76863  0.84490  0.53528  Biso   1.000  H
  H22      1.0000 0.33473  0.93170  0.26049  Biso   1.000  H
  F10      1.0000 0.51892  0.84690  0.09138  Biso   1.000  F
  C38      1.0000 0.43107  0.90679  0.01630  Biso   1.000  C
  F11      1.0000 0.13805  0.90093  0.13981  Biso   1.000  F
  C39      1.0000 0.24073  0.93462  0.04278  Biso   1.000  C
  C40      1.0000 0.32383  0.94262  0.42972  Biso   1.000  C
  C41      1.0000 0.44356  0.84151  0.65572  Biso   1.000  C
  B3       1.0000 0.55057  0.89259  0.52922  Biso   1.000  B
  F12      1.0000 0.52817  0.90909  0.97629  Biso   1.000  F
  C42      1.0000 0.33680  0.93590  0.99982  Biso   1.000  C
  F13      1.0000 0.15179  0.96499  0.02789  Biso   1.000  F
  C43      1.0000 0.32490  0.92031  0.51080  Biso   1.000  C
  C44      1.0000 0.20778  0.97071  0.41571  Biso   1.000  C
  C45      1.0000 0.42896  0.97380  0.42001  Biso   1.000  C
  C46      1.0000 0.37589  0.87340  0.61083  Biso   1.000  C
  C47      1.0000 0.38568  0.81561  0.71698  Biso   1.000  C
  N6       1.0000 0.41764  0.89530  0.54640  Biso   1.000  N
  F14      1.0000 0.56557  0.88523  0.45160  Biso   1.000  F
  F15      1.0000 0.60687  0.93377  0.55358  Biso   1.000  F
  F16      1.0000 0.34360  0.96800  0.94398  Biso   1.000  F
  C48      1.0000 0.22521  0.91540  0.55440  Biso   1.000  C
  H23      1.0000 0.13939  0.95031  0.41571  Biso   1.000  H
  H24      1.0000 0.20593  0.98620  0.36493  Biso   1.000  H
  H25      1.0000 0.20465  0.99309  0.45778  Biso   1.000  H
  H26      1.0000 0.50285  0.95672  0.43060  Biso   1.000  H
  H27      1.0000 0.42787  0.99908  0.45708  Biso   1.000  H
  H28      1.0000 0.42377  0.98549  0.36611  Biso   1.000  H
  C49      1.0000 0.25647  0.88591  0.61718  Biso   1.000  C
  C50      1.0000 0.31543  0.77819  0.69762  Biso   1.000  C
  C51      1.0000 0.38979  0.82971  0.79453  Biso   1.000  C
  H29      1.0000 0.15050  0.92950  0.54298  Biso   1.000  H
  H30      1.0000 0.20745  0.87622  0.65631  Biso   1.000  H
  F17      1.0000 0.30335  0.76369  0.62230  Biso   1.000  F
  C52      1.0000 0.25733  0.75419  0.75140  Biso   1.000  C
  F18      1.0000 0.45072  0.86774  0.81660  Biso   1.000  F
  C53      1.0000 0.33364  0.80660  0.84972  Biso   1.000  C
  F19      1.0000 0.18897  0.71854  0.73039  Biso   1.000  F
  C54      1.0000 0.26671  0.76890  0.82883  Biso   1.000  C
  F20      1.0000 0.33861  0.82242  0.92451  Biso   1.000  F
  F21      1.0000 0.20790  0.74711  0.88262  Biso   1.000  F
  C55      1.0000 0.66014  0.57109  0.32439  Biso   1.000  C
  C56      1.0000 0.63770  0.52571  0.28220  Biso   1.000  C
  H31      1.0000 0.69528  0.56571  0.37823  Biso   1.000  H
  H32      1.0000 0.58492  0.58730  0.32598  Biso   1.000  H
  H33      1.0000 0.71431  0.58940  0.29591  Biso   1.000  H
  C57      1.0000 0.55657  0.49720  0.33069  Biso   1.000  C
  C58      1.0000 0.75201  0.49931  0.27838  Biso   1.000  C
  C59      1.0000 0.57624  0.53320  0.20029  Biso   1.000  C
  H34      1.0000 0.54125  0.46782  0.30509  Biso   1.000  H
  H35      1.0000 0.48151  0.51320  0.33410  Biso   1.000  H
  H36      1.0000 0.59532  0.49249  0.38382  Biso   1.000  H
  C60      1.0000 0.86042  0.50351  0.32410  Biso   1.000  C
  C61      1.0000 0.76652  0.46260  0.22671  Biso   1.000  C
  N7       1.0000 0.62319  0.55520  0.13969  Biso   1.000  N
  C62      1.0000 0.45981  0.51829  0.17323  Biso   1.000  C
  C63      1.0000 0.93752  0.46988  0.29832  Biso   1.000  C
  H37      1.0000 0.87898  0.52479  0.36499  Biso   1.000  H
  N8       1.0000 0.87654  0.44629  0.23660  Biso   1.000  N
  H38      1.0000 0.70603  0.45121  0.18982  Biso   1.000  H
  C64      1.0000 0.53703  0.55401  0.07373  Biso   1.000  C
  B4       1.0000 0.73514  0.58469  0.13669  Biso   1.000  B
  C65      1.0000 0.43409  0.53171  0.09621  Biso   1.000  C
  H39      1.0000 0.40827  0.50192  0.20353  Biso   1.000  H
  C66      1.0000 0.05754  0.45972  0.31751  Biso   1.000  C
  B5       1.0000 0.92446  0.40548  0.19017  Biso   1.000  B
  C67      1.0000 0.56667  0.56632  0.99871  Biso   1.000  C
  F22      1.0000 0.83147  0.57042  0.18494  Biso   1.000  F
  F23      1.0000 0.70661  0.62994  0.15358  Biso   1.000  F
  N9       1.0000 0.76557  0.58411  0.04878  Biso   1.000  N
  H40      1.0000 0.36205  0.52690  0.06437  Biso   1.000  H
  C68      1.0000 0.11720  0.42901  0.27373  Biso   1.000  C
  C69      1.0000 0.12745  0.48290  0.38388  Biso   1.000  C
  F24      1.0000 0.87891  0.36545  0.21601  Biso   1.000  F
  F25      1.0000 0.88851  0.41206  0.11115  Biso   1.000  F
  N10      1.0000 0.06400  0.40657  0.20712  Biso   1.000  N
  C70      1.0000 0.68117  0.57848  0.98470  Biso   1.000  C
  C71      1.0000 0.47654  0.56581  0.92821  Biso   1.000  C
  C72      1.0000 0.86863  0.59411  0.02142  Biso   1.000  C
  C73      1.0000 0.24076  0.41931  0.28020  Biso   1.000  C
  C74      1.0000 0.12648  0.46751  0.46102  Biso   1.000  C
  C75      1.0000 0.20265  0.51951  0.37311  Biso   1.000  C
  C76      1.0000 0.15036  0.38349  0.17299  Biso   1.000  C
  C77      1.0000 0.73826  0.58499  0.91580  Biso   1.000  C
  C78      1.0000 0.46863  0.53069  0.87437  Biso   1.000  C
  C79      1.0000 0.40890  0.60370  0.90921  Biso   1.000  C
  H41      1.0000 0.94014  0.59991  0.05319  Biso   1.000  H
  C80      1.0000 0.85630  0.59469  0.93792  Biso   1.000  C
  C81      1.0000 0.26146  0.39159  0.21842  Biso   1.000  C
  H42      1.0000 0.29811  0.43009  0.31992  Biso   1.000  H
  F26      1.0000 0.06119  0.43114  0.47591  Biso   1.000  F
  C82      1.0000 0.19585  0.48659  0.52280  Biso   1.000  C
  F27      1.0000 0.21045  0.53564  0.30021  Biso   1.000  F
  C83      1.0000 0.27615  0.53771  0.43360  Biso   1.000  C
  C84      1.0000 0.13918  0.35990  0.09338  Biso   1.000  C
  H43      1.0000 0.70234  0.58309  0.86337  Biso   1.000  H
  F28      1.0000 0.53418  0.49344  0.88708  Biso   1.000  F
  C85      1.0000 0.39436  0.53330  0.80512  Biso   1.000  C
  F29      1.0000 0.41236  0.63882  0.95828  Biso   1.000  F
  C86      1.0000 0.33738  0.60699  0.84007  Biso   1.000  C
  C87      1.0000 0.95423  0.60540  0.88467  Biso   1.000  C
  H44      1.0000 0.33601  0.37969  0.20747  Biso   1.000  H
  F30      1.0000 0.19400  0.46955  0.59677  Biso   1.000  F
  C88      1.0000 0.27185  0.52191  0.50892  Biso   1.000  C
  F31      1.0000 0.35006  0.57170  0.42113  Biso   1.000  F
  C89      1.0000 0.13218  0.39599  0.03077  Biso   1.000  C
  C90      1.0000 0.25124  0.33129  0.08538  Biso   1.000  C
  C91      1.0000 0.03199  0.32671  0.08102  Biso   1.000  C
  F32      1.0000 0.39035  0.49853  0.75269  Biso   1.000  F
  C92      1.0000 0.32832  0.57120  0.78817  Biso   1.000  C
  F33      1.0000 0.27711  0.64563  0.82089  Biso   1.000  F
  C93      1.0000 0.99219  0.56279  0.84342  Biso   1.000  C
  C94      1.0000 0.90363  0.63899  0.82159  Biso   1.000  C
  C95      1.0000 0.05994  0.62790  0.93127  Biso   1.000  C
  F34      1.0000 0.33899  0.54015  0.56923  Biso   1.000  F
  C96      1.0000 0.14260  0.39199  0.95057  Biso   1.000  C
  C97      1.0000 0.11813  0.44341  0.04460  Biso   1.000  C
  H45      1.0000 0.24272  0.31471  0.03542  Biso   1.000  H
  H46      1.0000 0.26182  0.30970  0.12910  Biso   1.000  H
  H47      1.0000 0.32031  0.35129  0.08650  Biso   1.000  H
  H48      1.0000 0.95805  0.34390  0.08032  Biso   1.000  H
  H49      1.0000 0.03589  0.30471  0.12421  Biso   1.000  H
  H50      1.0000 0.03482  0.31071  0.03089  Biso   1.000  H
  F35      1.0000 0.25884  0.57381  0.71980  Biso   1.000  F
  C98      1.0000 0.98248  0.55550  0.76099  Biso   1.000  C
  N11      1.0000 0.04352  0.52486  0.87967  Biso   1.000  N
  H51      1.0000 0.96381  0.64570  0.78552  Biso   1.000  H
  H52      1.0000 0.88083  0.66702  0.84690  Biso   1.000  H
  H53      1.0000 0.83402  0.62560  0.79211  Biso   1.000  H
  H54      1.0000 0.03249  0.65380  0.96058  Biso   1.000  H
  H55      1.0000 0.11630  0.63831  0.89503  Biso   1.000  H
  H56      1.0000 0.09875  0.60590  0.96823  Biso   1.000  H
  C99      1.0000 0.13058  0.43568  0.91621  Biso   1.000  C
  H57      1.0000 0.15544  0.36461  0.92339  Biso   1.000  H
  N12      1.0000 0.11536  0.46605  0.97688  Biso   1.000  N
  H58      1.0000 0.11168  0.45680  0.09468  Biso   1.000  H
  H59      1.0000 0.94834  0.57591  0.72221  Biso   1.000  H
  C100     1.0000 0.03155  0.51330  0.74669  Biso   1.000  C
  C101     1.0000 0.06885  0.49449  0.82142  Biso   1.000  C
  B6       1.0000 0.10655  0.51771  0.96470  Biso   1.000  B
  C102     1.0000 0.11438  0.44999  0.83919  Biso   1.000  C
  H60      1.0000 0.03854  0.49981  0.69679  Biso   1.000  H
  F36      1.0000 0.22060  0.53659  0.96599  Biso   1.000  F
  F37      1.0000 0.04627  0.53574  0.02312  Biso   1.000  F
  C103     1.0000 0.14412  0.41941  0.77587  Biso   1.000  C
  C104     1.0000 0.26093  0.40379  0.77552  Biso   1.000  C
  C105     1.0000 0.06417  0.40331  0.71662  Biso   1.000  C
  F38      1.0000 0.34587  0.41782  0.83001  Biso   1.000  F
  C106     1.0000 0.29446  0.37389  0.71798  Biso   1.000  C
  F39      1.0000 0.94843  0.41548  0.71509  Biso   1.000  F
  C107     1.0000 0.09483  0.37410  0.65931  Biso   1.000  C
  F40      1.0000 0.40657  0.35905  0.71998  Biso   1.000  F
  C108     1.0000 0.21029  0.35912  0.66072  Biso   1.000  C
  F41      1.0000 0.01294  0.35905  0.60265  Biso   1.000  F
  F42      1.0000 0.24011  0.32915  0.60629  Biso   1.000  F
  C109     1.0000 0.57119  0.47382  0.58000  Biso   1.000  C
  C110     1.0000 0.67632  0.44260  0.57029  Biso   1.000  C
  H61      1.0000 0.49729  0.45670  0.56940  Biso   1.000  H
  H62      1.0000 0.57227  0.49910  0.54293  Biso   1.000  H
  H63      1.0000 0.57637  0.48551  0.63389  Biso   1.000  H
  C111     1.0000 0.67525  0.42030  0.48920  Biso   1.000  C
  C112     1.0000 0.68115  0.40311  0.62930  Biso   1.000  C
  C113     1.0000 0.79236  0.47070  0.58429  Biso   1.000  C
  N13      1.0000 0.58250  0.39528  0.45361  Biso   1.000  N
  C114     1.0000 0.77494  0.41542  0.44560  Biso   1.000  C
  C115     1.0000 0.67459  0.40511  0.70939  Biso   1.000  C
  C116     1.0000 0.69349  0.35712  0.61071  Biso   1.000  C
  H64      1.0000 0.86075  0.45029  0.58429  Biso   1.000  H
  H65      1.0000 0.79422  0.48619  0.63513  Biso   1.000  H
  H66      1.0000 0.79550  0.49310  0.54222  Biso   1.000  H
  B7       1.0000 0.44958  0.39260  0.47079  Biso   1.000  B
  C117     1.0000 0.62425  0.37339  0.38917  Biso   1.000  C
  C118     1.0000 0.74368  0.38589  0.38282  Biso   1.000  C
  H67      1.0000 0.84965  0.42952  0.45702  Biso   1.000  H
  C119     1.0000 0.68416  0.36020  0.73869  Biso   1.000  C
  H68      1.0000 0.66541  0.43168  0.73951  Biso   1.000  H
  N14      1.0000 0.69438  0.33153  0.67508  Biso   1.000  N
  H69      1.0000 0.70027  0.34580  0.55922  Biso   1.000  H
  N15      1.0000 0.39132  0.35352  0.42060  Biso   1.000  N
  F43      1.0000 0.43457  0.38525  0.54840  Biso   1.000  F
  F44      1.0000 0.39327  0.43375  0.44643  Biso   1.000  F
  C120     1.0000 0.55659  0.34149  0.34428  Biso   1.000  C
  H70      1.0000 0.79260  0.37620  0.34369  Biso   1.000  H
  C121     1.0000 0.67532  0.34071  0.81242  Biso   1.000  C
  B8       1.0000 0.70679  0.27929  0.68008  Biso   1.000  B
  C122     1.0000 0.28438  0.33529  0.42801  Biso   1.000  C
  C123     1.0000 0.44237  0.33020  0.36099  Biso   1.000  C
  C124     1.0000 0.61446  0.31560  0.28303  Biso   1.000  C
  C125     1.0000 0.66684  0.29400  0.82260  Biso   1.000  C
  C126     1.0000 0.67143  0.37189  0.88050  Biso   1.000  C
  N16      1.0000 0.66097  0.26407  0.75858  Biso   1.000  N
  F45      1.0000 0.64796  0.26099  0.61354  Biso   1.000  F
  F46      1.0000 0.82838  0.26807  0.68309  Biso   1.000  F
  C127     1.0000 0.26188  0.29929  0.37258  Biso   1.000  C
  H71      1.0000 0.23142  0.34491  0.46473  Biso   1.000  H
  C128     1.0000 0.35924  0.29651  0.33127  Biso   1.000  C
  C129     1.0000 0.68471  0.27821  0.30238  Biso   1.000  C
  C130     1.0000 0.61035  0.32970  0.20547  Biso   1.000  C
  C131     1.0000 0.65358  0.26868  0.88979  Biso   1.000  C
  C132     1.0000 0.57521  0.37501  0.92433  Biso   1.000  C
  C133     1.0000 0.76349  0.40260  0.89950  Biso   1.000  C
  C134     1.0000 0.64013  0.22137  0.78588  Biso   1.000  C
  C135     1.0000 0.14728  0.27221  0.36652  Biso   1.000  C
  H72      1.0000 0.36998  0.27570  0.29003  Biso   1.000  H
  F47      1.0000 0.69671  0.26370  0.37770  Biso   1.000  F
  C136     1.0000 0.74282  0.25421  0.24860  Biso   1.000  C
  F48      1.0000 0.54942  0.36773  0.18341  Biso   1.000  F
  C137     1.0000 0.66650  0.30661  0.15028  Biso   1.000  C
  C138     1.0000 0.63706  0.22432  0.86761  Biso   1.000  C
  H73      1.0000 0.65571  0.28011  0.94199  Biso   1.000  H
  F49      1.0000 0.48123  0.34688  0.90862  Biso   1.000  F
  C139     1.0000 0.56899  0.40681  0.98370  Biso   1.000  C
  F50      1.0000 0.86209  0.40091  0.86020  Biso   1.000  F
  C140     1.0000 0.75942  0.43460  0.95723  Biso   1.000  C
  C141     1.0000 0.61278  0.18002  0.73551  Biso   1.000  C
  C142     1.0000 0.15697  0.23059  0.31250  Biso   1.000  C
  C143     1.0000 0.11568  0.25811  0.44649  Biso   1.000  C
  C144     1.0000 0.04847  0.30339  0.32780  Biso   1.000  C
  F51      1.0000 0.81118  0.21852  0.26961  Biso   1.000  F
  C145     1.0000 0.73344  0.26889  0.17123  Biso   1.000  C
  F52      1.0000 0.66154  0.32241  0.07549  Biso   1.000  F
  H74      1.0000 0.62546  0.19971  0.90191  Biso   1.000  H
  F53      1.0000 0.47198  0.40911  0.02372  Biso   1.000  F
  C146     1.0000 0.66334  0.43589  0.00018  Biso   1.000  C
  F54      1.0000 0.84835  0.46497  0.97211  Biso   1.000  F
  C147     1.0000 0.49559  0.18761  0.68620  Biso   1.000  C
  C148     1.0000 0.60089  0.13829  0.79023  Biso   1.000  C
  C149     1.0000 0.71303  0.16859  0.68379  Biso   1.000  C
  H75      1.0000 0.21875  0.21022  0.33563  Biso   1.000  H
  H76      1.0000 0.17718  0.24069  0.26061  Biso   1.000  H
  H77      1.0000 0.08101  0.21449  0.30680  Biso   1.000  H
  N17      1.0000 0.18874  0.23499  0.50180  Biso   1.000  N
  C150     1.0000 0.00756  0.26719  0.47879  Biso   1.000  C
  H78      1.0000 0.04016  0.33000  0.36111  Biso   1.000  H
  H79      1.0000 0.06938  0.31309  0.27591  Biso   1.000  H
  H80      1.0000 0.97345  0.28672  0.32192  Biso   1.000  H
  F55      1.0000 0.79225  0.24709  0.11739  Biso   1.000  F
  F56      1.0000 0.65654  0.46799  0.05602  Biso   1.000  F
  C151     1.0000 0.47847  0.19259  0.60312  Biso   1.000  C
  C152     1.0000 0.38439  0.19161  0.71268  Biso   1.000  C
  H81      1.0000 0.59798  0.11050  0.75870  Biso   1.000  H
  H82      1.0000 0.52801  0.14100  0.81660  Biso   1.000  H
  H83      1.0000 0.66914  0.13710  0.82972  Biso   1.000  H
  H84      1.0000 0.78755  0.16531  0.71698  Biso   1.000  H
  H85      1.0000 0.72057  0.19300  0.64560  Biso   1.000  H
  H86      1.0000 0.69473  0.14009  0.65572  Biso   1.000  H
  C153     1.0000 0.12709  0.22940  0.56958  Biso   1.000  C
  B9       1.0000 0.30336  0.20649  0.49509  Biso   1.000  B
  C154     1.0000 0.01301  0.24909  0.55452  Biso   1.000  C
  H87      1.0000 0.94208  0.28299  0.45308  Biso   1.000  H
  N18      1.0000 0.36397  0.20144  0.57982  Biso   1.000  N
  H88      1.0000 0.53941  0.19012  0.56870  Biso   1.000  H
  C155     1.0000 0.30141  0.20001  0.64678  Biso   1.000  C
  H89      1.0000 0.36665  0.18920  0.76582  Biso   1.000  H
  C156     1.0000 0.18312  0.21239  0.63890  Biso   1.000  C
  F57      1.0000 0.26797  0.16324  0.46584  Biso   1.000  F
  F58      1.0000 0.38225  0.22493  0.44766  Biso   1.000  F
  H90      1.0000 0.95230  0.24981  0.58929  Biso   1.000  H
  C157     1.0000 0.11219  0.20761  0.70903  Biso   1.000  C
  C158     1.0000 0.09187  0.24309  0.75752  Biso   1.000  C
  C159     1.0000 0.06436  0.16608  0.72851  Biso   1.000  C
  F59      1.0000 0.13457  0.28431  0.74310  Biso   1.000  F
  C160     1.0000 0.02535  0.23940  0.82130  Biso   1.000  C
  F60      1.0000 0.08107  0.12995  0.68261  Biso   1.000  F
  C161     1.0000 0.99985  0.16059  0.79212  Biso   1.000  C
  F61      1.0000 0.00619  0.27499  0.86602  Biso   1.000  F
  C162     1.0000 0.98060  0.19649  0.83748  Biso   1.000  C
  F62      1.0000 0.95232  0.12026  0.80800  Biso   1.000  F
  F63      1.0000 0.91731  0.19212  0.90103  Biso   1.000  F
  B10      1.0000 0.07568  0.90550  0.80983  Biso   1.000  B
  F64      1.0000 0.12123  0.86547  0.78400  Biso   1.000  F
  F65      1.0000 0.11164  0.91208  0.88885  Biso   1.000  F
  N19      1.0000 0.12361  0.94631  0.76340  Biso   1.000  N
  N20      1.0000 0.93614  0.90659  0.79288  Biso   1.000  N
  C163     1.0000 0.06262  0.96990  0.70168  Biso   1.000  C
  C164     1.0000 0.23363  0.96261  0.77329  Biso   1.000  C
  C165     1.0000 0.84979  0.88350  0.82701  Biso   1.000  C
  C166     1.0000 0.88287  0.92899  0.72633  Biso   1.000  C
  C167     1.0000 0.94260  0.95970  0.68250  Biso   1.000  C
  C168     1.0000 0.13973  0.00349  0.67591  Biso   1.000  C
  C169     1.0000 0.24813  0.99929  0.72163  Biso   1.000  C
  H91      1.0000 0.29412  0.95119  0.81018  Biso   1.000  H
  C170     1.0000 0.73869  0.89160  0.78159  Biso   1.000  C
  C171     1.0000 0.86097  0.85991  0.90662  Biso   1.000  C
  C172     1.0000 0.75939  0.91930  0.71980  Biso   1.000  C
  C173     1.0000 0.87269  0.98288  0.61612  Biso   1.000  C
  H92      1.0000 0.12116  0.02481  0.63501  Biso   1.000  H
  C174     1.0000 0.36235  0.02569  0.71780  Biso   1.000  C
  H93      1.0000 0.66413  0.87971  0.79253  Biso   1.000  H
  C175     1.0000 0.86796  0.89601  0.96923  Biso   1.000  C
  C176     1.0000 0.74890  0.83131  0.91462  Biso   1.000  C
  C177     1.0000 0.96815  0.82670  0.91898  Biso   1.000  C
  H94      1.0000 0.70194  0.93011  0.68008  Biso   1.000  H
  C178     1.0000 0.87366  0.96749  0.53898  Biso   1.000  C
  C179     1.0000 0.79750  0.01949  0.62689  Biso   1.000  C
  C180     1.0000 0.44357  0.99719  0.66932  Biso   1.000  C
  C181     1.0000 0.42391  0.03318  0.79971  Biso   1.000  C
  C182     1.0000 0.34000  0.07111  0.67561  Biso   1.000  C
  C183     1.0000 0.88202  0.94340  0.95540  Biso   1.000  C
  C184     1.0000 0.85754  0.89201  0.04943  Biso   1.000  C
  H95      1.0000 0.75743  0.81470  0.96458  Biso   1.000  H
  H96      1.0000 0.73833  0.80971  0.87091  Biso   1.000  H
  H97      1.0000 0.67983  0.85130  0.91351  Biso   1.000  H
  H98      1.0000 0.04210  0.84391  0.91968  Biso   1.000  H
  H99      1.0000 0.96426  0.80470  0.87579  Biso   1.000  H
  H100     1.0000 0.96533  0.81070  0.96911  Biso   1.000  H
  F66      1.0000 0.93895  0.93116  0.52410  Biso   1.000  F
  C185     1.0000 0.80430  0.98661  0.47720  Biso   1.000  C
  F67      1.0000 0.78969  0.03562  0.69980  Biso   1.000  F
  C186     1.0000 0.72399  0.03769  0.56640  Biso   1.000  C
  H101     1.0000 0.45889  0.96780  0.69491  Biso   1.000  H
  H102     1.0000 0.40474  0.99251  0.61618  Biso   1.000  H
  H103     1.0000 0.51863  0.01319  0.66590  Biso   1.000  H
  N21      1.0000 0.37696  0.05521  0.86031  Biso   1.000  N
  C187     1.0000 0.54034  0.01830  0.82683  Biso   1.000  C
  H104     1.0000 0.30487  0.06569  0.62183  Biso   1.000  H
  H105     1.0000 0.41522  0.08731  0.67402  Biso   1.000  H
  H106     1.0000 0.28583  0.08941  0.70409  Biso   1.000  H
  H107     1.0000 0.88846  0.95678  0.90533  Biso   1.000  H
  N22      1.0000 0.88478  0.96607  0.02313  Biso   1.000  N
  C188     1.0000 0.86957  0.93570  0.08379  Biso   1.000  C
  H108     1.0000 0.84470  0.86459  0.07661  Biso   1.000  H
  F68      1.0000 0.80614  0.96956  0.40324  Biso   1.000  F
  C189     1.0000 0.72829  0.02190  0.49109  Biso   1.000  C
  F69      1.0000 0.65009  0.07172  0.57888  Biso   1.000  F
  C190     1.0000 0.46312  0.05399  0.92633  Biso   1.000  C
  B11      1.0000 0.26500  0.08470  0.86332  Biso   1.000  B
  C191     1.0000 0.56605  0.03169  0.90380  Biso   1.000  C
  H109     1.0000 0.59188  0.00190  0.79653  Biso   1.000  H
  B12      1.0000 0.89359  0.01769  0.03531  Biso   1.000  B
  C192     1.0000 0.88577  0.95001  0.16082  Biso   1.000  C
  F70      1.0000 0.66116  0.04013  0.43078  Biso   1.000  F
  C193     1.0000 0.43348  0.06630  0.00130  Biso   1.000  C
  F71      1.0000 0.16867  0.07043  0.81507  Biso   1.000  F
  F72      1.0000 0.29353  0.12992  0.84643  Biso   1.000  F
  N23      1.0000 0.23449  0.08409  0.95122  Biso   1.000  N
  H110     1.0000 0.63810  0.02691  0.93563  Biso   1.000  H
  F73      1.0000 0.95379  0.03573  0.97688  Biso   1.000  F
  F74      1.0000 0.77955  0.03657  0.03401  Biso   1.000  F
  N24      1.0000 0.95654  0.02488  0.12033  Biso   1.000  N
  C194     1.0000 0.93130  0.99451  0.17859  Biso   1.000  C
  C195     1.0000 0.85602  0.91940  0.22413  Biso   1.000  C
  C196     1.0000 0.31898  0.07850  0.01530  Biso   1.000  C
  C197     1.0000 0.52360  0.06579  0.07179  Biso   1.000  C
  C198     1.0000 0.13152  0.09409  0.97858  Biso   1.000  C
  C199     1.0000 0.00796  0.06281  0.15664  Biso   1.000  C
  C200     1.0000 0.96860  0.01329  0.25331  Biso   1.000  C
  C201     1.0000 0.73921  0.90381  0.22448  Biso   1.000  C
  C202     1.0000 0.93597  0.90330  0.28338  Biso   1.000  C
  C203     1.0000 0.26189  0.08501  0.08420  Biso   1.000  C
  C204     1.0000 0.53151  0.03071  0.12563  Biso   1.000  C
  C205     1.0000 0.59125  0.10368  0.09079  Biso   1.000  C
  H111     1.0000 0.06001  0.09989  0.94681  Biso   1.000  H
  C206     1.0000 0.14384  0.09470  0.06208  Biso   1.000  C
  C207     1.0000 0.04583  0.10541  0.11533  Biso   1.000  C
  C208     1.0000 0.01767  0.05549  0.23902  Biso   1.000  C
  H112     1.0000 0.96160  0.99980  0.30321  Biso   1.000  H
  F75      1.0000 0.65428  0.91780  0.16999  Biso   1.000  F
  C209     1.0000 0.70568  0.87391  0.28203  Biso   1.000  C
  C210     1.0000 0.90532  0.87411  0.34069  Biso   1.000  C
  F76      1.0000 0.05172  0.91550  0.28491  Biso   1.000  F
  H113     1.0000 0.29780  0.08311  0.13663  Biso   1.000  H
  F77      1.0000 0.46596  0.99342  0.11292  Biso   1.000  F
  C211     1.0000 0.60578  0.03328  0.19488  Biso   1.000  C
  F78      1.0000 0.58778  0.13880  0.04172  Biso   1.000  F
  C212     1.0000 0.66277  0.10701  0.15993  Biso   1.000  C
  C213     1.0000 0.94021  0.12789  0.06873  Biso   1.000  C
  C214     1.0000 0.09652  0.13900  0.17841  Biso   1.000  C
  H114     1.0000 0.05180  0.07589  0.27779  Biso   1.000  H
  F79      1.0000 0.59357  0.85907  0.28003  Biso   1.000  F
  C215     1.0000 0.78977  0.85910  0.33934  Biso   1.000  C
  F80      1.0000 0.98720  0.85903  0.39736  Biso   1.000  F
  F81      1.0000 0.60980  0.99854  0.24731  Biso   1.000  F
  C216     1.0000 0.67182  0.07121  0.21183  Biso   1.000  C
  F82      1.0000 0.72295  0.14561  0.17911  Biso   1.000  F
  H115     1.0000 0.96765  0.15381  0.03943  Biso   1.000  H
  H116     1.0000 0.88385  0.13829  0.10503  Biso   1.000  H
  H117     1.0000 0.90140  0.10589  0.03184  Biso   1.000  H
  H118     1.0000 0.03625  0.14571  0.21454  Biso   1.000  H
  H119     1.0000 0.11931  0.16700  0.15311  Biso   1.000  H
  H120     1.0000 0.16604  0.12561  0.20789  Biso   1.000  H
  F83      1.0000 0.76003  0.82914  0.39371  Biso   1.000  F
  F84      1.0000 0.74130  0.07379  0.28020  Biso   1.000  F
