data_image0
_cell_length_a       12.627
_cell_length_b       23.274
_cell_length_c       19.646
_cell_angle_alpha    90
_cell_angle_beta     95.12
_cell_angle_gamma    90

_symmetry_space_group_name_H-M    "P 1"
_symmetry_int_tables_number       1

loop_
  _symmetry_equiv_pos_as_xyz
  'x, y, z'

loop_
  _atom_site_label
  _atom_site_occupancy
  _atom_site_fract_x
  _atom_site_fract_y
  _atom_site_fract_z
  _atom_site_thermal_displace_type
  _atom_site_B_iso_or_equiv
  _atom_site_type_symbol
  O1       1.0000 0.66215  0.59130  0.40495  Biso   1.000  O
  C1       1.0000 0.65078  0.55874  0.34358  Biso   1.000  C
  C2       1.0000 0.76004  0.61579  0.42208  Biso   1.000  C
  H1       1.0000 0.66070  0.58331  0.30550  Biso   1.000  H
  H2       1.0000 0.70288  0.52862  0.34578  Biso   1.000  H
  H3       1.0000 0.58087  0.54219  0.33801  Biso   1.000  H
  C3       1.0000 0.77228  0.64424  0.48514  Biso   1.000  C
  C4       1.0000 0.84427  0.61369  0.38134  Biso   1.000  C
  C5       1.0000 0.86738  0.67221  0.50333  Biso   1.000  C
  C6       1.0000 0.68341  0.64634  0.53185  Biso   1.000  C
  C7       1.0000 0.93991  0.64084  0.40000  Biso   1.000  C
  H4       1.0000 0.83613  0.59349  0.34041  Biso   1.000  H
  C8       1.0000 0.95016  0.67156  0.46178  Biso   1.000  C
  H5       1.0000 0.87580  0.69189  0.54457  Biso   1.000  H
  H6       1.0000 0.63845  0.61279  0.52398  Biso   1.000  H
  H7       1.0000 0.71341  0.64548  0.57907  Biso   1.000  H
  C9       1.0000 0.61724  0.70027  0.51953  Biso   1.000  C
  C10      1.0000 0.03024  0.63870  0.35411  Biso   1.000  C
  O2       1.0000 0.04514  0.70018  0.47737  Biso   1.000  O
  C11      1.0000 0.64106  0.75045  0.55648  Biso   1.000  C
  C12      1.0000 0.53317  0.70065  0.46904  Biso   1.000  C
  C13      1.0000 0.02603  0.68897  0.30499  Biso   1.000  C
  H8       1.0000 0.02612  0.60308  0.32840  Biso   1.000  H
  H9       1.0000 0.09764  0.63921  0.38211  Biso   1.000  H
  C14      1.0000 0.05498  0.73241  0.53911  Biso   1.000  C
  O3       1.0000 0.72485  0.74731  0.60672  Biso   1.000  O
  C15      1.0000 0.58143  0.80008  0.54171  Biso   1.000  C
  C16      1.0000 0.47308  0.74972  0.45494  Biso   1.000  C
  H10      1.0000 0.51680  0.66731  0.44410  Biso   1.000  H
  C17      1.0000 0.96723  0.68617  0.24137  Biso   1.000  C
  C18      1.0000 0.07793  0.74035  0.32339  Biso   1.000  C
  H11      1.0000 0.99745  0.75939  0.53890  Biso   1.000  H
  H12      1.0000 0.12130  0.75269  0.54278  Biso   1.000  H
  H13      1.0000 0.05259  0.70680  0.57728  Biso   1.000  H
  C19      1.0000 0.73992  0.79496  0.65189  Biso   1.000  C
  H14      1.0000 0.59786  0.83351  0.56650  Biso   1.000  H
  C20      1.0000 0.49809  0.80042  0.49071  Biso   1.000  C
  O4       1.0000 0.38684  0.75195  0.40649  Biso   1.000  O
  O5       1.0000 0.91391  0.63517  0.22639  Biso   1.000  O
  C21      1.0000 0.96153  0.73326  0.19803  Biso   1.000  C
  C22      1.0000 0.07087  0.78770  0.28057  Biso   1.000  C
  H15      1.0000 0.11812  0.74289  0.36530  Biso   1.000  H
  H16      1.0000 0.75867  0.82818  0.62670  Biso   1.000  H
  H17      1.0000 0.67534  0.80231  0.67280  Biso   1.000  H
  H18      1.0000 0.79607  0.78650  0.68670  Biso   1.000  H
  C23      1.0000 0.43883  0.85589  0.47292  Biso   1.000  C
  C24      1.0000 0.36759  0.70310  0.36366  Biso   1.000  C
  C25      1.0000 0.87490  0.62598  0.15705  Biso   1.000  C
  H19      1.0000 0.92315  0.73039  0.15551  Biso   1.000  H
  C26      1.0000 0.01229  0.78495  0.21684  Biso   1.000  C
  O6       1.0000 0.11917  0.83974  0.29702  Biso   1.000  O
  H20      1.0000 0.44293  0.88068  0.51268  Biso   1.000  H
  H21      1.0000 0.36446  0.84738  0.46030  Biso   1.000  H
  C27      1.0000 0.48475  0.88678  0.41461  Biso   1.000  C
  H22      1.0000 0.30947  0.71101  0.33009  Biso   1.000  H
  H23      1.0000 0.43020  0.69459  0.34118  Biso   1.000  H
  H24      1.0000 0.35006  0.67079  0.39080  Biso   1.000  H
  H25      1.0000 0.93164  0.63100  0.12822  Biso   1.000  H
  H26      1.0000 0.84724  0.58761  0.15178  Biso   1.000  H
  H27      1.0000 0.81928  0.65309  0.14432  Biso   1.000  H
  C28      1.0000 0.99775  0.83694  0.17089  Biso   1.000  C
  C29      1.0000 0.16557  0.84605  0.36540  Biso   1.000  C
  C30      1.0000 0.56275  0.92906  0.42708  Biso   1.000  C
  C31      1.0000 0.45416  0.87213  0.34716  Biso   1.000  C
  C32      1.0000 0.90253  0.87205  0.18837  Biso   1.000  C
  H28      1.0000 0.98747  0.82461  0.12362  Biso   1.000  H
  H29      1.0000 0.06123  0.86049  0.17631  Biso   1.000  H
  H30      1.0000 0.19623  0.88369  0.37117  Biso   1.000  H
  H31      1.0000 0.11175  0.84120  0.39647  Biso   1.000  H
  H32      1.0000 0.21991  0.81761  0.37460  Biso   1.000  H
  O7       1.0000 0.59141  0.94157  0.49495  Biso   1.000  O
  C33      1.0000 0.60783  0.95531  0.37307  Biso   1.000  C
  C34      1.0000 0.49883  0.89834  0.29360  Biso   1.000  C
  H33      1.0000 0.40251  0.84399  0.33791  Biso   1.000  H
  C35      1.0000 0.91348  0.91377  0.23927  Biso   1.000  C
  C36      1.0000 0.80078  0.86109  0.15771  Biso   1.000  C
  C37      1.0000 0.65384  0.99218  0.50880  Biso   1.000  C
  H34      1.0000 0.65939  0.98350  0.38221  Biso   1.000  H
  C38      1.0000 0.57741  0.94019  0.30566  Biso   1.000  C
  O8       1.0000 0.47046  0.88528  0.22558  Biso   1.000  O
  C39      1.0000 0.82624  0.94359  0.25890  Biso   1.000  C
  H35      1.0000 0.98057  0.92180  0.26048  Biso   1.000  H
  O9       1.0000 0.78597  0.81735  0.10916  Biso   1.000  O
  C40      1.0000 0.71393  0.89190  0.17616  Biso   1.000  C
  H36      1.0000 0.66039  0.99957  0.55709  Biso   1.000  H
  H37      1.0000 0.72323  0.98668  0.49347  Biso   1.000  H
  H38      1.0000 0.61998  0.02419  0.48509  Biso   1.000  H
  C41      1.0000 0.62908  0.96743  0.24663  Biso   1.000  C
  C42      1.0000 0.39261  0.84158  0.21188  Biso   1.000  C
  O10      1.0000 0.83266  0.98470  0.30970  Biso   1.000  O
  C43      1.0000 0.72350  0.93357  0.22680  Biso   1.000  C
  C44      1.0000 0.78595  0.83849  0.04063  Biso   1.000  C
  H39      1.0000 0.64725  0.88438  0.15388  Biso   1.000  H
  H40      1.0000 0.57684  0.97031  0.20749  Biso   1.000  H
  H41      1.0000 0.65184  0.00610  0.25941  Biso   1.000  H
  H42      1.0000 0.37574  0.83819  0.16338  Biso   1.000  H
  H43      1.0000 0.41989  0.80558  0.22982  Biso   1.000  H
  H44      1.0000 0.32944  0.85138  0.23319  Biso   1.000  H
  C45      1.0000 0.93659  0.99948  0.33954  Biso   1.000  C
  H45      1.0000 0.78281  0.80669  0.00940  Biso   1.000  H
  H46      1.0000 0.72530  0.86289  0.03041  Biso   1.000  H
  H47      1.0000 0.84974  0.86010  0.03628  Biso   1.000  H
  H48      1.0000 0.97354  0.96528  0.35702  Biso   1.000  H
  H49      1.0000 0.97748  0.01689  0.30550  Biso   1.000  H
  C46      1.0000 0.92451  0.04129  0.39688  Biso   1.000  C
  H50      1.0000 0.88237  0.07390  0.37971  Biso   1.000  H
  H51      1.0000 0.88734  0.02277  0.43199  Biso   1.000  H
  C47      1.0000 0.03234  0.06247  0.42800  Biso   1.000  C
  H52      1.0000 0.06727  0.08288  0.39320  Biso   1.000  H
  H53      1.0000 0.07601  0.02947  0.44190  Biso   1.000  H
  C48      1.0000 0.02596  0.10179  0.48928  Biso   1.000  C
  H54      1.0000 0.99752  0.08009  0.52572  Biso   1.000  H
  H55      1.0000 0.97637  0.13259  0.47660  Biso   1.000  H
  C49      1.0000 0.13086  0.12787  0.51636  Biso   1.000  C
  H56      1.0000 0.18202  0.09710  0.52551  Biso   1.000  H
  H57      1.0000 0.15637  0.15197  0.48110  Biso   1.000  H
  C50      1.0000 0.12746  0.16349  0.58091  Biso   1.000  C
  H58      1.0000 0.10223  0.13947  0.61648  Biso   1.000  H
  H59      1.0000 0.07665  0.19451  0.57197  Biso   1.000  H
  C51      1.0000 0.23415  0.18892  0.60667  Biso   1.000  C
  H60      1.0000 0.25861  0.21397  0.57181  Biso   1.000  H
  H61      1.0000 0.28563  0.15820  0.61469  Biso   1.000  H
  C52      1.0000 0.22835  0.22287  0.67213  Biso   1.000  C
  H62      1.0000 0.17684  0.25359  0.66390  Biso   1.000  H
  H63      1.0000 0.20321  0.19777  0.70668  Biso   1.000  H
  C53      1.0000 0.33440  0.24869  0.69952  Biso   1.000  C
  H64      1.0000 0.35965  0.27460  0.66579  Biso   1.000  H
  H65      1.0000 0.38659  0.21840  0.70811  Biso   1.000  H
  C54      1.0000 0.32183  0.28096  0.76473  Biso   1.000  C
  Br1      1.0000 0.45568  0.31645  0.80245  Biso   1.000  Br
  H66      1.0000 0.26843  0.31069  0.75599  Biso   1.000  H
  H67      1.0000 0.29702  0.25470  0.79821  Biso   1.000  H
  O11      1.0000 0.33771  0.40870  0.59501  Biso   1.000  O
  C55      1.0000 0.23990  0.38421  0.57789  Biso   1.000  C
  C56      1.0000 0.34916  0.44126  0.65639  Biso   1.000  C
  C57      1.0000 0.22766  0.35576  0.51483  Biso   1.000  C
  C58      1.0000 0.15567  0.38631  0.61862  Biso   1.000  C
  H68      1.0000 0.33924  0.41669  0.69446  Biso   1.000  H
  H69      1.0000 0.29706  0.47138  0.65419  Biso   1.000  H
  H70      1.0000 0.41908  0.45781  0.66201  Biso   1.000  H
  C59      1.0000 0.31644  0.35366  0.46812  Biso   1.000  C
  C60      1.0000 0.13255  0.32779  0.49664  Biso   1.000  C
  C61      1.0000 0.05994  0.35916  0.59997  Biso   1.000  C
  H71      1.0000 0.16373  0.40651  0.65961  Biso   1.000  H
  C62      1.0000 0.38270  0.29973  0.48044  Biso   1.000  C
  H72      1.0000 0.36149  0.38721  0.47599  Biso   1.000  H
  H73      1.0000 0.28645  0.35452  0.42090  Biso   1.000  H
  C63      1.0000 0.04979  0.32844  0.53824  Biso   1.000  C
  H74      1.0000 0.12405  0.30811  0.45540  Biso   1.000  H
  C64      1.0000 0.96970  0.36130  0.64586  Biso   1.000  C
  C65      1.0000 0.35888  0.24955  0.44349  Biso   1.000  C
  C66      1.0000 0.46677  0.29935  0.53098  Biso   1.000  C
  O12      1.0000 0.95480  0.29978  0.52260  Biso   1.000  O
  C67      1.0000 0.97382  0.31099  0.69497  Biso   1.000  C
  H75      1.0000 0.97374  0.39688  0.67157  Biso   1.000  H
  H76      1.0000 0.90230  0.36079  0.61791  Biso   1.000  H
  O13      1.0000 0.27508  0.25269  0.39325  Biso   1.000  O
  C68      1.0000 0.41842  0.19992  0.45826  Biso   1.000  C
  C69      1.0000 0.52685  0.25028  0.54503  Biso   1.000  C
  H77      1.0000 0.48314  0.33269  0.55587  Biso   1.000  H
  C70      1.0000 0.94497  0.26759  0.46091  Biso   1.000  C
  C71      1.0000 0.03263  0.31378  0.75860  Biso   1.000  C
  C72      1.0000 0.92193  0.25960  0.67658  Biso   1.000  C
  C73      1.0000 0.25994  0.20504  0.34808  Biso   1.000  C
  H78      1.0000 0.40207  0.16649  0.43347  Biso   1.000  H
  C74      1.0000 0.50185  0.19958  0.50926  Biso   1.000  C
  O14      1.0000 0.61309  0.24805  0.59348  Biso   1.000  O
  H79      1.0000 0.00248  0.24061  0.46107  Biso   1.000  H
  H80      1.0000 0.87856  0.24731  0.45718  Biso   1.000  H
  H81      1.0000 0.94726  0.29320  0.42269  Biso   1.000  H
  O15      1.0000 0.08595  0.36483  0.77357  Biso   1.000  O
  C75      1.0000 0.03834  0.26674  0.80199  Biso   1.000  C
  C76      1.0000 0.92906  0.21230  0.71940  Biso   1.000  C
  H82      1.0000 0.88174  0.25711  0.63467  Biso   1.000  H
  H83      1.0000 0.24126  0.17178  0.37327  Biso   1.000  H
  H84      1.0000 0.32459  0.19769  0.32717  Biso   1.000  H
  H85      1.0000 0.20387  0.21350  0.31327  Biso   1.000  H
  C77      1.0000 0.56103  0.14411  0.52710  Biso   1.000  C
  C78      1.0000 0.63235  0.29690  0.63636  Biso   1.000  C
  C79      1.0000 0.12504  0.37402  0.84292  Biso   1.000  C
  H86      1.0000 0.07679  0.26961  0.84451  Biso   1.000  H
  C80      1.0000 0.98765  0.21505  0.78313  Biso   1.000  C
  O16      1.0000 0.88069  0.16026  0.70295  Biso   1.000  O
  H87      1.0000 0.55693  0.11932  0.48728  Biso   1.000  H
  H88      1.0000 0.63548  0.15262  0.53967  Biso   1.000  H
  C81      1.0000 0.51519  0.11322  0.58536  Biso   1.000  C
  H89      1.0000 0.69046  0.28899  0.66988  Biso   1.000  H
  H90      1.0000 0.56973  0.30541  0.65879  Biso   1.000  H
  H91      1.0000 0.64988  0.32921  0.60917  Biso   1.000  H
  H92      1.0000 0.06823  0.36900  0.87180  Biso   1.000  H
  H93      1.0000 0.15262  0.41239  0.84819  Biso   1.000  H
  H94      1.0000 0.18066  0.34691  0.85570  Biso   1.000  H
  C82      1.0000 0.00218  0.16306  0.82907  Biso   1.000  C
  C83      1.0000 0.83437  0.15395  0.63457  Biso   1.000  C
  C84      1.0000 0.43711  0.07089  0.57289  Biso   1.000  C
  C85      1.0000 0.54578  0.12787  0.65281  Biso   1.000  C
  C86      1.0000 0.09733  0.12795  0.81160  Biso   1.000  C
  H95      1.0000 0.01248  0.17539  0.87640  Biso   1.000  H
  H96      1.0000 0.93864  0.13951  0.82371  Biso   1.000  H
  H97      1.0000 0.80371  0.11631  0.62879  Biso   1.000  H
  H98      1.0000 0.88818  0.15880  0.60350  Biso   1.000  H
  H99      1.0000 0.77995  0.18239  0.62537  Biso   1.000  H
  O17      1.0000 0.40852  0.05843  0.50502  Biso   1.000  O
  C87      1.0000 0.39203  0.04469  0.62690  Biso   1.000  C
  C88      1.0000 0.50103  0.10166  0.70642  Biso   1.000  C
  H100     1.0000 0.59743  0.15601  0.66206  Biso   1.000  H
  C89      1.0000 0.08646  0.08619  0.76070  Biso   1.000  C
  C90      1.0000 0.19915  0.13891  0.84226  Biso   1.000  C
  C91      1.0000 0.34609  0.00782  0.49117  Biso   1.000  C
  H101     1.0000 0.34055  0.01650  0.61781  Biso   1.000  H
  C92      1.0000 0.42253  0.05981  0.69431  Biso   1.000  C
  O18      1.0000 0.52948  0.11472  0.77439  Biso   1.000  O
  C93      1.0000 0.17363  0.05641  0.74112  Biso   1.000  C
  H102     1.0000 0.01936  0.07820  0.73949  Biso   1.000  H
  C94      1.0000 0.28592  0.10810  0.82381  Biso   1.000  C
  O19      1.0000 0.21397  0.18265  0.89081  Biso   1.000  O
  H103     1.0000 0.33955  0.00039  0.44287  Biso   1.000  H
  H104     1.0000 0.27663  0.01332  0.50650  Biso   1.000  H
  H105     1.0000 0.37996  0.97581  0.51488  Biso   1.000  H
  C95      1.0000 0.37085  0.03257  0.75334  Biso   1.000  C
  C96      1.0000 0.60733  0.15842  0.78814  Biso   1.000  C
  C97      1.0000 0.27644  0.06643  0.77317  Biso   1.000  C
  O20      1.0000 0.16720  0.01530  0.69027  Biso   1.000  O
  H106     1.0000 0.35261  0.11558  0.84609  Biso   1.000  H
  C98      1.0000 0.21390  0.16147  0.95934  Biso   1.000  C
  H107     1.0000 0.42302  0.02969  0.79248  Biso   1.000  H
  H108     1.0000 0.34802  0.99390  0.74061  Biso   1.000  H
  H109     1.0000 0.62412  0.16181  0.83659  Biso   1.000  H
  H110     1.0000 0.58005  0.19438  0.77020  Biso   1.000  H
  H111     1.0000 0.67042  0.14858  0.76678  Biso   1.000  H
  C99      1.0000 0.06335  0.00047  0.66043  Biso   1.000  C
  H112     1.0000 0.21713  0.19331  0.99057  Biso   1.000  H
  H113     1.0000 0.27464  0.13711  0.96956  Biso   1.000  H
  H114     1.0000 0.15012  0.13990  0.96368  Biso   1.000  H
  H115     1.0000 0.02640  0.03472  0.64300  Biso   1.000  H
  H116     1.0000 0.02246  0.98311  0.69446  Biso   1.000  H
  C100     1.0000 0.07534  0.95871  0.60309  Biso   1.000  C
  C101     1.0000 0.96760  0.93753  0.57202  Biso   1.000  C
  H117     1.0000 0.11757  0.92610  0.62031  Biso   1.000  H
  H118     1.0000 0.11260  0.97718  0.56798  Biso   1.000  H
  H119     1.0000 0.93267  0.91712  0.60677  Biso   1.000  H
  H120     1.0000 0.92385  0.97048  0.55807  Biso   1.000  H
  C102     1.0000 0.97397  0.89817  0.51069  Biso   1.000  C
  C103     1.0000 0.86908  0.87213  0.48361  Biso   1.000  C
  H121     1.0000 0.00234  0.91991  0.47430  Biso   1.000  H
  H122     1.0000 0.02357  0.86741  0.52336  Biso   1.000  H
  H123     1.0000 0.81785  0.90290  0.47451  Biso   1.000  H
  H124     1.0000 0.84357  0.84798  0.51887  Biso   1.000  H
  C104     1.0000 0.87247  0.83651  0.41906  Biso   1.000  C
  H125     1.0000 0.89771  0.86049  0.38349  Biso   1.000  H
  H126     1.0000 0.92329  0.80549  0.42800  Biso   1.000  H
  C105     1.0000 0.76578  0.81103  0.39330  Biso   1.000  C
  H127     1.0000 0.74125  0.78598  0.42821  Biso   1.000  H
  H128     1.0000 0.71430  0.84180  0.38528  Biso   1.000  H
  C106     1.0000 0.77158  0.77713  0.32784  Biso   1.000  C
  H129     1.0000 0.82310  0.74641  0.33612  Biso   1.000  H
  H130     1.0000 0.79672  0.80218  0.29329  Biso   1.000  H
  C107     1.0000 0.66546  0.75131  0.30045  Biso   1.000  C
  H131     1.0000 0.64029  0.72540  0.33417  Biso   1.000  H
  H132     1.0000 0.61327  0.78160  0.29191  Biso   1.000  H
  C108     1.0000 0.67810  0.71904  0.23524  Biso   1.000  C
  Br2      1.0000 0.54425  0.68355  0.19752  Biso   1.000  Br
  H133     1.0000 0.73151  0.68931  0.24397  Biso   1.000  H
  H134     1.0000 0.70292  0.74530  0.20181  Biso   1.000  H
  C109     1.0000 0.71397  0.33849  0.45933  Biso   1.000  C
  O21      1.0000 0.71396  0.31735  0.39080  Biso   1.000  O
  H135     1.0000 0.71713  0.30669  0.49061  Biso   1.000  H
  H136     1.0000 0.77464  0.36289  0.46960  Biso   1.000  H
  H137     1.0000 0.65019  0.36010  0.46367  Biso   1.000  H
  C110     1.0000 0.69914  0.36109  0.34225  Biso   1.000  C
  C111     1.0000 0.59740  0.37205  0.31164  Biso   1.000  C
  C112     1.0000 0.78599  0.39190  0.32380  Biso   1.000  C
  C113     1.0000 0.50217  0.33694  0.32906  Biso   1.000  C
  C114     1.0000 0.58645  0.41377  0.26074  Biso   1.000  C
  C115     1.0000 0.77642  0.43357  0.27316  Biso   1.000  C
  H138     1.0000 0.85268  0.38438  0.34608  Biso   1.000  H
  C116     1.0000 0.48764  0.28495  0.28317  Biso   1.000  C
  H139     1.0000 0.43870  0.36049  0.32370  Biso   1.000  H
  H140     1.0000 0.51247  0.32461  0.37639  Biso   1.000  H
  C117     1.0000 0.67369  0.44359  0.24111  Biso   1.000  C
  H141     1.0000 0.51935  0.42180  0.23948  Biso   1.000  H
  C118     1.0000 0.87084  0.46743  0.25333  Biso   1.000  C
  C119     1.0000 0.42905  0.28770  0.21939  Biso   1.000  C
  C120     1.0000 0.53833  0.23326  0.30198  Biso   1.000  C
  O22      1.0000 0.66727  0.48470  0.19026  Biso   1.000  O
  H142     1.0000 0.84809  0.50610  0.24060  Biso   1.000  H
  H143     1.0000 0.92308  0.47031  0.29247  Biso   1.000  H
  C121     1.0000 0.92253  0.44019  0.19435  Biso   1.000  C
  O23      1.0000 0.38068  0.33974  0.20294  Biso   1.000  O
  C122     1.0000 0.42200  0.24040  0.17662  Biso   1.000  C
  C123     1.0000 0.53270  0.18622  0.25859  Biso   1.000  C
  H144     1.0000 0.57678  0.23039  0.34450  Biso   1.000  H
  C124     1.0000 0.56334  0.49948  0.16042  Biso   1.000  C
  C125     1.0000 0.89209  0.45531  0.12689  Biso   1.000  C
  C126     1.0000 0.00102  0.39834  0.20641  Biso   1.000  C
  C127     1.0000 0.33436  0.34605  0.13461  Biso   1.000  C
  H145     1.0000 0.38182  0.24289  0.13471  Biso   1.000  H
  C128     1.0000 0.47390  0.18901  0.19502  Biso   1.000  C
  O24      1.0000 0.58602  0.13517  0.27356  Biso   1.000  O
  H146     1.0000 0.52639  0.46528  0.14299  Biso   1.000  H
  H147     1.0000 0.52245  0.51689  0.19451  Biso   1.000  H
  C129     1.0000 0.57541  0.54129  0.10308  Biso   1.000  C
  C130     1.0000 0.93718  0.42911  0.07288  Biso   1.000  C
  H148     1.0000 0.84054  0.48350  0.11780  Biso   1.000  H
  O25      1.0000 0.02947  0.38528  0.27443  Biso   1.000  O
  C131     1.0000 0.04577  0.37213  0.15285  Biso   1.000  C
  H149     1.0000 0.30370  0.38369  0.12878  Biso   1.000  H
  H150     1.0000 0.38817  0.34120  0.10349  Biso   1.000  H
  H151     1.0000 0.28003  0.31761  0.12541  Biso   1.000  H
  C132     1.0000 0.46969  0.13870  0.14585  Biso   1.000  C
  C133     1.0000 0.62503  0.12598  0.34291  Biso   1.000  C
  H152     1.0000 0.61756  0.57390  0.12030  Biso   1.000  H
  H153     1.0000 0.61260  0.52282  0.06802  Biso   1.000  H
  C134     1.0000 0.46759  0.56247  0.07201  Biso   1.000  C
  O26      1.0000 0.90852  0.44157  0.00506  Biso   1.000  O
  C135     1.0000 0.01518  0.38678  0.08540  Biso   1.000  C
  C136     1.0000 0.10732  0.34158  0.28813  Biso   1.000  C
  H154     1.0000 0.09743  0.34399  0.16210  Biso   1.000  H
  H155     1.0000 0.47382  0.10312  0.17161  Biso   1.000  H
  H156     1.0000 0.40229  0.13921  0.11790  Biso   1.000  H
  C137     1.0000 0.56002  0.14084  0.10001  Biso   1.000  C
  H157     1.0000 0.56829  0.13100  0.37179  Biso   1.000  H
  H158     1.0000 0.65268  0.08761  0.34818  Biso   1.000  H
  H159     1.0000 0.68065  0.15309  0.35569  Biso   1.000  H
  H160     1.0000 0.43267  0.58288  0.10681  Biso   1.000  H
  H161     1.0000 0.42392  0.52947  0.05811  Biso   1.000  H
  C138     1.0000 0.47396  0.60179  0.01068  Biso   1.000  C
  C139     1.0000 0.84600  0.49218  0.99116  Biso   1.000  C
  C140     1.0000 0.06110  0.35589  0.02709  Biso   1.000  C
  H162     1.0000 0.12411  0.33819  0.33658  Biso   1.000  H
  H163     1.0000 0.08004  0.30558  0.27019  Biso   1.000  H
  H164     1.0000 0.17041  0.35138  0.26682  Biso   1.000  H
  C141     1.0000 0.54978  0.17156  0.03823  Biso   1.000  C
  C142     1.0000 0.65566  0.11369  0.11867  Biso   1.000  C
  H165     1.0000 0.52356  0.63259  0.02341  Biso   1.000  H
  H166     1.0000 0.50232  0.58009  0.97424  Biso   1.000  H
  C143     1.0000 0.36898  0.62787  0.98354  Biso   1.000  C
  H167     1.0000 0.87995  0.52419  0.01492  Biso   1.000  H
  H168     1.0000 0.77670  0.48668  0.00649  Biso   1.000  H
  H169     1.0000 0.83946  0.49961  0.94286  Biso   1.000  H
  C144     1.0000 0.00185  0.30042  0.00930  Biso   1.000  C
  H170     1.0000 0.05691  0.38068  0.98722  Biso   1.000  H
  H171     1.0000 0.13547  0.34738  0.03971  Biso   1.000  H
  O27      1.0000 0.45479  0.20018  0.02264  Biso   1.000  O
  C145     1.0000 0.63246  0.17221  0.99663  Biso   1.000  C
  C146     1.0000 0.73989  0.11579  0.07793  Biso   1.000  C
  H172     1.0000 0.66380  0.09349  0.15960  Biso   1.000  H
  H173     1.0000 0.34356  0.65202  0.01891  Biso   1.000  H
  H174     1.0000 0.31783  0.59710  0.97445  Biso   1.000  H
  C147     1.0000 0.37238  0.66349  0.91900  Biso   1.000  C
  C148     1.0000 0.02685  0.24972  0.04507  Biso   1.000  C
  C149     1.0000 0.91841  0.30008  0.95820  Biso   1.000  C
  C150     1.0000 0.44487  0.23241  0.96085  Biso   1.000  C
  C151     1.0000 0.72765  0.14424  0.01487  Biso   1.000  C
  H175     1.0000 0.62396  0.19189  0.95533  Biso   1.000  H
  O28      1.0000 0.83770  0.09130  0.09506  Biso   1.000  O
  H176     1.0000 0.39761  0.63951  0.88343  Biso   1.000  H
  H177     1.0000 0.42319  0.69451  0.92794  Biso   1.000  H
  C152     1.0000 0.26569  0.68892  0.89329  Biso   1.000  C
  C153     1.0000 0.96676  0.20065  0.03097  Biso   1.000  C
  O29      1.0000 0.11309  0.25195  0.09352  Biso   1.000  O
  C154     1.0000 0.85879  0.25045  0.94348  Biso   1.000  C
  H178     1.0000 0.90198  0.33351  0.93346  Biso   1.000  H
  H179     1.0000 0.37847  0.25269  0.95717  Biso   1.000  H
  H180     1.0000 0.50239  0.25939  0.96106  Biso   1.000  H
  H181     1.0000 0.44716  0.20680  0.92263  Biso   1.000  H
  C155     1.0000 0.81643  0.14634  0.96806  Biso   1.000  C
  C156     1.0000 0.84915  0.05874  0.15643  Biso   1.000  C
  H182     1.0000 0.24123  0.71397  0.92815  Biso   1.000  H
  H183     1.0000 0.21421  0.65820  0.88527  Biso   1.000  H
  C157     1.0000 0.27149  0.72287  0.82778  Biso   1.000  C
  C158     1.0000 0.88260  0.20027  0.98038  Biso   1.000  C
  H184     1.0000 0.98313  0.16731  0.05591  Biso   1.000  H
  C159     1.0000 0.13234  0.20310  0.13635  Biso   1.000  C
  O30      1.0000 0.77499  0.24731  0.89319  Biso   1.000  O
  H185     1.0000 0.86139  0.11279  0.97593  Biso   1.000  H
  H186     1.0000 0.78643  0.14548  0.92084  Biso   1.000  H
  H187     1.0000 0.83923  0.08331  0.19451  Biso   1.000  H
  H188     1.0000 0.79705  0.02862  0.15418  Biso   1.000  H
  H189     1.0000 0.91906  0.04219  0.16200  Biso   1.000  H
  H190     1.0000 0.32300  0.75359  0.83606  Biso   1.000  H
  H191     1.0000 0.29662  0.69777  0.79323  Biso   1.000  H
  C160     1.0000 0.16545  0.74869  0.80044  Biso   1.000  C
  H192     1.0000 0.19045  0.21101  0.16987  Biso   1.000  H
  H193     1.0000 0.06972  0.19459  0.15878  Biso   1.000  H
  H194     1.0000 0.14988  0.17079  0.10921  Biso   1.000  H
  C161     1.0000 0.75993  0.29496  0.84807  Biso   1.000  C
  H195     1.0000 0.14020  0.77460  0.83416  Biso   1.000  H
  H196     1.0000 0.11325  0.71840  0.79185  Biso   1.000  H
  C162     1.0000 0.17801  0.78096  0.73517  Biso   1.000  C
  H197     1.0000 0.74117  0.32818  0.87326  Biso   1.000  H
  H198     1.0000 0.82450  0.30231  0.82716  Biso   1.000  H
  H199     1.0000 0.70378  0.28650  0.81326  Biso   1.000  H
  Br3      1.0000 0.04416  0.81645  0.69751  Biso   1.000  Br
  H200     1.0000 0.23142  0.81069  0.74396  Biso   1.000  H
  H201     1.0000 0.20283  0.75470  0.70175  Biso   1.000  H
  C163     1.0000 0.28596  0.66147  0.54064  Biso   1.000  C
  O31      1.0000 0.28598  0.68265  0.60917  Biso   1.000  O
  H202     1.0000 0.28274  0.69331  0.50941  Biso   1.000  H
  H203     1.0000 0.22530  0.63711  0.53037  Biso   1.000  H
  H204     1.0000 0.34975  0.63990  0.53629  Biso   1.000  H
  C164     1.0000 0.30072  0.63891  0.65772  Biso   1.000  C
  C165     1.0000 0.40254  0.62795  0.68838  Biso   1.000  C
  C166     1.0000 0.21395  0.60810  0.67617  Biso   1.000  C
  C167     1.0000 0.41341  0.58619  0.73928  Biso   1.000  C
  C168     1.0000 0.49776  0.66306  0.67090  Biso   1.000  C
  H205     1.0000 0.14726  0.61558  0.65389  Biso   1.000  H
  C169     1.0000 0.22343  0.56643  0.72681  Biso   1.000  C
  C170     1.0000 0.32624  0.55641  0.75886  Biso   1.000  C
  H206     1.0000 0.48050  0.57820  0.76049  Biso   1.000  H
  H207     1.0000 0.56123  0.63951  0.67627  Biso   1.000  H
  H208     1.0000 0.48747  0.67539  0.62358  Biso   1.000  H
  C171     1.0000 0.51221  0.71500  0.71680  Biso   1.000  C
  C172     1.0000 0.12909  0.53257  0.74664  Biso   1.000  C
  O32      1.0000 0.33267  0.51530  0.80971  Biso   1.000  O
  C173     1.0000 0.57080  0.71225  0.78058  Biso   1.000  C
  C174     1.0000 0.46153  0.76674  0.69799  Biso   1.000  C
  H209     1.0000 0.15185  0.49390  0.75937  Biso   1.000  H
  H210     1.0000 0.07685  0.52969  0.70750  Biso   1.000  H
  C175     1.0000 0.07742  0.55977  0.80567  Biso   1.000  C
  C176     1.0000 0.43652  0.50047  0.83955  Biso   1.000  C
  O33      1.0000 0.61918  0.66026  0.79703  Biso   1.000  O
  C177     1.0000 0.57794  0.75960  0.82340  Biso   1.000  C
  C178     1.0000 0.46724  0.81378  0.74138  Biso   1.000  C
  H211     1.0000 0.42316  0.76961  0.65547  Biso   1.000  H
  C179     1.0000 0.10784  0.54469  0.87308  Biso   1.000  C
  C180     1.0000 0.99884  0.60166  0.79356  Biso   1.000  C
  H212     1.0000 0.47355  0.53472  0.85698  Biso   1.000  H
  H213     1.0000 0.47740  0.48311  0.80546  Biso   1.000  H
  C181     1.0000 0.42452  0.45867  0.89689  Biso   1.000  C
  C182     1.0000 0.66550  0.65395  0.86541  Biso   1.000  C
  H214     1.0000 0.61813  0.75711  0.86531  Biso   1.000  H
  C183     1.0000 0.52605  0.81099  0.80500  Biso   1.000  C
  O34      1.0000 0.41392  0.86483  0.72640  Biso   1.000  O
  C184     1.0000 0.06276  0.57089  0.92709  Biso   1.000  C
  H215     1.0000 0.15931  0.51650  0.88217  Biso   1.000  H
  O35      1.0000 0.97046  0.61468  0.72554  Biso   1.000  O
  C185     1.0000 0.95417  0.62787  0.84717  Biso   1.000  C
  H216     1.0000 0.38238  0.42610  0.87967  Biso   1.000  H
  H217     1.0000 0.38735  0.47718  0.93200  Biso   1.000  H
  C186     1.0000 0.53235  0.43753  0.92796  Biso   1.000  C
  H218     1.0000 0.69624  0.61631  0.87118  Biso   1.000  H
  H219     1.0000 0.61176  0.65880  0.89648  Biso   1.000  H
  H220     1.0000 0.71992  0.68239  0.87461  Biso   1.000  H
  C187     1.0000 0.53025  0.86130  0.85412  Biso   1.000  C
  C188     1.0000 0.37483  0.87402  0.65706  Biso   1.000  C
  O36      1.0000 0.09142  0.55843  0.99491  Biso   1.000  O
  C189     1.0000 0.98476  0.61322  0.91462  Biso   1.000  C
  C190     1.0000 0.89253  0.65842  0.71184  Biso   1.000  C
  H221     1.0000 0.90243  0.65601  0.83786  Biso   1.000  H
  H222     1.0000 0.56719  0.41712  0.89316  Biso   1.000  H
  H223     1.0000 0.57601  0.47048  0.94186  Biso   1.000  H
  C191     1.0000 0.52589  0.39817  0.98929  Biso   1.000  C
  H224     1.0000 0.52613  0.89688  0.82841  Biso   1.000  H
  H225     1.0000 0.59765  0.86079  0.88207  Biso   1.000  H
  C192     1.0000 0.43993  0.85916  0.90001  Biso   1.000  C
  H226     1.0000 0.43164  0.86900  0.62818  Biso   1.000  H
  H227     1.0000 0.34725  0.91239  0.65179  Biso   1.000  H
  H228     1.0000 0.31928  0.84691  0.64428  Biso   1.000  H
  C193     1.0000 0.15393  0.50782  0.00881  Biso   1.000  C
  C194     1.0000 0.93884  0.64411  0.97288  Biso   1.000  C
  H229     1.0000 0.87575  0.66181  0.66339  Biso   1.000  H
  H230     1.0000 0.91989  0.69438  0.72978  Biso   1.000  H
  H231     1.0000 0.82945  0.64858  0.73320  Biso   1.000  H
  H232     1.0000 0.47629  0.36741  0.97656  Biso   1.000  H
  H233     1.0000 0.49761  0.41991  0.02573  Biso   1.000  H
  C195     1.0000 0.63087  0.37213  0.01642  Biso   1.000  C
  C196     1.0000 0.45016  0.82844  0.96174  Biso   1.000  C
  C197     1.0000 0.34427  0.88631  0.88130  Biso   1.000  C
  H234     1.0000 0.11991  0.47581  0.98510  Biso   1.000  H
  H235     1.0000 0.22324  0.51328  0.99348  Biso   1.000  H
  H236     1.0000 0.16041  0.50039  0.05716  Biso   1.000  H
  C198     1.0000 0.99802  0.69958  0.99072  Biso   1.000  C
  H237     1.0000 0.86446  0.65257  0.96026  Biso   1.000  H
  H238     1.0000 0.94303  0.61927  0.01274  Biso   1.000  H
  H239     1.0000 0.65630  0.34798  0.98106  Biso   1.000  H
  H240     1.0000 0.68211  0.40290  0.02552  Biso   1.000  H
  C199     1.0000 0.62748  0.33647  0.08097  Biso   1.000  C
  O37      1.0000 0.54514  0.79978  0.97733  Biso   1.000  O
  C200     1.0000 0.36740  0.82779  0.00339  Biso   1.000  C
  C201     1.0000 0.26005  0.88421  0.92208  Biso   1.000  C
  H241     1.0000 0.33613  0.90651  0.84037  Biso   1.000  H
  C202     1.0000 0.97301  0.75024  0.95495  Biso   1.000  C
  C203     1.0000 0.08153  0.69992  0.04177  Biso   1.000  C
  H242     1.0000 0.60233  0.36049  0.11654  Biso   1.000  H
  H243     1.0000 0.57674  0.30549  0.07203  Biso   1.000  H
  C204     1.0000 0.73417  0.31103  0.10673  Biso   1.000  C
  C205     1.0000 0.55499  0.76759  0.03912  Biso   1.000  C
  C206     1.0000 0.27220  0.85576  0.98510  Biso   1.000  C
  H244     1.0000 0.37590  0.80811  0.04463  Biso   1.000  H
  O38      1.0000 0.16216  0.90870  0.90496  Biso   1.000  O
  C207     1.0000 0.03317  0.79935  0.96900  Biso   1.000  C
  O39      1.0000 0.88685  0.74805  0.90650  Biso   1.000  O
  C208     1.0000 0.14115  0.74955  0.05649  Biso   1.000  C
  H245     1.0000 0.09795  0.66649  0.06651  Biso   1.000  H
  H246     1.0000 0.75871  0.28598  0.07182  Biso   1.000  H
  H247     1.0000 0.78573  0.34180  0.11475  Biso   1.000  H
  C209     1.0000 0.72837  0.27713  0.17219  Biso   1.000  C
  H248     1.0000 0.62140  0.74731  0.04285  Biso   1.000  H
  H249     1.0000 0.49754  0.74061  0.03891  Biso   1.000  H
  H250     1.0000 0.55269  0.79320  0.07734  Biso   1.000  H
  C210     1.0000 0.18351  0.85366  0.03191  Biso   1.000  C
  C211     1.0000 0.15079  0.94126  0.84359  Biso   1.000  C
  H251     1.0000 0.01672  0.83269  0.94406  Biso   1.000  H
  C212     1.0000 0.11734  0.79973  0.01959  Biso   1.000  C
  C213     1.0000 0.86752  0.79685  0.86362  Biso   1.000  C
  O40      1.0000 0.22495  0.75269  0.10678  Biso   1.000  O
  H252     1.0000 0.67693  0.24641  0.16391  Biso   1.000  H
  H253     1.0000 0.70331  0.30218  0.20674  Biso   1.000  H
  C214     1.0000 0.83450  0.25127  0.19958  Biso   1.000  C
  H254     1.0000 0.13854  0.88721  0.02404  Biso   1.000  H
  H255     1.0000 0.21351  0.85447  0.07913  Biso   1.000  H
  H256     1.0000 0.16062  0.91669  0.80546  Biso   1.000  H
  H257     1.0000 0.20281  0.97138  0.84579  Biso   1.000  H
  H258     1.0000 0.08087  0.95781  0.83797  Biso   1.000  H
  H259     1.0000 0.80948  0.78899  0.83010  Biso   1.000  H
  H260     1.0000 0.93013  0.80541  0.84119  Biso   1.000  H
  H261     1.0000 0.85007  0.82921  0.89081  Biso   1.000  H
  C215     1.0000 0.24001  0.70504  0.15195  Biso   1.000  C
  H262     1.0000 0.85967  0.22540  0.16586  Biso   1.000  H
  H263     1.0000 0.88668  0.28160  0.20812  Biso   1.000  H
  C216     1.0000 0.82193  0.21904  0.26479  Biso   1.000  C
  H264     1.0000 0.25868  0.67178  0.12671  Biso   1.000  H
  H265     1.0000 0.17544  0.69769  0.17281  Biso   1.000  H
  H266     1.0000 0.29608  0.71350  0.18671  Biso   1.000  H
  Br4      1.0000 0.95570  0.18355  0.30251  Biso   1.000  Br
  H267     1.0000 0.76852  0.18931  0.25600  Biso   1.000  H
  H268     1.0000 0.79711  0.24530  0.29822  Biso   1.000  H
