data_image0
_cell_length_a       10.24
_cell_length_b       10.369
_cell_length_c       25.633
_cell_angle_alpha    80.46
_cell_angle_beta     84.96
_cell_angle_gamma    62.23

_symmetry_space_group_name_H-M    "P 1"
_symmetry_int_tables_number       1

loop_
  _symmetry_equiv_pos_as_xyz
  'x, y, z'

loop_
  _atom_site_label
  _atom_site_occupancy
  _atom_site_fract_x
  _atom_site_fract_y
  _atom_site_fract_z
  _atom_site_thermal_displace_type
  _atom_site_B_iso_or_equiv
  _atom_site_type_symbol
  C1       1.0000 0.46199  0.72414  0.43954  Biso   1.000  C
  C2       1.0000 0.61493  0.67689  0.45959  Biso   1.000  C
  N1       1.0000 0.42574  0.83399  0.39091  Biso   1.000  N
  H1       1.0000 0.45595  0.63835  0.43210  Biso   1.000  H
  H2       1.0000 0.38964  0.76600  0.46691  Biso   1.000  H
  N2       1.0000 0.73500  0.56101  0.43309  Biso   1.000  N
  H3       1.0000 0.63248  0.76227  0.45508  Biso   1.000  H
  H4       1.0000 0.61765  0.64179  0.49722  Biso   1.000  H
  C3       1.0000 0.27587  0.87870  0.37121  Biso   1.000  C
  H5       1.0000 0.49323  0.79546  0.36559  Biso   1.000  H
  H6       1.0000 0.43017  0.91407  0.39792  Biso   1.000  H
  C4       1.0000 0.74201  0.41738  0.45489  Biso   1.000  C
  C5       1.0000 0.87580  0.55771  0.44424  Biso   1.000  C
  C6       1.0000 0.24015  0.98314  0.32026  Biso   1.000  C
  H7       1.0000 0.20300  0.92507  0.39792  Biso   1.000  H
  H8       1.0000 0.26939  0.79142  0.36591  Biso   1.000  H
  C7       1.0000 0.83101  0.29854  0.42150  Biso   1.000  C
  H9       1.0000 0.64242  0.42845  0.45861  Biso   1.000  H
  H10      1.0000 0.78437  0.38745  0.48990  Biso   1.000  H
  C8       1.0000 0.90479  0.67363  0.40923  Biso   1.000  C
  H11      1.0000 0.95607  0.46147  0.43981  Biso   1.000  H
  H12      1.0000 0.87477  0.57116  0.48092  Biso   1.000  H
  C9       1.0000 0.23260  0.93582  0.27357  Biso   1.000  C
  C10      1.0000 0.20818  0.12828  0.31899  Biso   1.000  C
  N3       1.0000 0.74258  0.29693  0.37857  Biso   1.000  N
  H13      1.0000 0.91392  0.31269  0.40579  Biso   1.000  H
  H14      1.0000 0.87008  0.20383  0.44389  Biso   1.000  H
  N4       1.0000 0.96670  0.63031  0.35653  Biso   1.000  N
  H15      1.0000 0.81324  0.76441  0.40429  Biso   1.000  H
  H16      1.0000 0.97341  0.69225  0.42672  Biso   1.000  H
  C11      1.0000 0.18990  0.03085  0.22657  Biso   1.000  C
  H17      1.0000 0.25696  0.83727  0.27389  Biso   1.000  H
  C12      1.0000 0.16860  0.22299  0.27227  Biso   1.000  C
  H18      1.0000 0.21341  0.16224  0.34981  Biso   1.000  H
  C13      1.0000 0.83213  0.18180  0.34490  Biso   1.000  C
  H19      1.0000 0.66708  0.28107  0.39309  Biso   1.000  H
  H20      1.0000 0.70429  0.38546  0.35832  Biso   1.000  H
  C14      1.0000 0.98397  0.74826  0.32026  Biso   1.000  C
  H21      1.0000 0.90695  0.60536  0.34158  Biso   1.000  H
  H22      1.0000 0.05532  0.55029  0.36101  Biso   1.000  H
  C15      1.0000 0.17264  0.97716  0.17779  Biso   1.000  C
  C16      1.0000 0.15750  0.17627  0.22626  Biso   1.000  C
  H23      1.0000 0.14903  0.32026  0.27159  Biso   1.000  H
  C17      1.0000 0.74502  0.17888  0.30142  Biso   1.000  C
  H24      1.0000 0.87334  0.08648  0.36690  Biso   1.000  H
  H25      1.0000 0.91365  0.19881  0.32940  Biso   1.000  H
  H26      1.0000 0.89031  0.83723  0.31768  Biso   1.000  H
  C18      1.0000 0.03399  0.70687  0.26598  Biso   1.000  C
  H27      1.0000 0.05540  0.76912  0.33482  Biso   1.000  H
  N5       1.0000 0.29732  0.94713  0.13977  Biso   1.000  N
  H28      1.0000 0.16303  0.88767  0.18832  Biso   1.000  H
  H29      1.0000 0.08235  0.05047  0.16019  Biso   1.000  H
  H30      1.0000 0.12817  0.24235  0.19520  Biso   1.000  H
  C19      1.0000 0.64716  0.11974  0.31155  Biso   1.000  C
  C20      1.0000 0.76657  0.22911  0.24976  Biso   1.000  C
  C21      1.0000 0.93824  0.77810  0.22353  Biso   1.000  C
  C22      1.0000 0.17453  0.59849  0.25640  Biso   1.000  C
  C23      1.0000 0.28421  0.88496  0.09341  Biso   1.000  C
  H31      1.0000 0.38189  0.88360  0.15659  Biso   1.000  H
  H32      1.0000 0.30249  0.03154  0.12830  Biso   1.000  H
  C24      1.0000 0.57540  0.10987  0.27049  Biso   1.000  C
  H33      1.0000 0.62990  0.08635  0.34621  Biso   1.000  H
  C25      1.0000 0.69760  0.21824  0.20790  Biso   1.000  C
  H34      1.0000 0.82983  0.27174  0.24279  Biso   1.000  H
  C26      1.0000 0.98057  0.74530  0.17289  Biso   1.000  C
  H35      1.0000 0.84296  0.84975  0.22950  Biso   1.000  H
  C27      1.0000 0.21588  0.56089  0.20632  Biso   1.000  C
  H36      1.0000 0.24132  0.55092  0.28390  Biso   1.000  H
  C28      1.0000 0.40675  0.86436  0.05329  Biso   1.000  C
  H37      1.0000 0.19017  0.95033  0.07659  Biso   1.000  H
  H38      1.0000 0.28549  0.79070  0.10551  Biso   1.000  H
  H39      1.0000 0.50907  0.07099  0.27761  Biso   1.000  H
  C29      1.0000 0.60126  0.15728  0.21906  Biso   1.000  C
  C30      1.0000 0.73167  0.26494  0.15220  Biso   1.000  C
  C31      1.0000 0.87783  0.83283  0.12723  Biso   1.000  C
  C32      1.0000 0.12034  0.63447  0.16454  Biso   1.000  C
  H40      1.0000 0.30914  0.48533  0.20058  Biso   1.000  H
  N6       1.0000 0.54505  0.72782  0.06595  Biso   1.000  N
  H41      1.0000 0.37298  0.86432  0.01911  Biso   1.000  H
  H42      1.0000 0.42716  0.94773  0.05028  Biso   1.000  H
  H43      1.0000 0.55373  0.14848  0.19160  Biso   1.000  H
  H44      1.0000 0.82047  0.27665  0.15180  Biso   1.000  H
  H45      1.0000 0.75141  0.18798  0.13119  Biso   1.000  H
  N7       1.0000 0.60958  0.40551  0.12739  Biso   1.000  N
  N8       1.0000 0.82829  0.74278  0.10294  Biso   1.000  N
  H46      1.0000 0.79223  0.91493  0.13962  Biso   1.000  H
  H47      1.0000 0.92770  0.87247  0.10049  Biso   1.000  H
  H48      1.0000 0.14989  0.60954  0.13071  Biso   1.000  H
  C33      1.0000 0.53079  0.60505  0.05001  Biso   1.000  C
  C34      1.0000 0.66730  0.74340  0.03525  Biso   1.000  C
  H49      1.0000 0.52852  0.39341  0.12628  Biso   1.000  H
  H50      1.0000 0.58831  0.47609  0.14769  Biso   1.000  H
  C35      1.0000 0.64729  0.45458  0.07311  Biso   1.000  C
  C36      1.0000 0.72495  0.83137  0.05820  Biso   1.000  C
  H51      1.0000 0.78281  0.70490  0.12771  Biso   1.000  H
  H52      1.0000 0.90747  0.66730  0.09091  Biso   1.000  H
  H53      1.0000 0.53656  0.61295  0.01171  Biso   1.000  H
  H54      1.0000 0.43416  0.61395  0.06089  Biso   1.000  H
  H55      1.0000 0.74799  0.64595  0.03280  Biso   1.000  H
  H56      1.0000 0.63375  0.79015  0.99960  Biso   1.000  H
  H57      1.0000 0.65973  0.38353  0.05040  Biso   1.000  H
  H58      1.0000 0.74056  0.45715  0.07378  Biso   1.000  H
  H59      1.0000 0.77572  0.86765  0.03058  Biso   1.000  H
  H60      1.0000 0.64227  0.91593  0.07070  Biso   1.000  H
  C37      1.0000 0.53797  0.27593  0.56048  Biso   1.000  C
  C38      1.0000 0.38508  0.32307  0.54042  Biso   1.000  C
  N9       1.0000 0.57427  0.16599  0.60906  Biso   1.000  N
  H61      1.0000 0.54400  0.36172  0.56792  Biso   1.000  H
  H62      1.0000 0.61037  0.23396  0.53310  Biso   1.000  H
  N10      1.0000 0.26501  0.43895  0.56693  Biso   1.000  N
  H63      1.0000 0.36753  0.23771  0.54489  Biso   1.000  H
  H64      1.0000 0.38246  0.35817  0.50280  Biso   1.000  H
  C39      1.0000 0.72414  0.12126  0.62880  Biso   1.000  C
  H65      1.0000 0.50678  0.20452  0.63438  Biso   1.000  H
  H66      1.0000 0.56984  0.08590  0.60210  Biso   1.000  H
  C40      1.0000 0.12421  0.44227  0.55573  Biso   1.000  C
  C41      1.0000 0.25799  0.58259  0.54513  Biso   1.000  C
  C42      1.0000 0.75986  0.01682  0.67976  Biso   1.000  C
  H67      1.0000 0.79701  0.07489  0.60210  Biso   1.000  H
  H68      1.0000 0.73062  0.20855  0.63410  Biso   1.000  H
  C43      1.0000 0.09517  0.32646  0.59074  Biso   1.000  C
  H69      1.0000 0.04394  0.53850  0.56020  Biso   1.000  H
  H70      1.0000 0.12524  0.42881  0.51910  Biso   1.000  H
  H71      1.0000 0.35754  0.57163  0.54141  Biso   1.000  H
  H72      1.0000 0.21559  0.61262  0.51012  Biso   1.000  H
  C44      1.0000 0.16895  0.70153  0.57852  Biso   1.000  C
  C45      1.0000 0.76741  0.06415  0.72644  Biso   1.000  C
  C46      1.0000 0.79183  0.87168  0.68102  Biso   1.000  C
  N11      1.0000 0.03331  0.36967  0.64344  Biso   1.000  N
  H73      1.0000 0.18687  0.23557  0.59569  Biso   1.000  H
  H74      1.0000 0.02655  0.30783  0.57330  Biso   1.000  H
  H75      1.0000 0.08609  0.68729  0.59419  Biso   1.000  H
  H76      1.0000 0.12987  0.79626  0.55609  Biso   1.000  H
  N12      1.0000 0.25738  0.70314  0.62144  Biso   1.000  N
  H77      1.0000 0.74305  0.16271  0.72609  Biso   1.000  H
  C47      1.0000 0.81011  0.96911  0.77344  Biso   1.000  C
  C48      1.0000 0.83141  0.77698  0.72775  Biso   1.000  C
  H78      1.0000 0.78655  0.83783  0.65021  Biso   1.000  H
  C49      1.0000 0.01614  0.25172  0.67972  Biso   1.000  C
  H79      1.0000 0.09306  0.39462  0.65839  Biso   1.000  H
  H80      1.0000 0.94469  0.44967  0.63901  Biso   1.000  H
  H81      1.0000 0.33293  0.71891  0.60688  Biso   1.000  H
  H82      1.0000 0.29572  0.61450  0.64170  Biso   1.000  H
  C50      1.0000 0.16788  0.81816  0.65511  Biso   1.000  C
  C51      1.0000 0.82737  0.02281  0.82222  Biso   1.000  C
  C52      1.0000 0.84251  0.82371  0.77372  Biso   1.000  C
  H83      1.0000 0.85098  0.67972  0.72838  Biso   1.000  H
  H84      1.0000 0.10965  0.16286  0.68229  Biso   1.000  H
  C53      1.0000 0.96602  0.29309  0.73404  Biso   1.000  C
  H85      1.0000 0.94461  0.23085  0.66520  Biso   1.000  H
  H86      1.0000 0.12667  0.91348  0.63311  Biso   1.000  H
  H87      1.0000 0.08636  0.80115  0.67062  Biso   1.000  H
  C54      1.0000 0.25499  0.82110  0.69855  Biso   1.000  C
  N13      1.0000 0.70269  0.05285  0.86020  Biso   1.000  N
  H88      1.0000 0.83698  0.11230  0.81170  Biso   1.000  H
  H89      1.0000 0.91766  0.94951  0.83979  Biso   1.000  H
  H90      1.0000 0.87179  0.75772  0.80481  Biso   1.000  H
  C55      1.0000 0.06177  0.22187  0.77649  Biso   1.000  C
  C56      1.0000 0.82548  0.40148  0.74361  Biso   1.000  C
  C57      1.0000 0.23343  0.77086  0.75026  Biso   1.000  C
  C58      1.0000 0.35280  0.88035  0.68842  Biso   1.000  C
  C59      1.0000 0.71580  0.11502  0.90657  Biso   1.000  C
  H91      1.0000 0.61812  0.11637  0.84339  Biso   1.000  H
  H92      1.0000 0.69746  0.96853  0.87171  Biso   1.000  H
  C60      1.0000 0.01944  0.25467  0.82713  Biso   1.000  C
  H93      1.0000 0.15705  0.15022  0.77051  Biso   1.000  H
  C61      1.0000 0.78413  0.43909  0.79366  Biso   1.000  C
  H94      1.0000 0.75869  0.44904  0.71612  Biso   1.000  H
  H95      1.0000 0.17023  0.72835  0.75718  Biso   1.000  H
  C62      1.0000 0.30235  0.78183  0.79212  Biso   1.000  C
  H96      1.0000 0.37011  0.91361  0.65381  Biso   1.000  H
  C63      1.0000 0.42461  0.89009  0.72953  Biso   1.000  C
  C64      1.0000 0.59326  0.13562  0.94669  Biso   1.000  C
  H97      1.0000 0.80979  0.04975  0.92338  Biso   1.000  H
  H98      1.0000 0.71452  0.20926  0.89450  Biso   1.000  H
  C65      1.0000 0.12213  0.16725  0.87278  Biso   1.000  C
  C66      1.0000 0.87967  0.36549  0.83548  Biso   1.000  C
  H99      1.0000 0.69087  0.51465  0.79939  Biso   1.000  H
  C67      1.0000 0.39885  0.84269  0.78096  Biso   1.000  C
  C68      1.0000 0.26829  0.73514  0.84782  Biso   1.000  C
  H100     1.0000 0.49094  0.92898  0.72241  Biso   1.000  H
  N14      1.0000 0.45496  0.27216  0.93403  Biso   1.000  N
  H101     1.0000 0.62703  0.13565  0.98091  Biso   1.000  H
  H102     1.0000 0.57280  0.05236  0.94969  Biso   1.000  H
  N15      1.0000 0.17172  0.25718  0.89707  Biso   1.000  N
  H103     1.0000 0.20782  0.08515  0.86040  Biso   1.000  H
  H104     1.0000 0.07231  0.12751  0.89949  Biso   1.000  H
  H105     1.0000 0.85007  0.39053  0.86930  Biso   1.000  H
  H106     1.0000 0.44628  0.85148  0.80841  Biso   1.000  H
  H107     1.0000 0.17963  0.72332  0.84821  Biso   1.000  H
  H108     1.0000 0.24860  0.81200  0.86879  Biso   1.000  H
  N16      1.0000 0.39043  0.59447  0.87258  Biso   1.000  N
  C69      1.0000 0.33271  0.25656  0.96476  Biso   1.000  C
  C70      1.0000 0.46917  0.39502  0.95001  Biso   1.000  C
  C71      1.0000 0.27506  0.16860  0.94182  Biso   1.000  C
  H109     1.0000 0.21720  0.29507  0.87231  Biso   1.000  H
  H110     1.0000 0.09254  0.33267  0.90910  Biso   1.000  H
  H111     1.0000 0.47149  0.60657  0.87369  Biso   1.000  H
  H112     1.0000 0.41170  0.52389  0.85229  Biso   1.000  H
  C72      1.0000 0.35272  0.54538  0.92690  Biso   1.000  C
  H113     1.0000 0.25201  0.35402  0.96722  Biso   1.000  H
  H114     1.0000 0.36626  0.20981  0.00041  Biso   1.000  H
  H115     1.0000 0.46340  0.38712  0.98830  Biso   1.000  H
  H116     1.0000 0.56580  0.38614  0.93909  Biso   1.000  H
  H117     1.0000 0.22424  0.13244  0.96939  Biso   1.000  H
  H118     1.0000 0.35769  0.08415  0.92932  Biso   1.000  H
  H119     1.0000 0.34023  0.61655  0.94961  Biso   1.000  H
  H120     1.0000 0.25940  0.54294  0.92619  Biso   1.000  H
