data_image0
_cell_length_a       10.168
_cell_length_b       10.345
_cell_length_c       25.51
_cell_angle_alpha    80.45
_cell_angle_beta     84.67
_cell_angle_gamma    62.18

_symmetry_space_group_name_H-M    "P 1"
_symmetry_int_tables_number       1

loop_
  _symmetry_equiv_pos_as_xyz
  'x, y, z'

loop_
  _atom_site_label
  _atom_site_occupancy
  _atom_site_fract_x
  _atom_site_fract_y
  _atom_site_fract_z
  _atom_site_thermal_displace_type
  _atom_site_B_iso_or_equiv
  _atom_site_type_symbol
  C1       1.0000 0.83230  0.25579  0.46639  Biso   1.000  C
  C2       1.0000 0.77445  0.16778  0.44242  Biso   1.000  C
  N1       1.0000 0.95478  0.27253  0.43550  Biso   1.000  N
  H1       1.0000 0.74920  0.35515  0.46950  Biso   1.000  H
  H2       1.0000 0.86718  0.20657  0.50269  Biso   1.000  H
  N2       1.0000 0.67265  0.25769  0.39726  Biso   1.000  N
  H3       1.0000 0.85958  0.08110  0.42970  Biso   1.000  H
  H4       1.0000 0.72050  0.13122  0.47029  Biso   1.000  H
  C3       1.0000 0.96833  0.39602  0.45196  Biso   1.000  C
  C4       1.0000 0.09456  0.13632  0.44831  Biso   1.000  C
  C5       1.0000 0.62535  0.16675  0.37153  Biso   1.000  C
  H5       1.0000 0.58441  0.33659  0.41002  Biso   1.000  H
  H6       1.0000 0.71544  0.29471  0.37161  Biso   1.000  H
  H7       1.0000 0.96164  0.38775  0.49120  Biso   1.000  H
  C6       1.0000 0.85020  0.54686  0.42874  Biso   1.000  C
  H8       1.0000 0.06751  0.38755  0.44079  Biso   1.000  H
  H9       1.0000 0.07464  0.05046  0.45129  Biso   1.000  H
  H10      1.0000 0.12851  0.13708  0.48341  Biso   1.000  H
  C7       1.0000 0.21857  0.11694  0.40767  Biso   1.000  C
  C8       1.0000 0.52136  0.25566  0.32641  Biso   1.000  C
  H11      1.0000 0.57557  0.12289  0.39849  Biso   1.000  H
  H12      1.0000 0.71459  0.08486  0.35802  Biso   1.000  H
  H13      1.0000 0.75480  0.54343  0.42771  Biso   1.000  H
  H14      1.0000 0.83573  0.61988  0.45220  Biso   1.000  H
  N3       1.0000 0.89042  0.59585  0.37408  Biso   1.000  N
  H15      1.0000 0.21429  0.21417  0.39420  Biso   1.000  H
  H16      1.0000 0.31561  0.05323  0.42489  Biso   1.000  H
  N4       1.0000 0.20648  0.04916  0.36215  Biso   1.000  N
  C9       1.0000 0.38063  0.36797  0.33559  Biso   1.000  C
  C10      1.0000 0.56357  0.22119  0.27504  Biso   1.000  C
  C11      1.0000 0.76525  0.73632  0.34943  Biso   1.000  C
  H17      1.0000 0.97222  0.61268  0.37579  Biso   1.000  H
  H18      1.0000 0.91676  0.52318  0.35340  Biso   1.000  H
  H19      1.0000 0.21049  0.95557  0.37440  Biso   1.000  H
  C12      1.0000 0.33043  0.02516  0.32271  Biso   1.000  C
  H20      1.0000 0.12116  0.10546  0.34601  Biso   1.000  H
  C13      1.0000 0.28228  0.44309  0.29393  Biso   1.000  C
  H21      1.0000 0.35162  0.39353  0.37042  Biso   1.000  H
  C14      1.0000 0.46428  0.29454  0.23342  Biso   1.000  C
  H22      1.0000 0.66092  0.14686  0.26828  Biso   1.000  H
  H23      1.0000 0.74306  0.81549  0.37110  Biso   1.000  H
  H24      1.0000 0.67520  0.72244  0.34971  Biso   1.000  H
  C15      1.0000 0.80049  0.78399  0.29309  Biso   1.000  C
  H25      1.0000 0.42537  0.95196  0.33961  Biso   1.000  H
  C16      1.0000 0.31121  0.97161  0.27377  Biso   1.000  C
  H26      1.0000 0.33600  0.11892  0.31202  Biso   1.000  H
  C17      1.0000 0.32264  0.40456  0.24316  Biso   1.000  C
  H27      1.0000 0.18682  0.52129  0.30029  Biso   1.000  H
  C18      1.0000 0.51299  0.25227  0.17847  Biso   1.000  C
  C19      1.0000 0.73004  0.77178  0.25143  Biso   1.000  C
  C20      1.0000 0.89792  0.84520  0.28204  Biso   1.000  C
  C21      1.0000 0.26671  0.06908  0.22686  Biso   1.000  C
  C22      1.0000 0.34177  0.82570  0.27405  Biso   1.000  C
  H28      1.0000 0.25356  0.45322  0.21509  Biso   1.000  H
  H29      1.0000 0.60849  0.16051  0.18062  Biso   1.000  H
  H30      1.0000 0.43797  0.23286  0.16392  Biso   1.000  H
  N5       1.0000 0.53144  0.37188  0.14217  Biso   1.000  N
  C23      1.0000 0.75163  0.82461  0.19926  Biso   1.000  C
  H31      1.0000 0.66622  0.72678  0.25870  Biso   1.000  H
  C24      1.0000 0.92334  0.89427  0.23000  Biso   1.000  C
  H32      1.0000 0.94714  0.85345  0.31019  Biso   1.000  H
  C25      1.0000 0.25733  0.02218  0.17994  Biso   1.000  C
  H33      1.0000 0.24227  0.16962  0.22690  Biso   1.000  H
  C26      1.0000 0.32812  0.77925  0.22765  Biso   1.000  C
  H34      1.0000 0.37196  0.75787  0.30589  Biso   1.000  H
  C27      1.0000 0.59199  0.32807  0.08894  Biso   1.000  C
  H35      1.0000 0.58708  0.40462  0.15871  Biso   1.000  H
  H36      1.0000 0.44066  0.45411  0.13669  Biso   1.000  H
  C28      1.0000 0.66302  0.82127  0.15585  Biso   1.000  C
  C29      1.0000 0.85019  0.88463  0.18877  Biso   1.000  C
  H37      1.0000 0.99107  0.93462  0.22260  Biso   1.000  H
  C30      1.0000 0.22186  0.12811  0.12897  Biso   1.000  C
  C31      1.0000 0.28727  0.87653  0.18066  Biso   1.000  C
  H38      1.0000 0.34699  0.68005  0.22809  Biso   1.000  H
  H39      1.0000 0.51995  0.31095  0.07129  Biso   1.000  H
  H40      1.0000 0.68552  0.23427  0.09351  Biso   1.000  H
  C32      1.0000 0.62248  0.44467  0.05391  Biso   1.000  C
  N6       1.0000 0.75555  0.70752  0.12098  Biso   1.000  N
  H41      1.0000 0.58118  0.80089  0.17211  Biso   1.000  H
  H42      1.0000 0.61806  0.91949  0.13390  Biso   1.000  H
  H43      1.0000 0.86732  0.91903  0.15319  Biso   1.000  H
  N7       1.0000 0.07290  0.16932  0.10858  Biso   1.000  N
  H44      1.0000 0.22535  0.21843  0.13510  Biso   1.000  H
  H45      1.0000 0.29866  0.08242  0.10182  Biso   1.000  H
  H46      1.0000 0.27974  0.84351  0.14901  Biso   1.000  H
  H47      1.0000 0.62536  0.43057  0.01630  Biso   1.000  H
  H48      1.0000 0.53957  0.54321  0.05828  Biso   1.000  H
  N8       1.0000 0.76353  0.44123  0.06592  Biso   1.000  N
  C33      1.0000 0.66379  0.70444  0.07916  Biso   1.000  C
  H49      1.0000 0.80056  0.61783  0.14181  Biso   1.000  H
  H50      1.0000 0.82068  0.73350  0.10381  Biso   1.000  H
  C34      1.0000 0.03885  0.27931  0.05928  Biso   1.000  C
  H51      1.0000 0.07861  0.08280  0.09999  Biso   1.000  H
  H52      1.0000 0.00489  0.20852  0.13359  Biso   1.000  H
  C35      1.0000 0.88528  0.32641  0.03864  Biso   1.000  C
  C36      1.0000 0.75592  0.58624  0.04449  Biso   1.000  C
  H53      1.0000 0.61932  0.80187  0.05669  Biso   1.000  H
  H54      1.0000 0.58165  0.68591  0.09629  Biso   1.000  H
  H55      1.0000 0.11447  0.23564  0.03141  Biso   1.000  H
  H56      1.0000 0.04482  0.36718  0.06691  Biso   1.000  H
  H57      1.0000 0.88304  0.36367  0.00020  Biso   1.000  H
  H58      1.0000 0.86776  0.23874  0.04262  Biso   1.000  H
  H59      1.0000 0.71276  0.61771  0.00859  Biso   1.000  H
  H60      1.0000 0.85803  0.57593  0.04091  Biso   1.000  H
  C37      1.0000 0.16795  0.74397  0.53358  Biso   1.000  C
  N9       1.0000 0.04547  0.72722  0.56448  Biso   1.000  N
  H61      1.0000 0.25101  0.64472  0.53048  Biso   1.000  H
  H62      1.0000 0.13298  0.79319  0.49729  Biso   1.000  H
  C38      1.0000 0.22581  0.83198  0.55756  Biso   1.000  C
  C39      1.0000 0.03192  0.60374  0.54802  Biso   1.000  C
  C40      1.0000 0.90559  0.86342  0.55171  Biso   1.000  C
  H63      1.0000 0.14067  0.91864  0.57032  Biso   1.000  H
  H64      1.0000 0.27970  0.86865  0.52969  Biso   1.000  H
  N10      1.0000 0.32760  0.74205  0.60276  Biso   1.000  N
  H65      1.0000 0.03861  0.61200  0.50882  Biso   1.000  H
  C41      1.0000 0.15001  0.45301  0.57124  Biso   1.000  C
  H66      1.0000 0.93260  0.61232  0.55919  Biso   1.000  H
  H67      1.0000 0.92561  0.94929  0.54869  Biso   1.000  H
  H68      1.0000 0.87174  0.86267  0.51661  Biso   1.000  H
  C42      1.0000 0.78164  0.88293  0.59231  Biso   1.000  C
  C43      1.0000 0.37476  0.83312  0.62845  Biso   1.000  C
  H69      1.0000 0.41584  0.66315  0.59000  Biso   1.000  H
  H70      1.0000 0.28472  0.70504  0.62841  Biso   1.000  H
  H71      1.0000 0.24540  0.45642  0.57231  Biso   1.000  H
  H72      1.0000 0.16453  0.37986  0.54782  Biso   1.000  H
  N11      1.0000 0.10983  0.40389  0.62594  Biso   1.000  N
  H73      1.0000 0.78597  0.78559  0.60578  Biso   1.000  H
  H74      1.0000 0.68449  0.94664  0.57509  Biso   1.000  H
  N12      1.0000 0.79368  0.95060  0.63783  Biso   1.000  N
  H75      1.0000 0.42468  0.87687  0.60149  Biso   1.000  H
  H76      1.0000 0.28567  0.91488  0.64200  Biso   1.000  H
  C44      1.0000 0.47889  0.74408  0.67361  Biso   1.000  C
  C45      1.0000 0.23500  0.26343  0.65059  Biso   1.000  C
  H77      1.0000 0.02798  0.38719  0.62419  Biso   1.000  H
  H78      1.0000 0.08349  0.47656  0.64662  Biso   1.000  H
  C46      1.0000 0.66982  0.97458  0.67731  Biso   1.000  C
  H79      1.0000 0.87904  0.89439  0.65401  Biso   1.000  H
  H80      1.0000 0.78966  0.04417  0.62562  Biso   1.000  H
  C47      1.0000 0.61963  0.63177  0.66443  Biso   1.000  C
  C48      1.0000 0.43663  0.77866  0.72498  Biso   1.000  C
  H81      1.0000 0.25714  0.18436  0.62892  Biso   1.000  H
  H82      1.0000 0.32505  0.27731  0.65031  Biso   1.000  H
  C49      1.0000 0.19971  0.21587  0.70693  Biso   1.000  C
  H83      1.0000 0.66425  0.88082  0.68800  Biso   1.000  H
  H84      1.0000 0.57483  0.04789  0.66041  Biso   1.000  H
  C50      1.0000 0.68895  0.02813  0.72625  Biso   1.000  C
  H85      1.0000 0.64858  0.60632  0.62960  Biso   1.000  H
  C51      1.0000 0.71797  0.55667  0.70605  Biso   1.000  C
  C52      1.0000 0.53597  0.70520  0.76660  Biso   1.000  C
  H86      1.0000 0.33933  0.85290  0.73170  Biso   1.000  H
  C53      1.0000 0.10233  0.15454  0.71798  Biso   1.000  C
  C54      1.0000 0.27021  0.22797  0.74859  Biso   1.000  C
  C55      1.0000 0.73355  0.93067  0.77312  Biso   1.000  C
  C56      1.0000 0.65843  0.17416  0.72597  Biso   1.000  C
  H87      1.0000 0.81338  0.47857  0.69969  Biso   1.000  H
  C57      1.0000 0.67756  0.59529  0.75686  Biso   1.000  C
  C58      1.0000 0.48721  0.74758  0.82155  Biso   1.000  C
  H88      1.0000 0.05311  0.14631  0.68979  Biso   1.000  H
  C59      1.0000 0.07692  0.10549  0.76998  Biso   1.000  C
  C60      1.0000 0.24862  0.17513  0.80076  Biso   1.000  C
  H89      1.0000 0.33403  0.27297  0.74132  Biso   1.000  H
  C61      1.0000 0.74292  0.97756  0.82008  Biso   1.000  C
  H90      1.0000 0.75798  0.83012  0.77312  Biso   1.000  H
  H91      1.0000 0.62824  0.24200  0.69409  Biso   1.000  H
  C62      1.0000 0.67208  0.22061  0.77237  Biso   1.000  C
  H92      1.0000 0.74670  0.54654  0.78489  Biso   1.000  H
  H93      1.0000 0.39171  0.83935  0.81940  Biso   1.000  H
  H94      1.0000 0.56218  0.76688  0.83610  Biso   1.000  H
  N13      1.0000 0.46881  0.62786  0.85785  Biso   1.000  N
  H95      1.0000 0.00913  0.06523  0.77742  Biso   1.000  H
  C63      1.0000 0.15001  0.11523  0.81125  Biso   1.000  C
  C64      1.0000 0.33723  0.17847  0.84417  Biso   1.000  C
  C65      1.0000 0.77834  0.87176  0.87101  Biso   1.000  C
  C66      1.0000 0.71293  0.12333  0.81932  Biso   1.000  C
  H96      1.0000 0.65326  0.31970  0.77189  Biso   1.000  H
  C67      1.0000 0.40816  0.67167  0.91108  Biso   1.000  C
  H97      1.0000 0.41312  0.59524  0.84131  Biso   1.000  H
  H98      1.0000 0.55944  0.54575  0.86329  Biso   1.000  H
  H99      1.0000 0.13278  0.08084  0.84679  Biso   1.000  H
  H100     1.0000 0.41907  0.19885  0.82791  Biso   1.000  H
  H101     1.0000 0.38219  0.08026  0.86612  Biso   1.000  H
  N14      1.0000 0.24470  0.29222  0.87904  Biso   1.000  N
  H102     1.0000 0.77491  0.78132  0.86492  Biso   1.000  H
  H103     1.0000 0.70154  0.91743  0.89820  Biso   1.000  H
  N15      1.0000 0.92726  0.83042  0.89144  Biso   1.000  N
  H104     1.0000 0.72046  0.15634  0.85101  Biso   1.000  H
  H105     1.0000 0.48026  0.68891  0.92869  Biso   1.000  H
  H106     1.0000 0.31473  0.76547  0.90651  Biso   1.000  H
  C68      1.0000 0.37777  0.55507  0.94611  Biso   1.000  C
  C69      1.0000 0.33646  0.29530  0.92086  Biso   1.000  C
  H107     1.0000 0.19964  0.38202  0.85820  Biso   1.000  H
  H108     1.0000 0.17957  0.26624  0.89621  Biso   1.000  H
  C70      1.0000 0.96135  0.72055  0.94074  Biso   1.000  C
  H109     1.0000 0.92164  0.91696  0.89999  Biso   1.000  H
  H110     1.0000 0.99531  0.79135  0.86639  Biso   1.000  H
  N16      1.0000 0.23663  0.55851  0.93410  Biso   1.000  N
  H111     1.0000 0.37490  0.56918  0.98372  Biso   1.000  H
  H112     1.0000 0.46069  0.45655  0.94170  Biso   1.000  H
  H113     1.0000 0.38093  0.19787  0.94333  Biso   1.000  H
  H114     1.0000 0.41860  0.31385  0.90369  Biso   1.000  H
  C71      1.0000 0.24433  0.41351  0.95549  Biso   1.000  C
  C72      1.0000 0.11497  0.67335  0.96134  Biso   1.000  C
  H115     1.0000 0.88573  0.76421  0.96861  Biso   1.000  H
  H116     1.0000 0.95544  0.63256  0.93311  Biso   1.000  H
  H117     1.0000 0.28749  0.38204  0.99139  Biso   1.000  H
  H118     1.0000 0.14222  0.42381  0.95911  Biso   1.000  H
  H119     1.0000 0.11716  0.63618  0.99982  Biso   1.000  H
  H120     1.0000 0.13240  0.76100  0.95740  Biso   1.000  H
