data_image0
_cell_length_a       14.271
_cell_length_b       14.923
_cell_length_c       29.86
_cell_angle_alpha    90
_cell_angle_beta     90
_cell_angle_gamma    90

_symmetry_space_group_name_H-M    "P 1"
_symmetry_int_tables_number       1

loop_
  _symmetry_equiv_pos_as_xyz
  'x, y, z'

loop_
  _atom_site_label
  _atom_site_occupancy
  _atom_site_fract_x
  _atom_site_fract_y
  _atom_site_fract_z
  _atom_site_thermal_displace_type
  _atom_site_B_iso_or_equiv
  _atom_site_type_symbol
  C1       1.0000 0.52295  0.48388  0.41909  Biso   1.000  C
  N1       1.0000 0.49667  0.50941  0.37247  Biso   1.000  N
  H1       1.0000 0.46850  0.49380  0.43898  Biso   1.000  H
  H2       1.0000 0.53843  0.41929  0.41989  Biso   1.000  H
  C2       1.0000 0.60563  0.53689  0.43657  Biso   1.000  C
  C3       1.0000 0.41434  0.45782  0.35556  Biso   1.000  C
  H3       1.0000 0.54397  0.50137  0.35519  Biso   1.000  H
  H4       1.0000 0.48469  0.57301  0.37100  Biso   1.000  H
  H5       1.0000 0.65630  0.53588  0.41390  Biso   1.000  H
  H6       1.0000 0.62967  0.50767  0.46400  Biso   1.000  H
  N2       1.0000 0.58174  0.63050  0.44682  Biso   1.000  N
  C4       1.0000 0.39289  0.48274  0.30760  Biso   1.000  C
  H7       1.0000 0.42779  0.39282  0.35740  Biso   1.000  H
  H8       1.0000 0.35912  0.47048  0.37458  Biso   1.000  H
  C5       1.0000 0.65966  0.67587  0.46942  Biso   1.000  C
  H9       1.0000 0.56948  0.66079  0.42251  Biso   1.000  H
  N3       1.0000 0.36522  0.57743  0.30335  Biso   1.000  N
  H10      1.0000 0.34160  0.44421  0.29628  Biso   1.000  H
  H11      1.0000 0.44902  0.47162  0.28888  Biso   1.000  H
  H12      1.0000 0.67487  0.64370  0.49749  Biso   1.000  H
  H13      1.0000 0.71579  0.67440  0.44990  Biso   1.000  H
  C6       1.0000 0.63534  0.77243  0.48021  Biso   1.000  C
  C7       1.0000 0.26697  0.59036  0.31705  Biso   1.000  C
  C8       1.0000 0.38098  0.61020  0.25743  Biso   1.000  C
  N4       1.0000 0.61460  0.82691  0.43985  Biso   1.000  N
  H14      1.0000 0.68839  0.79997  0.49648  Biso   1.000  H
  H15      1.0000 0.58013  0.77337  0.50030  Biso   1.000  H
  H16      1.0000 0.22549  0.57468  0.29159  Biso   1.000  H
  H17      1.0000 0.25247  0.54902  0.34200  Biso   1.000  H
  C9       1.0000 0.24623  0.68518  0.33168  Biso   1.000  C
  H18      1.0000 0.36311  0.56249  0.23600  Biso   1.000  H
  H19      1.0000 0.33971  0.66227  0.25191  Biso   1.000  H
  C10      1.0000 0.48168  0.63747  0.24856  Biso   1.000  C
  C11      1.0000 0.56324  0.90860  0.45281  Biso   1.000  C
  C12      1.0000 0.70205  0.85117  0.41688  Biso   1.000  C
  H20      1.0000 0.17777  0.69222  0.33600  Biso   1.000  H
  H21      1.0000 0.26613  0.72720  0.30790  Biso   1.000  H
  N5       1.0000 0.29465  0.70830  0.37364  Biso   1.000  N
  H22      1.0000 0.48917  0.65228  0.21641  Biso   1.000  H
  H23      1.0000 0.52379  0.58668  0.25559  Biso   1.000  H
  N6       1.0000 0.50809  0.71534  0.27582  Biso   1.000  N
  C13      1.0000 0.46136  0.89004  0.46259  Biso   1.000  C
  H24      1.0000 0.59288  0.93487  0.47971  Biso   1.000  H
  H25      1.0000 0.56772  0.95309  0.42830  Biso   1.000  H
  C14      1.0000 0.68643  0.87905  0.36889  Biso   1.000  C
  H26      1.0000 0.73253  0.90109  0.43319  Biso   1.000  H
  H27      1.0000 0.74522  0.79930  0.41748  Biso   1.000  H
  C15      1.0000 0.26410  0.79602  0.39025  Biso   1.000  C
  H28      1.0000 0.28197  0.67037  0.39431  Biso   1.000  H
  C16      1.0000 0.60206  0.74844  0.26544  Biso   1.000  C
  H29      1.0000 0.47201  0.75528  0.27080  Biso   1.000  H
  N7       1.0000 0.41588  0.84514  0.42358  Biso   1.000  N
  H30      1.0000 0.42870  0.94706  0.46909  Biso   1.000  H
  H31      1.0000 0.45631  0.85117  0.48928  Biso   1.000  H
  N8       1.0000 0.64684  0.80326  0.34200  Biso   1.000  N
  H32      1.0000 0.74662  0.89848  0.35559  Biso   1.000  H
  H33      1.0000 0.64263  0.93051  0.36798  Biso   1.000  H
  H34      1.0000 0.27433  0.84139  0.36661  Biso   1.000  H
  H35      1.0000 0.19613  0.79367  0.39658  Biso   1.000  H
  C17      1.0000 0.31490  0.82483  0.43195  Biso   1.000  C
  H36      1.0000 0.64768  0.69932  0.26979  Biso   1.000  H
  H37      1.0000 0.60437  0.76627  0.23349  Biso   1.000  H
  C18      1.0000 0.63044  0.82738  0.29407  Biso   1.000  C
  H38      1.0000 0.42190  0.87851  0.39889  Biso   1.000  H
  H39      1.0000 0.45091  0.79548  0.41788  Biso   1.000  H
  H40      1.0000 0.59302  0.78436  0.35469  Biso   1.000  H
  H41      1.0000 0.68860  0.75548  0.34471  Biso   1.000  H
  H42      1.0000 0.31028  0.77659  0.45459  Biso   1.000  H
  H43      1.0000 0.28400  0.87878  0.44431  Biso   1.000  H
  H44      1.0000 0.58069  0.87348  0.29250  Biso   1.000  H
  H45      1.0000 0.68853  0.85392  0.28158  Biso   1.000  H
  C19      1.0000 0.47705  0.51612  0.58091  Biso   1.000  C
  C20      1.0000 0.39437  0.46304  0.56343  Biso   1.000  C
  N9       1.0000 0.50333  0.49059  0.62753  Biso   1.000  N
  H46      1.0000 0.53150  0.50620  0.56098  Biso   1.000  H
  H47      1.0000 0.46157  0.58071  0.58011  Biso   1.000  H
  N10      1.0000 0.41826  0.36950  0.55318  Biso   1.000  N
  H48      1.0000 0.34370  0.46412  0.58610  Biso   1.000  H
  H49      1.0000 0.37033  0.49226  0.53600  Biso   1.000  H
  C21      1.0000 0.58566  0.54218  0.64444  Biso   1.000  C
  H50      1.0000 0.45603  0.49863  0.64481  Biso   1.000  H
  H51      1.0000 0.51531  0.42699  0.62900  Biso   1.000  H
  C22      1.0000 0.34034  0.32406  0.53054  Biso   1.000  C
  H52      1.0000 0.43052  0.33921  0.57749  Biso   1.000  H
  C23      1.0000 0.60711  0.51726  0.69236  Biso   1.000  C
  H53      1.0000 0.57221  0.60718  0.64260  Biso   1.000  H
  H54      1.0000 0.64088  0.52952  0.62539  Biso   1.000  H
  C24      1.0000 0.36466  0.22757  0.51979  Biso   1.000  C
  H55      1.0000 0.32513  0.35630  0.50248  Biso   1.000  H
  H56      1.0000 0.28421  0.32560  0.55010  Biso   1.000  H
  N11      1.0000 0.63478  0.42250  0.69662  Biso   1.000  N
  H57      1.0000 0.65840  0.55579  0.70368  Biso   1.000  H
  H58      1.0000 0.55098  0.52838  0.71109  Biso   1.000  H
  N12      1.0000 0.38540  0.17309  0.56015  Biso   1.000  N
  H59      1.0000 0.31161  0.20003  0.50348  Biso   1.000  H
  H60      1.0000 0.41987  0.22663  0.49970  Biso   1.000  H
  C25      1.0000 0.73303  0.40964  0.68295  Biso   1.000  C
  C26      1.0000 0.61902  0.38980  0.74257  Biso   1.000  C
  C27      1.0000 0.43676  0.09140  0.54719  Biso   1.000  C
  C28      1.0000 0.29795  0.14876  0.58312  Biso   1.000  C
  C29      1.0000 0.75377  0.31482  0.66829  Biso   1.000  C
  H61      1.0000 0.77451  0.42532  0.70841  Biso   1.000  H
  H62      1.0000 0.74753  0.45098  0.65800  Biso   1.000  H
  C30      1.0000 0.51832  0.36253  0.75144  Biso   1.000  C
  H63      1.0000 0.63689  0.43751  0.76400  Biso   1.000  H
  H64      1.0000 0.66029  0.33767  0.74809  Biso   1.000  H
  C31      1.0000 0.53864  0.10996  0.53741  Biso   1.000  C
  H65      1.0000 0.40712  0.06507  0.52029  Biso   1.000  H
  H66      1.0000 0.43228  0.04691  0.57170  Biso   1.000  H
  C32      1.0000 0.31357  0.12089  0.63111  Biso   1.000  C
  H67      1.0000 0.26747  0.09891  0.56678  Biso   1.000  H
  H68      1.0000 0.25478  0.20070  0.58248  Biso   1.000  H
  N13      1.0000 0.70535  0.29170  0.62636  Biso   1.000  N
  H69      1.0000 0.82223  0.30778  0.66400  Biso   1.000  H
  H70      1.0000 0.73387  0.27280  0.69210  Biso   1.000  H
  N14      1.0000 0.49191  0.28459  0.72415  Biso   1.000  N
  H71      1.0000 0.51083  0.34772  0.78359  Biso   1.000  H
  H72      1.0000 0.47621  0.41332  0.74441  Biso   1.000  H
  N15      1.0000 0.58412  0.15486  0.57642  Biso   1.000  N
  H73      1.0000 0.57130  0.05287  0.53091  Biso   1.000  H
  H74      1.0000 0.54369  0.14883  0.51068  Biso   1.000  H
  N16      1.0000 0.35316  0.19674  0.65800  Biso   1.000  N
  H75      1.0000 0.25338  0.10152  0.64441  Biso   1.000  H
  H76      1.0000 0.35737  0.06949  0.63198  Biso   1.000  H
  C33      1.0000 0.73590  0.20398  0.60971  Biso   1.000  C
  H77      1.0000 0.71803  0.32963  0.60569  Biso   1.000  H
  C34      1.0000 0.39794  0.25156  0.73456  Biso   1.000  C
  H78      1.0000 0.52799  0.24472  0.72920  Biso   1.000  H
  C35      1.0000 0.68510  0.17517  0.56805  Biso   1.000  C
  H79      1.0000 0.57810  0.12149  0.60111  Biso   1.000  H
  H80      1.0000 0.54909  0.20452  0.58208  Biso   1.000  H
  C36      1.0000 0.36956  0.17262  0.70593  Biso   1.000  C
  H81      1.0000 0.40698  0.21557  0.64528  Biso   1.000  H
  H82      1.0000 0.31140  0.24452  0.65529  Biso   1.000  H
  H83      1.0000 0.72567  0.15861  0.63339  Biso   1.000  H
  H84      1.0000 0.80387  0.20633  0.60338  Biso   1.000  H
  H85      1.0000 0.35232  0.30068  0.73021  Biso   1.000  H
  H86      1.0000 0.39563  0.23367  0.76648  Biso   1.000  H
  H87      1.0000 0.68972  0.22341  0.54538  Biso   1.000  H
  H88      1.0000 0.71600  0.12122  0.55569  Biso   1.000  H
  H89      1.0000 0.41931  0.12652  0.70750  Biso   1.000  H
  H90      1.0000 0.31147  0.14608  0.71839  Biso   1.000  H
  C37      1.0000 0.81494  0.67520  0.56805  Biso   1.000  C
  C38      1.0000 0.76414  0.70395  0.60971  Biso   1.000  C
  H91      1.0000 0.81031  0.72338  0.54538  Biso   1.000  H
  H92      1.0000 0.78397  0.62119  0.55569  Biso   1.000  H
  N17      1.0000 0.91584  0.65483  0.57642  Biso   1.000  N
  N18      1.0000 0.79469  0.79166  0.62636  Biso   1.000  N
  H93      1.0000 0.77430  0.65858  0.63339  Biso   1.000  H
  H94      1.0000 0.69610  0.70629  0.60338  Biso   1.000  H
  C39      1.0000 0.96139  0.60993  0.53741  Biso   1.000  C
  H95      1.0000 0.92187  0.62152  0.60111  Biso   1.000  H
  H96      1.0000 0.95088  0.70448  0.58208  Biso   1.000  H
  C40      1.0000 0.74620  0.81485  0.66829  Biso   1.000  C
  H97      1.0000 0.78201  0.82959  0.60569  Biso   1.000  H
  H98      1.0000 0.92867  0.55290  0.53091  Biso   1.000  H
  H99      1.0000 0.95627  0.64880  0.51068  Biso   1.000  H
  C41      1.0000 0.06321  0.59144  0.54719  Biso   1.000  C
  C42      1.0000 0.76694  0.90960  0.68295  Biso   1.000  C
  H100     1.0000 0.67781  0.80781  0.66400  Biso   1.000  H
  H101     1.0000 0.76610  0.77277  0.69210  Biso   1.000  H
  H102     1.0000 0.09292  0.56510  0.52029  Biso   1.000  H
  H103     1.0000 0.06769  0.54687  0.57170  Biso   1.000  H
  N19      1.0000 0.11457  0.67306  0.56015  Biso   1.000  N
  N20      1.0000 0.86525  0.92254  0.69662  Biso   1.000  N
  H104     1.0000 0.72553  0.92528  0.70841  Biso   1.000  H
  H105     1.0000 0.75251  0.95102  0.65800  Biso   1.000  H
  C43      1.0000 0.13531  0.72760  0.51979  Biso   1.000  C
  C44      1.0000 0.20209  0.64880  0.58312  Biso   1.000  C
  C45      1.0000 0.88095  0.88983  0.74257  Biso   1.000  C
  C46      1.0000 0.89293  0.01722  0.69236  Biso   1.000  C
  C47      1.0000 0.15969  0.82410  0.53054  Biso   1.000  C
  H106     1.0000 0.18842  0.69999  0.50348  Biso   1.000  H
  H107     1.0000 0.08009  0.72660  0.49970  Biso   1.000  H
  C48      1.0000 0.18639  0.62092  0.63111  Biso   1.000  C
  H108     1.0000 0.23250  0.59887  0.56678  Biso   1.000  H
  H109     1.0000 0.24518  0.70066  0.58248  Biso   1.000  H
  H110     1.0000 0.86308  0.93748  0.76400  Biso   1.000  H
  H111     1.0000 0.83967  0.83770  0.74809  Biso   1.000  H
  C49      1.0000 0.98164  0.86256  0.75144  Biso   1.000  C
  H112     1.0000 0.84157  0.05582  0.70368  Biso   1.000  H
  H113     1.0000 0.94899  0.02841  0.71109  Biso   1.000  H
  C50      1.0000 0.91437  0.04222  0.64444  Biso   1.000  C
  N21      1.0000 0.08177  0.86946  0.55318  Biso   1.000  N
  H114     1.0000 0.17490  0.85626  0.50248  Biso   1.000  H
  H115     1.0000 0.21582  0.82557  0.55010  Biso   1.000  H
  N22      1.0000 0.14687  0.69671  0.65800  Biso   1.000  N
  H116     1.0000 0.24658  0.60149  0.64441  Biso   1.000  H
  H117     1.0000 0.14260  0.56952  0.63198  Biso   1.000  H
  H118     1.0000 0.98921  0.84768  0.78359  Biso   1.000  H
  H119     1.0000 0.02382  0.91329  0.74441  Biso   1.000  H
  N23      1.0000 0.00806  0.78463  0.72415  Biso   1.000  N
  N24      1.0000 0.99671  0.99055  0.62753  Biso   1.000  N
  H120     1.0000 0.92783  0.10722  0.64260  Biso   1.000  H
  H121     1.0000 0.85908  0.02948  0.62539  Biso   1.000  H
  C51      1.0000 0.10560  0.96308  0.56343  Biso   1.000  C
  H122     1.0000 0.06951  0.83917  0.57749  Biso   1.000  H
  C52      1.0000 0.13040  0.67265  0.70593  Biso   1.000  C
  H123     1.0000 0.09299  0.71561  0.64528  Biso   1.000  H
  H124     1.0000 0.18863  0.74449  0.65529  Biso   1.000  H
  H125     1.0000 0.97197  0.74469  0.72920  Biso   1.000  H
  C53      1.0000 0.10203  0.75152  0.73456  Biso   1.000  C
  H126     1.0000 0.98472  0.92696  0.62900  Biso   1.000  H
  H127     1.0000 0.04401  0.99859  0.64481  Biso   1.000  H
  C54      1.0000 0.02291  0.01608  0.58091  Biso   1.000  C
  H128     1.0000 0.15633  0.96408  0.58610  Biso   1.000  H
  H129     1.0000 0.12970  0.99229  0.53600  Biso   1.000  H
  H130     1.0000 0.08072  0.62648  0.70750  Biso   1.000  H
  H131     1.0000 0.18849  0.64612  0.71839  Biso   1.000  H
  H132     1.0000 0.14771  0.80071  0.73021  Biso   1.000  H
  H133     1.0000 0.10441  0.73370  0.76648  Biso   1.000  H
  H134     1.0000 0.96847  0.00623  0.56098  Biso   1.000  H
  H135     1.0000 0.03840  0.08068  0.58011  Biso   1.000  H
  C55      1.0000 0.18506  0.32480  0.43195  Biso   1.000  C
  C56      1.0000 0.23586  0.29605  0.39025  Biso   1.000  C
  H136     1.0000 0.18969  0.27662  0.45459  Biso   1.000  H
  H137     1.0000 0.21603  0.37881  0.44431  Biso   1.000  H
  N25      1.0000 0.08416  0.34517  0.42358  Biso   1.000  N
  N26      1.0000 0.20531  0.20834  0.37364  Biso   1.000  N
  H138     1.0000 0.22570  0.34142  0.36661  Biso   1.000  H
  H139     1.0000 0.30390  0.29371  0.39658  Biso   1.000  H
  C57      1.0000 0.03861  0.39007  0.46259  Biso   1.000  C
  H140     1.0000 0.07813  0.37848  0.39889  Biso   1.000  H
  H141     1.0000 0.04912  0.29552  0.41788  Biso   1.000  H
  C58      1.0000 0.25380  0.18515  0.33168  Biso   1.000  C
  H142     1.0000 0.21799  0.17041  0.39431  Biso   1.000  H
  H143     1.0000 0.07133  0.44710  0.46909  Biso   1.000  H
  H144     1.0000 0.04373  0.35120  0.48928  Biso   1.000  H
  C59      1.0000 0.93679  0.40856  0.45281  Biso   1.000  C
  C60      1.0000 0.23306  0.09040  0.31705  Biso   1.000  C
  H145     1.0000 0.32219  0.19219  0.33600  Biso   1.000  H
  H146     1.0000 0.23390  0.22717  0.30790  Biso   1.000  H
  H147     1.0000 0.90708  0.43490  0.47971  Biso   1.000  H
  H148     1.0000 0.93231  0.45313  0.42830  Biso   1.000  H
  N27      1.0000 0.88543  0.32694  0.43985  Biso   1.000  N
  N28      1.0000 0.13475  0.07746  0.30335  Biso   1.000  N
  H149     1.0000 0.27447  0.07472  0.29159  Biso   1.000  H
  H150     1.0000 0.24749  0.04898  0.34200  Biso   1.000  H
  C61      1.0000 0.86469  0.27240  0.48021  Biso   1.000  C
  C62      1.0000 0.79791  0.35120  0.41688  Biso   1.000  C
  C63      1.0000 0.11905  0.11017  0.25743  Biso   1.000  C
  C64      1.0000 0.10707  0.98271  0.30760  Biso   1.000  C
  C65      1.0000 0.84031  0.17590  0.46942  Biso   1.000  C
  H151     1.0000 0.81158  0.30001  0.49648  Biso   1.000  H
  H152     1.0000 0.91991  0.27340  0.50030  Biso   1.000  H
  C66      1.0000 0.81361  0.37908  0.36889  Biso   1.000  C
  H153     1.0000 0.76750  0.40113  0.43319  Biso   1.000  H
  H154     1.0000 0.75482  0.29927  0.41748  Biso   1.000  H
  H155     1.0000 0.13692  0.06252  0.23600  Biso   1.000  H
  H156     1.0000 0.16033  0.16230  0.25191  Biso   1.000  H
  C67      1.0000 0.01836  0.13744  0.24856  Biso   1.000  C
  H157     1.0000 0.15843  0.94418  0.29628  Biso   1.000  H
  H158     1.0000 0.05101  0.97159  0.28888  Biso   1.000  H
  C68      1.0000 0.08563  0.95778  0.35556  Biso   1.000  C
  N29      1.0000 0.91823  0.13047  0.44682  Biso   1.000  N
  H159     1.0000 0.82510  0.14367  0.49749  Biso   1.000  H
  H160     1.0000 0.78418  0.17443  0.44990  Biso   1.000  H
  N30      1.0000 0.85313  0.30322  0.34200  Biso   1.000  N
  H161     1.0000 0.75342  0.39851  0.35559  Biso   1.000  H
  H162     1.0000 0.85740  0.43048  0.36798  Biso   1.000  H
  H163     1.0000 0.01079  0.15232  0.21641  Biso   1.000  H
  H164     1.0000 0.97618  0.08671  0.25559  Biso   1.000  H
  N31      1.0000 0.99194  0.21537  0.27582  Biso   1.000  N
  N32      1.0000 0.00329  0.00945  0.37247  Biso   1.000  N
  H165     1.0000 0.07217  0.89278  0.35740  Biso   1.000  H
  H166     1.0000 0.14092  0.97052  0.37458  Biso   1.000  H
  C69      1.0000 0.89440  0.03692  0.43657  Biso   1.000  C
  H167     1.0000 0.93049  0.16083  0.42251  Biso   1.000  H
  C70      1.0000 0.86960  0.32735  0.29407  Biso   1.000  C
  H168     1.0000 0.90701  0.28439  0.35469  Biso   1.000  H
  H169     1.0000 0.81137  0.25551  0.34471  Biso   1.000  H
  H170     1.0000 0.02803  0.25531  0.27080  Biso   1.000  H
  C71      1.0000 0.89797  0.24841  0.26544  Biso   1.000  C
  H171     1.0000 0.01528  0.07297  0.37100  Biso   1.000  H
  C72      1.0000 0.97709  0.98392  0.41909  Biso   1.000  C
  H172     1.0000 0.95599  0.00141  0.35519  Biso   1.000  H
  H173     1.0000 0.84367  0.03592  0.41390  Biso   1.000  H
  H174     1.0000 0.87030  0.00771  0.46400  Biso   1.000  H
  H175     1.0000 0.91928  0.37352  0.29250  Biso   1.000  H
  H176     1.0000 0.81151  0.35388  0.28158  Biso   1.000  H
  H177     1.0000 0.85229  0.19929  0.26979  Biso   1.000  H
  H178     1.0000 0.89559  0.26630  0.23349  Biso   1.000  H
  H179     1.0000 0.96160  0.91932  0.41989  Biso   1.000  H
  H180     1.0000 0.03153  0.99377  0.43898  Biso   1.000  H
  C73      1.0000 0.60206  0.75152  0.76544  Biso   1.000  C
  N33      1.0000 0.50809  0.78463  0.77582  Biso   1.000  N
  H181     1.0000 0.64768  0.80071  0.76979  Biso   1.000  H
  H182     1.0000 0.60437  0.73370  0.73349  Biso   1.000  H
  C74      1.0000 0.63044  0.67265  0.79407  Biso   1.000  C
  C75      1.0000 0.48168  0.86256  0.74853  Biso   1.000  C
  H183     1.0000 0.47201  0.74469  0.77080  Biso   1.000  H
  H184     1.0000 0.58069  0.62648  0.79250  Biso   1.000  H
  H185     1.0000 0.68853  0.64612  0.78158  Biso   1.000  H
  N34      1.0000 0.64684  0.69671  0.84200  Biso   1.000  N
  C76      1.0000 0.38098  0.88983  0.75743  Biso   1.000  C
  H186     1.0000 0.48917  0.84768  0.71638  Biso   1.000  H
  H187     1.0000 0.52379  0.91329  0.75559  Biso   1.000  H
  C77      1.0000 0.68643  0.62092  0.86885  Biso   1.000  C
  H188     1.0000 0.59302  0.71561  0.85469  Biso   1.000  H
  H189     1.0000 0.68860  0.74449  0.84468  Biso   1.000  H
  N35      1.0000 0.36522  0.92254  0.80335  Biso   1.000  N
  H190     1.0000 0.36311  0.93748  0.73600  Biso   1.000  H
  H191     1.0000 0.33971  0.83770  0.75191  Biso   1.000  H
  H192     1.0000 0.74662  0.60149  0.85559  Biso   1.000  H
  H193     1.0000 0.64263  0.56952  0.86798  Biso   1.000  H
  C78      1.0000 0.70205  0.64880  0.91688  Biso   1.000  C
  C79      1.0000 0.26697  0.90960  0.81705  Biso   1.000  C
  C80      1.0000 0.39289  0.01722  0.80760  Biso   1.000  C
  N36      1.0000 0.61460  0.67306  0.93985  Biso   1.000  N
  H194     1.0000 0.73253  0.59887  0.93319  Biso   1.000  H
  H195     1.0000 0.74522  0.70066  0.91748  Biso   1.000  H
  H196     1.0000 0.22549  0.92528  0.79159  Biso   1.000  H
  H197     1.0000 0.25247  0.95102  0.84200  Biso   1.000  H
  C81      1.0000 0.24623  0.81485  0.83168  Biso   1.000  C
  H198     1.0000 0.34160  0.05582  0.79628  Biso   1.000  H
  H199     1.0000 0.44902  0.02841  0.78888  Biso   1.000  H
  C82      1.0000 0.41434  0.04222  0.85556  Biso   1.000  C
  C83      1.0000 0.56324  0.59144  0.95281  Biso   1.000  C
  C84      1.0000 0.63534  0.72760  0.98021  Biso   1.000  C
  H200     1.0000 0.17777  0.80781  0.83600  Biso   1.000  H
  H201     1.0000 0.26613  0.77277  0.80790  Biso   1.000  H
  N37      1.0000 0.29465  0.79166  0.87364  Biso   1.000  N
  N38      1.0000 0.49667  0.99055  0.87244  Biso   1.000  N
  H202     1.0000 0.42779  0.10722  0.85740  Biso   1.000  H
  H203     1.0000 0.35912  0.02948  0.87458  Biso   1.000  H
  C85      1.0000 0.46136  0.60993  0.96256  Biso   1.000  C
  H204     1.0000 0.59288  0.56510  0.97971  Biso   1.000  H
  H205     1.0000 0.56772  0.54687  0.92830  Biso   1.000  H
  C86      1.0000 0.65966  0.82410  0.96942  Biso   1.000  C
  H206     1.0000 0.68839  0.69999  0.99648  Biso   1.000  H
  H207     1.0000 0.58013  0.72660  0.00030  Biso   1.000  H
  C87      1.0000 0.26410  0.70395  0.89025  Biso   1.000  C
  H208     1.0000 0.28197  0.82959  0.89431  Biso   1.000  H
  H209     1.0000 0.54397  0.99859  0.85519  Biso   1.000  H
  H210     1.0000 0.48469  0.92696  0.87100  Biso   1.000  H
  C88      1.0000 0.52295  0.01608  0.91909  Biso   1.000  C
  N39      1.0000 0.41588  0.65483  0.92358  Biso   1.000  N
  H211     1.0000 0.42870  0.55290  0.96909  Biso   1.000  H
  H212     1.0000 0.45631  0.64880  0.98928  Biso   1.000  H
  N40      1.0000 0.58174  0.86946  0.94682  Biso   1.000  N
  H213     1.0000 0.67487  0.85626  0.99749  Biso   1.000  H
  H214     1.0000 0.71579  0.82557  0.94990  Biso   1.000  H
  H215     1.0000 0.27433  0.65858  0.86658  Biso   1.000  H
  H216     1.0000 0.19613  0.70629  0.89658  Biso   1.000  H
  C89      1.0000 0.31490  0.67520  0.93195  Biso   1.000  C
  C90      1.0000 0.60563  0.96308  0.93654  Biso   1.000  C
  H217     1.0000 0.46850  0.00623  0.93898  Biso   1.000  H
  H218     1.0000 0.53843  0.08068  0.91989  Biso   1.000  H
  H219     1.0000 0.42190  0.62152  0.89889  Biso   1.000  H
  H220     1.0000 0.45091  0.70448  0.91788  Biso   1.000  H
  H221     1.0000 0.56948  0.83917  0.92251  Biso   1.000  H
  H222     1.0000 0.31028  0.72338  0.95459  Biso   1.000  H
  H223     1.0000 0.28400  0.62119  0.94431  Biso   1.000  H
  H224     1.0000 0.65630  0.96408  0.91390  Biso   1.000  H
  H225     1.0000 0.62967  0.99229  0.96400  Biso   1.000  H
  C91      1.0000 0.39794  0.24841  0.23456  Biso   1.000  C
  N41      1.0000 0.49191  0.21537  0.22415  Biso   1.000  N
  H226     1.0000 0.35232  0.19929  0.23021  Biso   1.000  H
  H227     1.0000 0.39563  0.26630  0.26651  Biso   1.000  H
  C92      1.0000 0.36956  0.32735  0.20593  Biso   1.000  C
  C93      1.0000 0.51832  0.13744  0.25144  Biso   1.000  C
  H228     1.0000 0.52799  0.25531  0.22920  Biso   1.000  H
  H229     1.0000 0.41931  0.37352  0.20750  Biso   1.000  H
  H230     1.0000 0.31147  0.35388  0.21839  Biso   1.000  H
  N42      1.0000 0.35316  0.30322  0.15800  Biso   1.000  N
  C94      1.0000 0.61902  0.11017  0.24257  Biso   1.000  C
  H231     1.0000 0.51083  0.15232  0.28359  Biso   1.000  H
  H232     1.0000 0.47621  0.08671  0.24441  Biso   1.000  H
  C95      1.0000 0.31357  0.37908  0.13111  Biso   1.000  C
  H233     1.0000 0.40698  0.28439  0.14531  Biso   1.000  H
  H234     1.0000 0.31140  0.25551  0.15529  Biso   1.000  H
  N43      1.0000 0.63478  0.07746  0.19665  Biso   1.000  N
  H235     1.0000 0.63689  0.06252  0.26400  Biso   1.000  H
  H236     1.0000 0.66029  0.16230  0.24809  Biso   1.000  H
  H237     1.0000 0.25338  0.39851  0.14441  Biso   1.000  H
  H238     1.0000 0.35737  0.43048  0.13198  Biso   1.000  H
  C96      1.0000 0.29795  0.35120  0.08312  Biso   1.000  C
  C97      1.0000 0.73303  0.09040  0.18295  Biso   1.000  C
  C98      1.0000 0.60711  0.98271  0.19236  Biso   1.000  C
  N44      1.0000 0.38540  0.32694  0.06015  Biso   1.000  N
  H239     1.0000 0.26747  0.40113  0.06681  Biso   1.000  H
  H240     1.0000 0.25478  0.29927  0.08248  Biso   1.000  H
  H241     1.0000 0.77451  0.07472  0.20841  Biso   1.000  H
  H242     1.0000 0.74753  0.04898  0.15800  Biso   1.000  H
  C99      1.0000 0.75377  0.18515  0.16829  Biso   1.000  C
  H243     1.0000 0.65840  0.94418  0.20368  Biso   1.000  H
  H244     1.0000 0.55098  0.97159  0.21109  Biso   1.000  H
  C100     1.0000 0.58566  0.95778  0.14444  Biso   1.000  C
  C101     1.0000 0.43676  0.40856  0.04719  Biso   1.000  C
  C102     1.0000 0.36466  0.27240  0.01979  Biso   1.000  C
  H245     1.0000 0.82223  0.19219  0.16400  Biso   1.000  H
  H246     1.0000 0.73387  0.22717  0.19210  Biso   1.000  H
  N45      1.0000 0.70535  0.20834  0.12636  Biso   1.000  N
  N46      1.0000 0.50333  0.00945  0.12753  Biso   1.000  N
  H247     1.0000 0.57221  0.89278  0.14260  Biso   1.000  H
  H248     1.0000 0.64088  0.97052  0.12539  Biso   1.000  H
  C103     1.0000 0.53864  0.39007  0.03741  Biso   1.000  C
  H249     1.0000 0.40712  0.43490  0.02029  Biso   1.000  H
  H250     1.0000 0.43228  0.45313  0.07170  Biso   1.000  H
  C104     1.0000 0.34034  0.17590  0.03058  Biso   1.000  C
  H251     1.0000 0.31161  0.30001  0.00352  Biso   1.000  H
  H252     1.0000 0.41987  0.27340  0.99970  Biso   1.000  H
  C105     1.0000 0.73590  0.29605  0.10975  Biso   1.000  C
  H253     1.0000 0.71803  0.17041  0.10569  Biso   1.000  H
  H254     1.0000 0.45603  0.00141  0.14481  Biso   1.000  H
  H255     1.0000 0.51531  0.07297  0.12900  Biso   1.000  H
  C106     1.0000 0.47705  0.98392  0.08091  Biso   1.000  C
  N47      1.0000 0.58412  0.34517  0.07642  Biso   1.000  N
  H256     1.0000 0.57130  0.44710  0.03091  Biso   1.000  H
  H257     1.0000 0.54369  0.35120  0.01068  Biso   1.000  H
  N48      1.0000 0.41826  0.13047  0.05318  Biso   1.000  N
  H258     1.0000 0.32513  0.14367  0.00251  Biso   1.000  H
  H259     1.0000 0.28421  0.17443  0.05010  Biso   1.000  H
  H260     1.0000 0.72567  0.34142  0.13339  Biso   1.000  H
  H261     1.0000 0.80387  0.29371  0.10338  Biso   1.000  H
  C107     1.0000 0.68510  0.32480  0.06805  Biso   1.000  C
  C108     1.0000 0.39437  0.03692  0.06343  Biso   1.000  C
  H262     1.0000 0.53150  0.99377  0.06098  Biso   1.000  H
  H263     1.0000 0.46157  0.91932  0.08011  Biso   1.000  H
  H264     1.0000 0.57810  0.37848  0.10111  Biso   1.000  H
  H265     1.0000 0.54909  0.29552  0.08208  Biso   1.000  H
  H266     1.0000 0.43052  0.16083  0.07749  Biso   1.000  H
  H267     1.0000 0.68972  0.27662  0.04541  Biso   1.000  H
  H268     1.0000 0.71600  0.37881  0.05569  Biso   1.000  H
  H269     1.0000 0.34370  0.03592  0.08610  Biso   1.000  H
  H270     1.0000 0.37033  0.00771  0.03600  Biso   1.000  H
  C109     1.0000 0.88095  0.61020  0.24257  Biso   1.000  C
  N49      1.0000 0.86525  0.57743  0.19665  Biso   1.000  N
  H271     1.0000 0.86308  0.56249  0.26400  Biso   1.000  H
  H272     1.0000 0.83967  0.66227  0.24809  Biso   1.000  H
  C110     1.0000 0.98164  0.63747  0.25144  Biso   1.000  C
  C111     1.0000 0.76694  0.59036  0.18295  Biso   1.000  C
  C112     1.0000 0.89293  0.48274  0.19236  Biso   1.000  C
  H273     1.0000 0.98921  0.65228  0.28359  Biso   1.000  H
  H274     1.0000 0.02382  0.58668  0.24441  Biso   1.000  H
  N50      1.0000 0.00806  0.71534  0.22415  Biso   1.000  N
  H275     1.0000 0.72553  0.57468  0.20841  Biso   1.000  H
  H276     1.0000 0.75251  0.54902  0.15800  Biso   1.000  H
  C113     1.0000 0.74620  0.68518  0.16829  Biso   1.000  C
  H277     1.0000 0.84157  0.44421  0.20368  Biso   1.000  H
  H278     1.0000 0.94899  0.47162  0.21109  Biso   1.000  H
  C114     1.0000 0.91437  0.45782  0.14444  Biso   1.000  C
  H279     1.0000 0.97197  0.75528  0.22920  Biso   1.000  H
  C115     1.0000 0.10203  0.74844  0.23456  Biso   1.000  C
  H280     1.0000 0.67781  0.69222  0.16400  Biso   1.000  H
  H281     1.0000 0.76610  0.72720  0.19210  Biso   1.000  H
  N51      1.0000 0.79469  0.70830  0.12636  Biso   1.000  N
  H282     1.0000 0.92783  0.39282  0.14260  Biso   1.000  H
  H283     1.0000 0.85908  0.47048  0.12539  Biso   1.000  H
  N52      1.0000 0.99671  0.50941  0.12753  Biso   1.000  N
  H284     1.0000 0.14771  0.69932  0.23021  Biso   1.000  H
  H285     1.0000 0.10441  0.76627  0.26651  Biso   1.000  H
  C116     1.0000 0.13040  0.82738  0.20593  Biso   1.000  C
  C117     1.0000 0.76414  0.79602  0.10975  Biso   1.000  C
  H286     1.0000 0.78201  0.67037  0.10569  Biso   1.000  H
  H287     1.0000 0.98472  0.57301  0.12900  Biso   1.000  H
  C118     1.0000 0.02291  0.48388  0.08091  Biso   1.000  C
  H288     1.0000 0.04401  0.50137  0.14481  Biso   1.000  H
  H289     1.0000 0.08072  0.87348  0.20750  Biso   1.000  H
  H290     1.0000 0.18849  0.85392  0.21839  Biso   1.000  H
  N53      1.0000 0.14687  0.80326  0.15800  Biso   1.000  N
  H291     1.0000 0.77430  0.84139  0.13339  Biso   1.000  H
  H292     1.0000 0.69610  0.79367  0.10338  Biso   1.000  H
  C119     1.0000 0.81494  0.82483  0.06805  Biso   1.000  C
  H293     1.0000 0.96847  0.49380  0.06098  Biso   1.000  H
  H294     1.0000 0.03840  0.41929  0.08011  Biso   1.000  H
  C120     1.0000 0.10560  0.53689  0.06343  Biso   1.000  C
  C121     1.0000 0.18639  0.87905  0.13111  Biso   1.000  C
  H295     1.0000 0.09299  0.78436  0.14531  Biso   1.000  H
  H296     1.0000 0.18863  0.75548  0.15529  Biso   1.000  H
  H297     1.0000 0.81031  0.77659  0.04541  Biso   1.000  H
  H298     1.0000 0.78397  0.87878  0.05569  Biso   1.000  H
  N54      1.0000 0.91584  0.84514  0.07642  Biso   1.000  N
  H299     1.0000 0.15633  0.53588  0.08610  Biso   1.000  H
  H300     1.0000 0.12970  0.50767  0.03600  Biso   1.000  H
  N55      1.0000 0.08177  0.63050  0.05318  Biso   1.000  N
  H301     1.0000 0.24658  0.89848  0.14441  Biso   1.000  H
  H302     1.0000 0.14260  0.93051  0.13198  Biso   1.000  H
  C122     1.0000 0.20209  0.85117  0.08312  Biso   1.000  C
  C123     1.0000 0.96139  0.89004  0.03741  Biso   1.000  C
  H303     1.0000 0.92187  0.87851  0.10111  Biso   1.000  H
  H304     1.0000 0.95088  0.79548  0.08208  Biso   1.000  H
  C124     1.0000 0.15969  0.67587  0.03058  Biso   1.000  C
  H305     1.0000 0.06951  0.66079  0.07749  Biso   1.000  H
  N56      1.0000 0.11457  0.82691  0.06015  Biso   1.000  N
  H306     1.0000 0.23250  0.90109  0.06681  Biso   1.000  H
  H307     1.0000 0.24518  0.79930  0.08248  Biso   1.000  H
  H308     1.0000 0.92867  0.94706  0.03091  Biso   1.000  H
  H309     1.0000 0.95627  0.85117  0.01068  Biso   1.000  H
  C125     1.0000 0.06321  0.90860  0.04719  Biso   1.000  C
  H310     1.0000 0.17490  0.64370  0.00251  Biso   1.000  H
  H311     1.0000 0.21582  0.67440  0.05010  Biso   1.000  H
  C126     1.0000 0.13531  0.77243  0.01979  Biso   1.000  C
  H312     1.0000 0.09292  0.93487  0.02029  Biso   1.000  H
  H313     1.0000 0.06769  0.95309  0.07170  Biso   1.000  H
  H314     1.0000 0.08009  0.77337  0.99970  Biso   1.000  H
  H315     1.0000 0.18842  0.79997  0.00352  Biso   1.000  H
  C127     1.0000 0.11905  0.38980  0.75743  Biso   1.000  C
  C128     1.0000 0.01836  0.36253  0.74853  Biso   1.000  C
  N57      1.0000 0.13475  0.42250  0.80335  Biso   1.000  N
  H316     1.0000 0.13692  0.43751  0.73600  Biso   1.000  H
  H317     1.0000 0.16033  0.33767  0.75191  Biso   1.000  H
  H318     1.0000 0.01079  0.34772  0.71638  Biso   1.000  H
  H319     1.0000 0.97618  0.41332  0.75559  Biso   1.000  H
  N58      1.0000 0.99194  0.28459  0.77582  Biso   1.000  N
  C129     1.0000 0.23306  0.40964  0.81705  Biso   1.000  C
  C130     1.0000 0.10707  0.51726  0.80760  Biso   1.000  C
  H320     1.0000 0.02803  0.24472  0.77080  Biso   1.000  H
  C131     1.0000 0.89797  0.25156  0.76544  Biso   1.000  C
  H321     1.0000 0.27447  0.42532  0.79159  Biso   1.000  H
  H322     1.0000 0.24749  0.45098  0.84200  Biso   1.000  H
  C132     1.0000 0.25380  0.31482  0.83168  Biso   1.000  C
  H323     1.0000 0.15843  0.55579  0.79628  Biso   1.000  H
  H324     1.0000 0.05101  0.52838  0.78888  Biso   1.000  H
  C133     1.0000 0.08563  0.54218  0.85556  Biso   1.000  C
  H325     1.0000 0.85229  0.30068  0.76979  Biso   1.000  H
  H326     1.0000 0.89559  0.23367  0.73349  Biso   1.000  H
  C134     1.0000 0.86960  0.17262  0.79407  Biso   1.000  C
  H327     1.0000 0.32219  0.30778  0.83600  Biso   1.000  H
  H328     1.0000 0.23390  0.27280  0.80790  Biso   1.000  H
  N59      1.0000 0.20531  0.29170  0.87364  Biso   1.000  N
  H329     1.0000 0.07217  0.60718  0.85740  Biso   1.000  H
  H330     1.0000 0.14092  0.52952  0.87458  Biso   1.000  H
  N60      1.0000 0.00329  0.49059  0.87244  Biso   1.000  N
  H331     1.0000 0.91928  0.12652  0.79250  Biso   1.000  H
  H332     1.0000 0.81151  0.14608  0.78158  Biso   1.000  H
  N61      1.0000 0.85313  0.19674  0.84200  Biso   1.000  N
  C135     1.0000 0.23586  0.20398  0.89025  Biso   1.000  C
  H333     1.0000 0.21799  0.32963  0.89431  Biso   1.000  H
  H334     1.0000 0.01528  0.42699  0.87100  Biso   1.000  H
  C136     1.0000 0.97709  0.51612  0.91909  Biso   1.000  C
  H335     1.0000 0.95599  0.49863  0.85519  Biso   1.000  H
  C137     1.0000 0.81361  0.12089  0.86885  Biso   1.000  C
  H336     1.0000 0.90701  0.21557  0.85469  Biso   1.000  H
  H337     1.0000 0.81137  0.24452  0.84468  Biso   1.000  H
  H338     1.0000 0.22570  0.15861  0.86658  Biso   1.000  H
  H339     1.0000 0.30390  0.20633  0.89658  Biso   1.000  H
  C138     1.0000 0.18506  0.17517  0.93195  Biso   1.000  C
  H340     1.0000 0.03153  0.50620  0.93898  Biso   1.000  H
  H341     1.0000 0.96160  0.58071  0.91989  Biso   1.000  H
  C139     1.0000 0.89440  0.46304  0.93654  Biso   1.000  C
  H342     1.0000 0.75342  0.10152  0.85559  Biso   1.000  H
  H343     1.0000 0.85740  0.06949  0.86798  Biso   1.000  H
  C140     1.0000 0.79791  0.14876  0.91688  Biso   1.000  C
  H344     1.0000 0.18969  0.22341  0.95459  Biso   1.000  H
  H345     1.0000 0.21603  0.12122  0.94431  Biso   1.000  H
  N62      1.0000 0.08416  0.15486  0.92358  Biso   1.000  N
  H346     1.0000 0.84367  0.46412  0.91390  Biso   1.000  H
  H347     1.0000 0.87030  0.49226  0.96400  Biso   1.000  H
  N63      1.0000 0.91823  0.36950  0.94682  Biso   1.000  N
  N64      1.0000 0.88543  0.17309  0.93985  Biso   1.000  N
  H348     1.0000 0.76750  0.09891  0.93319  Biso   1.000  H
  H349     1.0000 0.75482  0.20070  0.91748  Biso   1.000  H
  C141     1.0000 0.03861  0.10996  0.96256  Biso   1.000  C
  H350     1.0000 0.07813  0.12149  0.89889  Biso   1.000  H
  H351     1.0000 0.04912  0.20452  0.91788  Biso   1.000  H
  C142     1.0000 0.84031  0.32406  0.96942  Biso   1.000  C
  H352     1.0000 0.93049  0.33921  0.92251  Biso   1.000  H
  C143     1.0000 0.93679  0.09140  0.95281  Biso   1.000  C
  C144     1.0000 0.86469  0.22757  0.98021  Biso   1.000  C
  H353     1.0000 0.07133  0.05287  0.96909  Biso   1.000  H
  H354     1.0000 0.04373  0.14883  0.98928  Biso   1.000  H
  H355     1.0000 0.82510  0.35630  0.99749  Biso   1.000  H
  H356     1.0000 0.78418  0.32560  0.94990  Biso   1.000  H
  H357     1.0000 0.90708  0.06507  0.97971  Biso   1.000  H
  H358     1.0000 0.93231  0.04691  0.92830  Biso   1.000  H
  H359     1.0000 0.81158  0.20003  0.99648  Biso   1.000  H
  H360     1.0000 0.91991  0.22663  0.00030  Biso   1.000  H
