data_image0
_cell_length_a       13.04
_cell_length_b       17.921
_cell_length_c       20.669
_cell_angle_alpha    106.48
_cell_angle_beta     96.93
_cell_angle_gamma    100.16

_symmetry_space_group_name_H-M    "P 1"
_symmetry_int_tables_number       1

loop_
  _symmetry_equiv_pos_as_xyz
  'x, y, z'

loop_
  _atom_site_label
  _atom_site_occupancy
  _atom_site_fract_x
  _atom_site_fract_y
  _atom_site_fract_z
  _atom_site_thermal_displace_type
  _atom_site_B_iso_or_equiv
  _atom_site_type_symbol
  C1       1.0000 0.69604  0.82206  0.45257  Biso   1.000  C
  N1       1.0000 0.60505  0.83214  0.40912  Biso   1.000  N
  H1       1.0000 0.71835  0.86853  0.49469  Biso   1.000  H
  H2       1.0000 0.67549  0.77367  0.46622  Biso   1.000  H
  C2       1.0000 0.78717  0.81463  0.41399  Biso   1.000  C
  C3       1.0000 0.51370  0.84358  0.44344  Biso   1.000  C
  H3       1.0000 0.58204  0.79032  0.37388  Biso   1.000  H
  C4       1.0000 0.80706  0.74039  0.38234  Biso   1.000  C
  C5       1.0000 0.84918  0.88164  0.40589  Biso   1.000  C
  C6       1.0000 0.43724  0.87232  0.40019  Biso   1.000  C
  H4       1.0000 0.47821  0.79262  0.44877  Biso   1.000  H
  H5       1.0000 0.53777  0.88335  0.48961  Biso   1.000  H
  H6       1.0000 0.76605  0.69376  0.38742  Biso   1.000  H
  C7       1.0000 0.88576  0.73424  0.34371  Biso   1.000  C
  C8       1.0000 0.92977  0.87599  0.36690  Biso   1.000  C
  H7       1.0000 0.83646  0.93276  0.42738  Biso   1.000  H
  C9       1.0000 0.35818  0.82023  0.34915  Biso   1.000  C
  C10      1.0000 0.45241  0.95318  0.40666  Biso   1.000  C
  H8       1.0000 0.89805  0.68311  0.32201  Biso   1.000  H
  C11      1.0000 0.94645  0.80052  0.33607  Biso   1.000  C
  C12      1.0000 0.99124  0.94811  0.35428  Biso   1.000  C
  C13      1.0000 0.29919  0.84735  0.30344  Biso   1.000  C
  H9       1.0000 0.34362  0.76504  0.34499  Biso   1.000  H
  C14      1.0000 0.39329  0.97992  0.36162  Biso   1.000  C
  H10      1.0000 0.50443  0.99061  0.44277  Biso   1.000  H
  H11      1.0000 0.00063  0.79493  0.30929  Biso   1.000  H
  H12      1.0000 0.94277  0.96765  0.32550  Biso   1.000  H
  H13      1.0000 0.04675  0.93204  0.32812  Biso   1.000  H
  N2       1.0000 0.04154  0.01371  0.41707  Biso   1.000  N
  C15      1.0000 0.31748  0.92689  0.30831  Biso   1.000  C
  H14      1.0000 0.24527  0.81021  0.26830  Biso   1.000  H
  H15      1.0000 0.40471  0.03542  0.36741  Biso   1.000  H
  H16      1.0000 0.98495  0.02715  0.44098  Biso   1.000  H
  C16      1.0000 0.09225  0.08706  0.40317  Biso   1.000  C
  C17      1.0000 0.26075  0.95501  0.25430  Biso   1.000  C
  H17      1.0000 0.11916  0.12942  0.44770  Biso   1.000  H
  H18      1.0000 0.15433  0.07622  0.38188  Biso   1.000  H
  C18      1.0000 0.02435  0.11935  0.35767  Biso   1.000  C
  N3       1.0000 0.33567  0.98297  0.21402  Biso   1.000  N
  H19      1.0000 0.22775  0.99892  0.27671  Biso   1.000  H
  H20      1.0000 0.20389  0.91051  0.22352  Biso   1.000  H
  C19      1.0000 0.94862  0.15955  0.38188  Biso   1.000  C
  C20      1.0000 0.03665  0.11083  0.29046  Biso   1.000  C
  C21      1.0000 0.36829  0.91854  0.16632  Biso   1.000  C
  H21      1.0000 0.30300  0.01103  0.18889  Biso   1.000  H
  C22      1.0000 0.88547  0.18857  0.34094  Biso   1.000  C
  H22      1.0000 0.93966  0.16743  0.42810  Biso   1.000  H
  C23      1.0000 0.97347  0.13966  0.24917  Biso   1.000  C
  H23      1.0000 0.08929  0.08464  0.27251  Biso   1.000  H
  C24      1.0000 0.44674  0.94678  0.12574  Biso   1.000  C
  H24      1.0000 0.40017  0.88713  0.19238  Biso   1.000  H
  H25      1.0000 0.30474  0.88270  0.13410  Biso   1.000  H
  C25      1.0000 0.89577  0.17850  0.27323  Biso   1.000  C
  H26      1.0000 0.83435  0.21585  0.35941  Biso   1.000  H
  H27      1.0000 0.98340  0.13272  0.20320  Biso   1.000  H
  C26      1.0000 0.46857  0.89255  0.06879  Biso   1.000  C
  C27      1.0000 0.50250  0.02519  0.14544  Biso   1.000  C
  C28      1.0000 0.81759  0.19927  0.22505  Biso   1.000  C
  C29      1.0000 0.54486  0.91575  0.03370  Biso   1.000  C
  H28      1.0000 0.43004  0.83860  0.05402  Biso   1.000  H
  H29      1.0000 0.48674  0.06335  0.18309  Biso   1.000  H
  C30      1.0000 0.58159  0.04932  0.11101  Biso   1.000  C
  N4       1.0000 0.73223  0.12899  0.19540  Biso   1.000  N
  H30      1.0000 0.85167  0.21351  0.18868  Biso   1.000  H
  H31      1.0000 0.79021  0.24512  0.25029  Biso   1.000  H
  C31      1.0000 0.60177  0.99379  0.05474  Biso   1.000  C
  H32      1.0000 0.55860  0.87809  0.99492  Biso   1.000  H
  C32      1.0000 0.65028  0.13193  0.14010  Biso   1.000  C
  H33      1.0000 0.76903  0.09221  0.17781  Biso   1.000  H
  H34      1.0000 0.65480  0.00951  0.03057  Biso   1.000  H
  H35      1.0000 0.60778  0.17083  0.15888  Biso   1.000  H
  H36      1.0000 0.68392  0.14780  0.10419  Biso   1.000  H
  C33      1.0000 0.30397  0.17798  0.54742  Biso   1.000  C
  N5       1.0000 0.39498  0.16796  0.59088  Biso   1.000  N
  H37      1.0000 0.28166  0.13151  0.50531  Biso   1.000  H
  H38      1.0000 0.32461  0.22643  0.53378  Biso   1.000  H
  C34      1.0000 0.21294  0.18546  0.58600  Biso   1.000  C
  H39      1.0000 0.41796  0.20970  0.62607  Biso   1.000  H
  C35      1.0000 0.48641  0.15652  0.55656  Biso   1.000  C
  C36      1.0000 0.19305  0.25971  0.61765  Biso   1.000  C
  C37      1.0000 0.15091  0.11840  0.59411  Biso   1.000  C
  C38      1.0000 0.56279  0.12778  0.59980  Biso   1.000  C
  H40      1.0000 0.52179  0.20740  0.55117  Biso   1.000  H
  H41      1.0000 0.46226  0.11674  0.51039  Biso   1.000  H
  H42      1.0000 0.23398  0.30634  0.61258  Biso   1.000  H
  C39      1.0000 0.11435  0.26585  0.65628  Biso   1.000  C
  C40      1.0000 0.07033  0.12410  0.63310  Biso   1.000  C
  H43      1.0000 0.16356  0.06734  0.57261  Biso   1.000  H
  C41      1.0000 0.64191  0.17981  0.65085  Biso   1.000  C
  C42      1.0000 0.54770  0.04691  0.59334  Biso   1.000  C
  H44      1.0000 0.10205  0.31693  0.67798  Biso   1.000  H
  C43      1.0000 0.05358  0.19958  0.66393  Biso   1.000  C
  C44      1.0000 0.00879  0.05198  0.64572  Biso   1.000  C
  C45      1.0000 0.70092  0.15275  0.69655  Biso   1.000  C
  H45      1.0000 0.65641  0.23506  0.65500  Biso   1.000  H
  H46      1.0000 0.49557  0.00941  0.55717  Biso   1.000  H
  C46      1.0000 0.60680  0.02016  0.63833  Biso   1.000  C
  H47      1.0000 0.99939  0.20516  0.69071  Biso   1.000  H
  H48      1.0000 0.05726  0.03244  0.67450  Biso   1.000  H
  N6       1.0000 0.95848  0.98633  0.58292  Biso   1.000  N
  H49      1.0000 0.95320  0.06806  0.67188  Biso   1.000  H
  C47      1.0000 0.68261  0.07319  0.69163  Biso   1.000  C
  H50      1.0000 0.75474  0.18983  0.73170  Biso   1.000  H
  H51      1.0000 0.59530  0.96462  0.63258  Biso   1.000  H
  C48      1.0000 0.90778  0.91303  0.59683  Biso   1.000  C
  H52      1.0000 0.01508  0.97295  0.55902  Biso   1.000  H
  C49      1.0000 0.73926  0.04503  0.74570  Biso   1.000  C
  H53      1.0000 0.88086  0.87062  0.55230  Biso   1.000  H
  H54      1.0000 0.84568  0.92382  0.61812  Biso   1.000  H
  C50      1.0000 0.97567  0.88069  0.64233  Biso   1.000  C
  N7       1.0000 0.66434  0.01711  0.78592  Biso   1.000  N
  H55      1.0000 0.77226  0.00112  0.72328  Biso   1.000  H
  H56      1.0000 0.79620  0.08953  0.77648  Biso   1.000  H
  C51      1.0000 0.96336  0.88921  0.70953  Biso   1.000  C
  C52      1.0000 0.05148  0.84049  0.61812  Biso   1.000  C
  C53      1.0000 0.63180  0.08154  0.83363  Biso   1.000  C
  H57      1.0000 0.69703  0.98907  0.81111  Biso   1.000  H
  H58      1.0000 0.91081  0.91546  0.72749  Biso   1.000  H
  C54      1.0000 0.02655  0.86044  0.75083  Biso   1.000  C
  H59      1.0000 0.06036  0.83261  0.57189  Biso   1.000  H
  C55      1.0000 0.11455  0.81153  0.65905  Biso   1.000  C
  C56      1.0000 0.55328  0.05332  0.87426  Biso   1.000  C
  H60      1.0000 0.59985  0.11295  0.80757  Biso   1.000  H
  H61      1.0000 0.69527  0.11734  0.86590  Biso   1.000  H
  C57      1.0000 0.10426  0.82160  0.72677  Biso   1.000  C
  H62      1.0000 0.01661  0.86732  0.79680  Biso   1.000  H
  H63      1.0000 0.16576  0.78425  0.64059  Biso   1.000  H
  C58      1.0000 0.53146  0.10755  0.93120  Biso   1.000  C
  C59      1.0000 0.49753  0.97491  0.85456  Biso   1.000  C
  C60      1.0000 0.18242  0.80080  0.77489  Biso   1.000  C
  C61      1.0000 0.45517  0.08435  0.96629  Biso   1.000  C
  H64      1.0000 0.56997  0.16144  0.94598  Biso   1.000  H
  H65      1.0000 0.51337  0.93675  0.81690  Biso   1.000  H
  C62      1.0000 0.41842  0.95073  0.88898  Biso   1.000  C
  N8       1.0000 0.26787  0.87111  0.80459  Biso   1.000  N
  H66      1.0000 0.14835  0.78653  0.81131  Biso   1.000  H
  H67      1.0000 0.20981  0.75492  0.74970  Biso   1.000  H
  C63      1.0000 0.39824  0.00625  0.94526  Biso   1.000  C
  H68      1.0000 0.44150  0.12201  0.00507  Biso   1.000  H
  C64      1.0000 0.34975  0.86817  0.85989  Biso   1.000  C
  H69      1.0000 0.23106  0.90783  0.82219  Biso   1.000  H
  H70      1.0000 0.34522  0.99057  0.96937  Biso   1.000  H
  H71      1.0000 0.39223  0.82925  0.84107  Biso   1.000  H
  H72      1.0000 0.31617  0.85224  0.89580  Biso   1.000  H
  Ne1      1.0000 0.32038  0.03206  0.70841  Biso   1.000  Ne
  He1      1.0000 0.31388  0.05628  0.73675  Biso   1.000  He
  He2      1.0000 0.39443  0.88288  0.66891  Biso   1.000  He
  Ar1      1.0000 0.32468  0.02987  0.71131  Biso   1.000  Ar
  Ne2      1.0000 0.67967  0.96802  0.29157  Biso   1.000  Ne
  He3      1.0000 0.69824  0.08543  0.41974  Biso   1.000  He
  He4      1.0000 0.68666  0.95191  0.26921  Biso   1.000  He
  Ar2      1.0000 0.67539  0.97021  0.28868  Biso   1.000  Ar
