data_image0
_cell_length_a       10.502
_cell_length_b       29.658
_cell_length_c       19.9
_cell_angle_alpha    90
_cell_angle_beta     102.95
_cell_angle_gamma    90

_symmetry_space_group_name_H-M    "P 1"
_symmetry_int_tables_number       1

loop_
  _symmetry_equiv_pos_as_xyz
  'x, y, z'

loop_
  _atom_site_label
  _atom_site_occupancy
  _atom_site_fract_x
  _atom_site_fract_y
  _atom_site_fract_z
  _atom_site_thermal_displace_type
  _atom_site_B_iso_or_equiv
  _atom_site_type_symbol
  C1       1.0000 0.69366  0.36843  0.62535  Biso   1.000  C
  C2       1.0000 0.54566  0.37103  0.61586  Biso   1.000  C
  C3       1.0000 0.77125  0.40397  0.61164  Biso   1.000  C
  C4       1.0000 0.75492  0.32753  0.64830  Biso   1.000  C
  C5       1.0000 0.47541  0.35471  0.54507  Biso   1.000  C
  H1       1.0000 0.51865  0.35238  0.65160  Biso   1.000  H
  H2       1.0000 0.52007  0.40259  0.62221  Biso   1.000  H
  C6       1.0000 0.71843  0.45043  0.58905  Biso   1.000  C
  C7       1.0000 0.90672  0.39773  0.62009  Biso   1.000  C
  C8       1.0000 0.88738  0.32204  0.65773  Biso   1.000  C
  H3       1.0000 0.70340  0.30299  0.65748  Biso   1.000  H
  C9       1.0000 0.44933  0.30848  0.53656  Biso   1.000  C
  C10      1.0000 0.44219  0.38280  0.48768  Biso   1.000  C
  C11      1.0000 0.69303  0.45920  0.51176  Biso   1.000  C
  H4       1.0000 0.78138  0.47319  0.61308  Biso   1.000  H
  H5       1.0000 0.63565  0.45478  0.60421  Biso   1.000  H
  H6       1.0000 0.95862  0.42191  0.60978  Biso   1.000  H
  C12      1.0000 0.96567  0.35737  0.64299  Biso   1.000  C
  O1       1.0000 0.94594  0.28215  0.68666  Biso   1.000  O
  C13      1.0000 0.39785  0.28994  0.47273  Biso   1.000  C
  H7       1.0000 0.46756  0.28940  0.57590  Biso   1.000  H
  C14      1.0000 0.39233  0.36341  0.42297  Biso   1.000  C
  C15      1.0000 0.45376  0.43374  0.49093  Biso   1.000  C
  C16      1.0000 0.57101  0.45266  0.46747  Biso   1.000  C
  C17      1.0000 0.79516  0.47623  0.48474  Biso   1.000  C
  O2       1.0000 0.09665  0.34841  0.65366  Biso   1.000  O
  C18      1.0000 0.99165  0.25454  0.63958  Biso   1.000  C
  C19      1.0000 0.37309  0.31789  0.41487  Biso   1.000  C
  O3       1.0000 0.36781  0.24503  0.46097  Biso   1.000  O
  H8       1.0000 0.37113  0.38239  0.38357  Biso   1.000  H
  H9       1.0000 0.45878  0.44349  0.53909  Biso   1.000  H
  H10      1.0000 0.37339  0.44689  0.46200  Biso   1.000  H
  C20      1.0000 0.55353  0.46503  0.39827  Biso   1.000  C
  C21      1.0000 0.77722  0.48786  0.41627  Biso   1.000  C
  H11      1.0000 0.87916  0.47990  0.51439  Biso   1.000  H
  C22      1.0000 0.17858  0.38307  0.63649  Biso   1.000  C
  O4       1.0000 0.88541  0.23147  0.59771  Biso   1.000  O
  H12      1.0000 0.05563  0.23258  0.66490  Biso   1.000  H
  H13      1.0000 0.03586  0.27332  0.61050  Biso   1.000  H
  O5       1.0000 0.32812  0.29618  0.35248  Biso   1.000  O
  C23      1.0000 0.35929  0.21849  0.51939  Biso   1.000  C
  H14      1.0000 0.47044  0.46079  0.36811  Biso   1.000  H
  C24      1.0000 0.65392  0.48331  0.37233  Biso   1.000  C
  O6       1.0000 0.87889  0.50904  0.39378  Biso   1.000  O
  H15      1.0000 0.14578  0.39220  0.58838  Biso   1.000  H
  H16      1.0000 0.26801  0.37170  0.64257  Biso   1.000  H
  H17      1.0000 0.17808  0.40910  0.66671  Biso   1.000  H
  C25      1.0000 0.85460  0.23879  0.52718  Biso   1.000  C
  C26      1.0000 0.27789  0.32133  0.29226  Biso   1.000  C
  H18      1.0000 0.44651  0.21471  0.54899  Biso   1.000  H
  H19      1.0000 0.32266  0.18889  0.50397  Biso   1.000  H
  H20      1.0000 0.30249  0.23360  0.54528  Biso   1.000  H
  O7       1.0000 0.64102  0.49889  0.30608  Biso   1.000  O
  C27      1.0000 0.92478  0.48796  0.33995  Biso   1.000  C
  C28      1.0000 0.94475  0.25103  0.48923  Biso   1.000  C
  C29      1.0000 0.72741  0.22958  0.49361  Biso   1.000  C
  O8       1.0000 0.36314  0.35313  0.27328  Biso   1.000  O
  H21      1.0000 0.25018  0.29999  0.25348  Biso   1.000  H
  H22      1.0000 0.19878  0.33741  0.29860  Biso   1.000  H
  C30      1.0000 0.51041  0.50293  0.26601  Biso   1.000  C
  O9       1.0000 0.03952  0.46315  0.36707  Biso   1.000  O
  H23      1.0000 0.85658  0.46750  0.31412  Biso   1.000  H
  H24      1.0000 0.94322  0.51109  0.30757  Biso   1.000  H
  C31      1.0000 0.90857  0.25531  0.41771  Biso   1.000  C
  H25      1.0000 0.03281  0.25659  0.51228  Biso   1.000  H
  C32      1.0000 0.69257  0.23211  0.42276  Biso   1.000  C
  H26      1.0000 0.66457  0.22159  0.51918  Biso   1.000  H
  C33      1.0000 0.48489  0.34008  0.26400  Biso   1.000  C
  H27      1.0000 0.46942  0.47309  0.26008  Biso   1.000  H
  H28      1.0000 0.51192  0.51561  0.22069  Biso   1.000  H
  H29      1.0000 0.46023  0.52279  0.28978  Biso   1.000  H
  C34      1.0000 0.02721  0.41658  0.36970  Biso   1.000  C
  C35      1.0000 0.78074  0.24503  0.38285  Biso   1.000  C
  C36      1.0000 0.01363  0.27146  0.38146  Biso   1.000  C
  H30      1.0000 0.60543  0.22480  0.40008  Biso   1.000  H
  C37      1.0000 0.54954  0.37295  0.23528  Biso   1.000  C
  C38      1.0000 0.54429  0.29918  0.28323  Biso   1.000  C
  C39      1.0000 0.97051  0.39204  0.31175  Biso   1.000  C
  C40      1.0000 0.08015  0.39467  0.43070  Biso   1.000  C
  C41      1.0000 0.73412  0.24651  0.30489  Biso   1.000  C
  C42      1.0000 0.01560  0.32251  0.37532  Biso   1.000  C
  H31      1.0000 0.99772  0.25801  0.33480  Biso   1.000  H
  H32      1.0000 0.10005  0.26101  0.40760  Biso   1.000  H
  C43      1.0000 0.67451  0.36462  0.22775  Biso   1.000  C
  H33      1.0000 0.50820  0.40090  0.22089  Biso   1.000  H
  C44      1.0000 0.67285  0.29115  0.27767  Biso   1.000  C
  H34      1.0000 0.49735  0.27622  0.30051  Biso   1.000  H
  C45      1.0000 0.96057  0.34524  0.31391  Biso   1.000  C
  H35      1.0000 0.93763  0.40741  0.26952  Biso   1.000  H
  C46      1.0000 0.07532  0.34820  0.43277  Biso   1.000  C
  H36      1.0000 0.11945  0.41129  0.47077  Biso   1.000  H
  H37      1.0000 0.80938  0.24041  0.28390  Biso   1.000  H
  H38      1.0000 0.66936  0.22220  0.29030  Biso   1.000  H
  C47      1.0000 0.73986  0.32463  0.25003  Biso   1.000  C
  H39      1.0000 0.71756  0.38691  0.20671  Biso   1.000  H
  C48      1.0000 0.88391  0.32187  0.24998  Biso   1.000  C
  H40      1.0000 0.11364  0.33320  0.47458  Biso   1.000  H
  H41      1.0000 0.91117  0.28990  0.24982  Biso   1.000  H
  H42      1.0000 0.90064  0.33671  0.20821  Biso   1.000  H
  C49      1.0000 0.72423  0.38388  0.79510  Biso   1.000  C
  O10      1.0000 0.70480  0.39780  0.86058  Biso   1.000  O
  H43      1.0000 0.66340  0.40009  0.75859  Biso   1.000  H
  H44      1.0000 0.70834  0.35141  0.78953  Biso   1.000  H
  H45      1.0000 0.81422  0.39048  0.79221  Biso   1.000  H
  C50      1.0000 0.88545  0.37245  0.80500  Biso   1.000  C
  C51      1.0000 0.70923  0.44255  0.87213  Biso   1.000  C
  O11      1.0000 0.78426  0.38533  0.83758  Biso   1.000  O
  C52      1.0000 0.76462  0.43047  0.85099  Biso   1.000  C
  C53      1.0000 0.68513  0.43971  0.89678  Biso   1.000  C
  O12      1.0000 0.97318  0.34399  0.84635  Biso   1.000  O
  H46      1.0000 0.93183  0.39969  0.79448  Biso   1.000  H
  H47      1.0000 0.84704  0.35710  0.76096  Biso   1.000  H
  C54      1.0000 0.63286  0.45859  0.91720  Biso   1.000  C
  C55      1.0000 0.77497  0.47458  0.84171  Biso   1.000  C
  C56      1.0000 0.65769  0.48270  0.91199  Biso   1.000  C
  C57      1.0000 0.81330  0.46611  0.82098  Biso   1.000  C
  H48      1.0000 0.64948  0.41540  0.91776  Biso   1.000  H
  H49      1.0000 0.02062  0.38152  0.86342  Biso   1.000  H
  C58      1.0000 0.05445  0.36719  0.90431  Biso   1.000  C
  O13      1.0000 0.54909  0.43041  0.94236  Biso   1.000  O
  C59      1.0000 0.62628  0.50421  0.92973  Biso   1.000  C
  H50      1.0000 0.60220  0.48800  0.94298  Biso   1.000  H
  C60      1.0000 0.76684  0.52080  0.85352  Biso   1.000  C
  H51      1.0000 0.82765  0.46460  0.81149  Biso   1.000  H
  C61      1.0000 0.78986  0.51039  0.83800  Biso   1.000  C
  C62      1.0000 0.69265  0.53601  0.89833  Biso   1.000  C
  C63      1.0000 0.70947  0.51949  0.88301  Biso   1.000  C
  H52      1.0000 0.86389  0.46052  0.78788  Biso   1.000  H
  C64      1.0000 0.05622  0.37315  0.96788  Biso   1.000  C
  C65      1.0000 0.03236  0.35731  0.96799  Biso   1.000  C
  C66      1.0000 0.15996  0.39379  0.89781  Biso   1.000  C
  C67      1.0000 0.60248  0.39318  0.98309  Biso   1.000  C
  H53      1.0000 0.57508  0.51430  0.96051  Biso   1.000  H
  C68      1.0000 0.83789  0.55280  0.81139  Biso   1.000  C
  C69      1.0000 0.85740  0.54700  0.80711  Biso   1.000  C
  C70      1.0000 0.67771  0.58517  0.91539  Biso   1.000  C
  C71      1.0000 0.67408  0.56599  0.90147  Biso   1.000  C
  H54      1.0000 0.98600  0.35279  0.96690  Biso   1.000  H
  C72      1.0000 0.07535  0.39018  0.90621  Biso   1.000  C
  C73      1.0000 0.13837  0.38509  0.03332  Biso   1.000  C
  C74      1.0000 0.11183  0.37369  0.02687  Biso   1.000  C
  H55      1.0000 0.96035  0.33869  0.97129  Biso   1.000  H
  O14      1.0000 0.17892  0.43782  0.84537  Biso   1.000  O
  O15      1.0000 0.17258  0.40218  0.83135  Biso   1.000  O
  C75      1.0000 0.24590  0.40846  0.95669  Biso   1.000  C
  H56      1.0000 0.53992  0.36779  0.97479  Biso   1.000  H
  H57      1.0000 0.68389  0.38330  0.97010  Biso   1.000  H
  H58      1.0000 0.61951  0.36429  0.99831  Biso   1.000  H
  O16      1.0000 0.62965  0.40498  0.05291  Biso   1.000  O
  O17      1.0000 0.62572  0.41921  0.05667  Biso   1.000  O
  C76      1.0000 0.58038  0.37440  0.03600  Biso   1.000  C
  C77      1.0000 0.97792  0.56221  0.85099  Biso   1.000  C
  H59      1.0000 0.83954  0.53871  0.76663  Biso   1.000  H
  H60      1.0000 0.78937  0.58160  0.80232  Biso   1.000  H
  C78      1.0000 0.99190  0.56079  0.84759  Biso   1.000  C
  H61      1.0000 0.86525  0.53699  0.76081  Biso   1.000  H
  H62      1.0000 0.80072  0.57401  0.80077  Biso   1.000  H
  H63      1.0000 0.58891  0.58989  0.92333  Biso   1.000  H
  H64      1.0000 0.68546  0.60372  0.87512  Biso   1.000  H
  C79      1.0000 0.77647  0.60183  0.97799  Biso   1.000  C
  C80      1.0000 0.76052  0.58463  0.96577  Biso   1.000  C
  H65      1.0000 0.67723  0.58638  0.86270  Biso   1.000  H
  H66      1.0000 0.58300  0.56561  0.90740  Biso   1.000  H
  C81      1.0000 0.17608  0.42016  0.90910  Biso   1.000  C
  C82      1.0000 0.09046  0.36682  0.10189  Biso   1.000  C
  C83      1.0000 0.23930  0.41537  0.03419  Biso   1.000  C
  C84      1.0000 0.22335  0.39817  0.02197  Biso   1.000  C
  C85      1.0000 0.08262  0.36570  0.09127  Biso   1.000  C
  C86      1.0000 0.28302  0.46584  0.83893  Biso   1.000  C
  C87      1.0000 0.29099  0.42258  0.82428  Biso   1.000  C
  H67      1.0000 0.32055  0.42548  0.95308  Biso   1.000  H
  C88      1.0000 0.76927  0.41719  0.08483  Biso   1.000  C
  C89      1.0000 0.74494  0.42410  0.08179  Biso   1.000  C
  H68      1.0000 0.60559  0.35380  0.07519  Biso   1.000  H
  H69      1.0000 0.48496  0.37460  0.02027  Biso   1.000  H
  C90      1.0000 0.01887  0.60351  0.88868  Biso   1.000  C
  C91      1.0000 0.07692  0.53031  0.84599  Biso   1.000  C
  C92      1.0000 0.00788  0.59721  0.88837  Biso   1.000  C
  C93      1.0000 0.09389  0.53311  0.84671  Biso   1.000  C
  C94      1.0000 0.88798  0.62631  0.97309  Biso   1.000  C
  C95      1.0000 0.86146  0.61491  0.96670  Biso   1.000  C
  C96      1.0000 0.75403  0.59154  0.04332  Biso   1.000  C
  C97      1.0000 0.74216  0.56794  0.02950  Biso   1.000  C
  C98      1.0000 0.25777  0.43206  0.97051  Biso   1.000  C
  C99      1.0000 0.99202  0.40279  0.11159  Biso   1.000  C
  C100     1.0000 0.98094  0.39649  0.11128  Biso   1.000  C
  H70      1.0000 0.04890  0.33681  0.09349  Biso   1.000  H
  H71      1.0000 0.16456  0.36520  0.14253  Biso   1.000  H
  H72      1.0000 0.05188  0.33421  0.09199  Biso   1.000  H
  H73      1.0000 0.16461  0.36820  0.12716  Biso   1.000  H
  C101     1.0000 0.32583  0.43401  0.09849  Biso   1.000  C
  C102     1.0000 0.32220  0.41483  0.08457  Biso   1.000  C
  O18      1.0000 0.30434  0.50445  0.88172  Biso   1.000  O
  H74      1.0000 0.26799  0.47599  0.79030  Biso   1.000  H
  H75      1.0000 0.36407  0.44760  0.84862  Biso   1.000  H
  H76      1.0000 0.36447  0.40289  0.84439  Biso   1.000  H
  H77      1.0000 0.28857  0.42730  0.77530  Biso   1.000  H
  H78      1.0000 0.30157  0.45172  0.84831  Biso   1.000  H
  C103     1.0000 0.77496  0.45799  0.11953  Biso   1.000  C
  C104     1.0000 0.86308  0.39129  0.08060  Biso   1.000  C
  C105     1.0000 0.84951  0.39022  0.07869  Biso   1.000  C
  C106     1.0000 0.80004  0.46281  0.12118  Biso   1.000  C
  C107     1.0000 0.91720  0.63430  0.90869  Biso   1.000  C
  C108     1.0000 0.90935  0.63318  0.89807  Biso   1.000  C
  C109     1.0000 0.15033  0.60978  0.92132  Biso   1.000  C
  C110     1.0000 0.13674  0.60871  0.91936  Biso   1.000  C
  C111     1.0000 0.19980  0.53719  0.87883  Biso   1.000  C
  H79      1.0000 0.05462  0.50391  0.81882  Biso   1.000  H
  H80      1.0000 0.07561  0.50570  0.82160  Biso   1.000  H
  C112     1.0000 0.22487  0.54201  0.88048  Biso   1.000  C
  C113     1.0000 0.96748  0.64269  0.03203  Biso   1.000  C
  C114     1.0000 0.94369  0.62685  0.03208  Biso   1.000  C
  C115     1.0000 0.83988  0.60621  0.10220  Biso   1.000  C
  H81      1.0000 0.67929  0.57452  0.04693  Biso   1.000  H
  C116     1.0000 0.82373  0.57984  0.09086  Biso   1.000  C
  H82      1.0000 0.67150  0.54801  0.02971  Biso   1.000  H
  H83      1.0000 0.32843  0.45199  0.97031  Biso   1.000  H
  C117     1.0000 0.00803  0.43921  0.15243  Biso   1.000  C
  C118     1.0000 0.02190  0.43779  0.14897  Biso   1.000  C
  H84      1.0000 0.32260  0.41362  0.13732  Biso   1.000  H
  H85      1.0000 0.41693  0.43439  0.09261  Biso   1.000  H
  C119     1.0000 0.29036  0.48051  0.11700  Biso   1.000  C
  H86      1.0000 0.41093  0.41011  0.07668  Biso   1.000  H
  H87      1.0000 0.31447  0.39628  0.12489  Biso   1.000  H
  C120     1.0000 0.30728  0.46399  0.10169  Biso   1.000  C
  H88      1.0000 0.29720  0.52300  0.87971  Biso   1.000  H
  C121     1.0000 0.90595  0.46689  0.15330  Biso   1.000  C
  H89      1.0000 0.70264  0.47700  0.12030  Biso   1.000  H
  O19      1.0000 0.69550  0.49555  0.11829  Biso   1.000  O
  C122     1.0000 0.92290  0.46969  0.15397  Biso   1.000  C
  H90      1.0000 0.84559  0.36381  0.05600  Biso   1.000  H
  H91      1.0000 0.82524  0.36321  0.05337  Biso   1.000  H
  H92      1.0000 0.94805  0.66579  0.90802  Biso   1.000  H
  H93      1.0000 0.83521  0.63180  0.87280  Biso   1.000  H
  H94      1.0000 0.95101  0.66319  0.90647  Biso   1.000  H
  H95      1.0000 0.83527  0.63480  0.85749  Biso   1.000  H
  H96      1.0000 0.17458  0.63679  0.94659  Biso   1.000  H
  C123     1.0000 0.25490  0.57590  0.91823  Biso   1.000  C
  C124     1.0000 0.23056  0.58281  0.91519  Biso   1.000  C
  H97      1.0000 0.15425  0.63619  0.94401  Biso   1.000  H
  C125     1.0000 0.94538  0.63281  0.09571  Biso   1.000  C
  C126     1.0000 0.92458  0.60982  0.09380  Biso   1.000  C
  H98      1.0000 0.03949  0.66131  0.02873  Biso   1.000  H
  H99      1.0000 0.01381  0.64721  0.03306  Biso   1.000  H
  O20      1.0000 0.82725  0.59782  0.16867  Biso   1.000  O
  O21      1.0000 0.82092  0.56218  0.15464  Biso   1.000  O
  C127     1.0000 0.14244  0.45300  0.19290  Biso   1.000  C
  C128     1.0000 0.16193  0.44720  0.18857  Biso   1.000  C
  C129     1.0000 0.20997  0.48961  0.16202  Biso   1.000  C
  C130     1.0000 0.34224  0.51730  0.08802  Biso   1.000  C
  C131     1.0000 0.37355  0.49579  0.07029  Biso   1.000  C
  C132     1.0000 0.23309  0.47920  0.14650  Biso   1.000  C
  H100     1.0000 0.92432  0.49430  0.17841  Biso   1.000  H
  H101     1.0000 0.94522  0.49609  0.18120  Biso   1.000  H
  C133     1.0000 0.71682  0.53416  0.16109  Biso   1.000  C
  O22      1.0000 0.37409  0.58079  0.94329  Biso   1.000  O
  O23      1.0000 0.37019  0.59502  0.94710  Biso   1.000  O
  H102     1.0000 0.97922  0.61848  0.13660  Biso   1.000  H
  O24      1.0000 0.02665  0.65601  0.15366  Biso   1.000  O
  C134     1.0000 0.70882  0.57742  0.17568  Biso   1.000  C
  H103     1.0000 0.13458  0.46301  0.23921  Biso   1.000  H
  H104     1.0000 0.19919  0.42599  0.19919  Biso   1.000  H
  H105     1.0000 0.16029  0.46129  0.23338  Biso   1.000  H
  H106     1.0000 0.21056  0.41840  0.19770  Biso   1.000  H
  C135     1.0000 0.18661  0.53389  0.17898  Biso   1.000  C
  C136     1.0000 0.22496  0.52542  0.15830  Biso   1.000  C
  C137     1.0000 0.31468  0.56029  0.10318  Biso   1.000  C
  H107     1.0000 0.39771  0.51200  0.05698  Biso   1.000  H
  C138     1.0000 0.29070  0.55745  0.12788  Biso   1.000  C
  H108     1.0000 0.42475  0.48570  0.03950  Biso   1.000  H
  C139     1.0000 0.36695  0.54141  0.08277  Biso   1.000  C
  H109     1.0000 0.73192  0.52401  0.20966  Biso   1.000  H
  H110     1.0000 0.63586  0.55240  0.15140  Biso   1.000  H
  C140     1.0000 0.41955  0.62560  0.96402  Biso   1.000  C
  C141     1.0000 0.39734  0.60682  0.01687  Biso   1.000  C
  C142     1.0000 0.11439  0.62755  0.19502  Biso   1.000  C
  H111     1.0000 0.63537  0.59711  0.15562  Biso   1.000  H
  H112     1.0000 0.71127  0.57270  0.22472  Biso   1.000  H
  H113     1.0000 0.69826  0.54828  0.15170  Biso   1.000  H
  H114     1.0000 0.13601  0.53948  0.21208  Biso   1.000  H
  C143     1.0000 0.23531  0.56953  0.14902  Biso   1.000  C
  H115     1.0000 0.17226  0.53540  0.18847  Biso   1.000  H
  H116     1.0000 0.35043  0.58460  0.08220  Biso   1.000  H
  O25      1.0000 0.29503  0.60220  0.13943  Biso   1.000  O
  O26      1.0000 0.45072  0.56959  0.05760  Biso   1.000  O
  H117     1.0000 0.39425  0.64620  0.92483  Biso   1.000  H
  H118     1.0000 0.51495  0.62540  0.97969  Biso   1.000  H
  H119     1.0000 0.38042  0.63571  0.00171  Biso   1.000  H
  H120     1.0000 0.45999  0.63221  0.02517  Biso   1.000  H
  H121     1.0000 0.31592  0.61670  0.02986  Biso   1.000  H
  O27      1.0000 0.21558  0.61467  0.16243  Biso   1.000  O
  H122     1.0000 0.06808  0.60031  0.20548  Biso   1.000  H
  H123     1.0000 0.15278  0.64290  0.23900  Biso   1.000  H
  C144     1.0000 0.27568  0.61612  0.20487  Biso   1.000  C
  H124     1.0000 0.18562  0.60952  0.20780  Biso   1.000  H
  H125     1.0000 0.33641  0.59991  0.24137  Biso   1.000  H
  H126     1.0000 0.29159  0.64859  0.21049  Biso   1.000  H
  C145     1.0000 0.48954  0.49707  0.73394  Biso   1.000  C
  O28      1.0000 0.35895  0.50111  0.69393  Biso   1.000  O
  H127     1.0000 0.53052  0.52691  0.73987  Biso   1.000  H
  H128     1.0000 0.48802  0.48439  0.77927  Biso   1.000  H
  H129     1.0000 0.53962  0.47721  0.71017  Biso   1.000  H
  C146     1.0000 0.34593  0.51669  0.62762  Biso   1.000  C
  C147     1.0000 0.44634  0.53497  0.60174  Biso   1.000  C
  C148     1.0000 0.22274  0.51214  0.58374  Biso   1.000  C
  C149     1.0000 0.42896  0.54734  0.53254  Biso   1.000  C
  H130     1.0000 0.52943  0.53921  0.63190  Biso   1.000  H
  C150     1.0000 0.20471  0.52377  0.51527  Biso   1.000  C
  O29      1.0000 0.12098  0.49096  0.60622  Biso   1.000  O
  C151     1.0000 0.30681  0.54080  0.48820  Biso   1.000  C
  C152     1.0000 0.54609  0.56626  0.50903  Biso   1.000  C
  H131     1.0000 0.12071  0.52010  0.48562  Biso   1.000  H
  C153     1.0000 0.07518  0.51204  0.66005  Biso   1.000  C
  C154     1.0000 0.28151  0.54957  0.41090  Biso   1.000  C
  C155     1.0000 0.55776  0.61720  0.51228  Biso   1.000  C
  H132     1.0000 0.54116  0.55651  0.46087  Biso   1.000  H
  H133     1.0000 0.62657  0.55311  0.53801  Biso   1.000  H
  H134     1.0000 0.14329  0.53250  0.68589  Biso   1.000  H
  H135     1.0000 0.05673  0.48891  0.69238  Biso   1.000  H
  O30      1.0000 0.96035  0.53685  0.63293  Biso   1.000  O
  H136     1.0000 0.21856  0.52681  0.38687  Biso   1.000  H
  H137     1.0000 0.36422  0.54522  0.39580  Biso   1.000  H
  C156     1.0000 0.22862  0.59603  0.38837  Biso   1.000  C
  C157     1.0000 0.52455  0.64529  0.45494  Biso   1.000  C
  C158     1.0000 0.60763  0.63659  0.57704  Biso   1.000  C
  C159     1.0000 0.97276  0.58342  0.63030  Biso   1.000  C
  C160     1.0000 0.30630  0.63157  0.37465  Biso   1.000  C
  C161     1.0000 0.09325  0.60227  0.37991  Biso   1.000  C
  C162     1.0000 0.45431  0.62897  0.38414  Biso   1.000  C
  C163     1.0000 0.55061  0.69152  0.46339  Biso   1.000  C
  C164     1.0000 0.62678  0.68211  0.58513  Biso   1.000  C
  H138     1.0000 0.62872  0.61761  0.61638  Biso   1.000  H
  C165     1.0000 0.02944  0.60796  0.68821  Biso   1.000  C
  C166     1.0000 0.91970  0.60533  0.56925  Biso   1.000  C
  C167     1.0000 0.24495  0.67247  0.35171  Biso   1.000  C
  H139     1.0000 0.04123  0.57809  0.39017  Biso   1.000  H
  C168     1.0000 0.03427  0.64263  0.35697  Biso   1.000  C
  H140     1.0000 0.48131  0.64762  0.34841  Biso   1.000  H
  H141     1.0000 0.47989  0.59741  0.37780  Biso   1.000  H
  H142     1.0000 0.53241  0.71060  0.42410  Biso   1.000  H
  C169     1.0000 0.60212  0.71006  0.52728  Biso   1.000  C
  O31      1.0000 0.67184  0.70382  0.64752  Biso   1.000  O
  C170     1.0000 0.03939  0.65476  0.68609  Biso   1.000  C
  H143     1.0000 0.06234  0.59259  0.73049  Biso   1.000  H
  C171     1.0000 0.92463  0.65180  0.56719  Biso   1.000  C
  H144     1.0000 0.88040  0.58871  0.52919  Biso   1.000  H
  C172     1.0000 0.11257  0.67796  0.34222  Biso   1.000  C
  H145     1.0000 0.29645  0.69701  0.34248  Biso   1.000  H
  O32      1.0000 0.90319  0.65159  0.34630  Biso   1.000  O
  O33      1.0000 0.63206  0.75497  0.53904  Biso   1.000  O
  C173     1.0000 0.72208  0.67867  0.70775  Biso   1.000  C
  C174     1.0000 0.11606  0.67813  0.75003  Biso   1.000  C
  C175     1.0000 0.98427  0.67749  0.62468  Biso   1.000  C
  H146     1.0000 0.88621  0.66680  0.52537  Biso   1.000  H
  O34      1.0000 0.05393  0.71785  0.31335  Biso   1.000  O
  C176     1.0000 0.82129  0.61693  0.36352  Biso   1.000  C
  C177     1.0000 0.64067  0.78151  0.48062  Biso   1.000  C
  O35      1.0000 0.63670  0.64687  0.72667  Biso   1.000  O
  H147     1.0000 0.74976  0.70001  0.74647  Biso   1.000  H
  H148     1.0000 0.80118  0.66259  0.70141  Biso   1.000  H
  C178     1.0000 0.26010  0.67537  0.74998  Biso   1.000  C
  H149     1.0000 0.08870  0.71010  0.75019  Biso   1.000  H
  H150     1.0000 0.09932  0.66329  0.79180  Biso   1.000  H
  C179     1.0000 0.98631  0.72854  0.61849  Biso   1.000  C
  C180     1.0000 0.00822  0.74546  0.36042  Biso   1.000  C
  H151     1.0000 0.85417  0.60780  0.41157  Biso   1.000  H
  H152     1.0000 0.73184  0.62830  0.35738  Biso   1.000  H
  H153     1.0000 0.82188  0.59090  0.33330  Biso   1.000  H
  H154     1.0000 0.55334  0.78529  0.45097  Biso   1.000  H
  H155     1.0000 0.67729  0.81111  0.49598  Biso   1.000  H
  H156     1.0000 0.69736  0.76640  0.45468  Biso   1.000  H
  C181     1.0000 0.51505  0.65992  0.73595  Biso   1.000  C
  C182     1.0000 0.32544  0.63538  0.77220  Biso   1.000  C
  C183     1.0000 0.32702  0.70885  0.72234  Biso   1.000  C
  C184     1.0000 0.09128  0.74469  0.58225  Biso   1.000  C
  H157     1.0000 0.00224  0.74199  0.66521  Biso   1.000  H
  H158     1.0000 0.89982  0.73899  0.59240  Biso   1.000  H
  O36      1.0000 0.11456  0.76853  0.40229  Biso   1.000  O
  H159     1.0000 0.94424  0.76742  0.33511  Biso   1.000  H
  H160     1.0000 0.96401  0.72668  0.38950  Biso   1.000  H
  C185     1.0000 0.45033  0.62705  0.76473  Biso   1.000  C
  C186     1.0000 0.45566  0.70082  0.71672  Biso   1.000  C
  H161     1.0000 0.28231  0.61309  0.79329  Biso   1.000  H
  C187     1.0000 0.26573  0.75349  0.69507  Biso   1.000  C
  C188     1.0000 0.05522  0.74897  0.51078  Biso   1.000  C
  C189     1.0000 0.21920  0.75497  0.61710  Biso   1.000  C
  C190     1.0000 0.14525  0.76121  0.47278  Biso   1.000  C
  H162     1.0000 0.49177  0.59910  0.77911  Biso   1.000  H
  H163     1.0000 0.50252  0.72378  0.69950  Biso   1.000  H
  H164     1.0000 0.19049  0.75959  0.71610  Biso   1.000  H
  H165     1.0000 0.33051  0.77780  0.70971  Biso   1.000  H
  H166     1.0000 0.96714  0.74341  0.48768  Biso   1.000  H
  C191     1.0000 0.30737  0.76789  0.57719  Biso   1.000  C
  C192     1.0000 0.27246  0.77042  0.50640  Biso   1.000  C
  H167     1.0000 0.39442  0.77520  0.59988  Biso   1.000  H
  H168     1.0000 0.33537  0.77841  0.48077  Biso   1.000  H
  C193     1.0000 0.73410  0.25349  0.80489  Biso   1.000  C
  C194     1.0000 0.67283  0.20885  0.77767  Biso   1.000  C
  H169     1.0000 0.80936  0.25959  0.78391  Biso   1.000  H
  H170     1.0000 0.66934  0.27780  0.79030  Biso   1.000  H
  C195     1.0000 0.78063  0.25497  0.88286  Biso   1.000  C
  C196     1.0000 0.73975  0.17537  0.75003  Biso   1.000  C
  C197     1.0000 0.54418  0.20082  0.78324  Biso   1.000  C
  C198     1.0000 0.90855  0.24469  0.91771  Biso   1.000  C
  C199     1.0000 0.69246  0.26789  0.92277  Biso   1.000  C
  C200     1.0000 0.67440  0.13538  0.72776  Biso   1.000  C
  C201     1.0000 0.88379  0.17813  0.74998  Biso   1.000  C
  C202     1.0000 0.48478  0.15992  0.76400  Biso   1.000  C
  H171     1.0000 0.49733  0.22378  0.80051  Biso   1.000  H
  C203     1.0000 0.01352  0.22854  0.88146  Biso   1.000  C
  C204     1.0000 0.94461  0.24897  0.98918  Biso   1.000  C
  H172     1.0000 0.60541  0.27520  0.90008  Biso   1.000  H
  C205     1.0000 0.72740  0.27042  0.99361  Biso   1.000  C
  H173     1.0000 0.71753  0.11309  0.70667  Biso   1.000  H
  C206     1.0000 0.54950  0.12705  0.73523  Biso   1.000  C
  C207     1.0000 0.96046  0.15476  0.81392  Biso   1.000  C
  H174     1.0000 0.91113  0.21010  0.74977  Biso   1.000  H
  H175     1.0000 0.90053  0.16329  0.70821  Biso   1.000  H
  O37      1.0000 0.36313  0.14687  0.77329  Biso   1.000  O
  C208     1.0000 0.01556  0.17749  0.87528  Biso   1.000  C
  H176     1.0000 0.99761  0.24199  0.83480  Biso   1.000  H
  H177     1.0000 0.10003  0.23899  0.90761  Biso   1.000  H
  C209     1.0000 0.85468  0.26121  0.02718  Biso   1.000  C
  H178     1.0000 0.03279  0.24341  0.01228  Biso   1.000  H
  H179     1.0000 0.66456  0.27841  0.01919  Biso   1.000  H
  H180     1.0000 0.50809  0.09910  0.72090  Biso   1.000  H
  C210     1.0000 0.97040  0.10796  0.81175  Biso   1.000  C
  C211     1.0000 0.27777  0.17867  0.79226  Biso   1.000  C
  C212     1.0000 0.07520  0.15180  0.93277  Biso   1.000  C
  O38      1.0000 0.88537  0.26853  0.09767  Biso   1.000  O
  H181     1.0000 0.93749  0.09259  0.76947  Biso   1.000  H
  C213     1.0000 0.02710  0.08342  0.86971  Biso   1.000  C
  O39      1.0000 0.32801  0.20382  0.85249  Biso   1.000  O
  H182     1.0000 0.25007  0.20001  0.75349  Biso   1.000  H
  H183     1.0000 0.19867  0.16259  0.79860  Biso   1.000  H
  C214     1.0000 0.08014  0.10533  0.93071  Biso   1.000  C
  H184     1.0000 0.11362  0.16680  0.97459  Biso   1.000  H
  C215     1.0000 0.99173  0.24546  0.13959  Biso   1.000  C
  O40      1.0000 0.03950  0.03685  0.86708  Biso   1.000  O
  C216     1.0000 0.37307  0.18211  0.91488  Biso   1.000  C
  H185     1.0000 0.11943  0.08871  0.97077  Biso   1.000  H
  O41      1.0000 0.94602  0.21785  0.18666  Biso   1.000  O
  H186     1.0000 0.05570  0.26742  0.16490  Biso   1.000  H
  H187     1.0000 0.03594  0.22668  0.11051  Biso   1.000  H
  C217     1.0000 0.92465  0.01204  0.83990  Biso   1.000  C
  C218     1.0000 0.39773  0.21006  0.97273  Biso   1.000  C
  C219     1.0000 0.39222  0.13659  0.92297  Biso   1.000  C
  C220     1.0000 0.88736  0.17796  0.15774  Biso   1.000  C
  H188     1.0000 0.85655  0.03250  0.81407  Biso   1.000  H
  O42      1.0000 0.87885  0.99096  0.89374  Biso   1.000  O
  H189     1.0000 0.94310  0.98891  0.80758  Biso   1.000  H
  O43      1.0000 0.36779  0.25497  0.96097  Biso   1.000  O
  C221     1.0000 0.44931  0.19152  0.03656  Biso   1.000  C
  C222     1.0000 0.44208  0.11720  0.98768  Biso   1.000  C
  H190     1.0000 0.37111  0.11761  0.88358  Biso   1.000  H
  C223     1.0000 0.96565  0.14263  0.14299  Biso   1.000  C
  C224     1.0000 0.75497  0.17247  0.14825  Biso   1.000  C
  C225     1.0000 0.77709  0.01214  0.91622  Biso   1.000  C
  C226     1.0000 0.35927  0.28151  0.01939  Biso   1.000  C
  C227     1.0000 0.47540  0.14529  0.04507  Biso   1.000  C
  H191     1.0000 0.46754  0.21060  0.07591  Biso   1.000  H
  C228     1.0000 0.45374  0.06626  0.99093  Biso   1.000  C
  C229     1.0000 0.90668  0.10227  0.12005  Biso   1.000  C
  O44      1.0000 0.09673  0.15159  0.15366  Biso   1.000  O
  C230     1.0000 0.69364  0.13157  0.12536  Biso   1.000  C
  H192     1.0000 0.70348  0.19701  0.15748  Biso   1.000  H
  C231     1.0000 0.65390  0.01669  0.87234  Biso   1.000  C
  C232     1.0000 0.79514  0.02377  0.98474  Biso   1.000  C
  H193     1.0000 0.44659  0.28529  0.04899  Biso   1.000  H
  H194     1.0000 0.32264  0.31111  0.00398  Biso   1.000  H
  H195     1.0000 0.30256  0.26640  0.04528  Biso   1.000  H
  C233     1.0000 0.54564  0.12897  0.11587  Biso   1.000  C
  H196     1.0000 0.37328  0.05311  0.96201  Biso   1.000  H
  C234     1.0000 0.57087  0.04734  0.96742  Biso   1.000  C
  H197     1.0000 0.45876  0.05651  0.03909  Biso   1.000  H
  C235     1.0000 0.77130  0.09603  0.11159  Biso   1.000  C
  H198     1.0000 0.95869  0.07809  0.10978  Biso   1.000  H
  C236     1.0000 0.17866  0.11693  0.13649  Biso   1.000  C
  O45      1.0000 0.64091  0.00111  0.80608  Biso   1.000  O
  C237     1.0000 0.55351  0.03497  0.89827  Biso   1.000  C
  C238     1.0000 0.69311  0.04080  0.01176  Biso   1.000  C
  H199     1.0000 0.87924  0.02010  0.01439  Biso   1.000  H
  H200     1.0000 0.51863  0.14762  0.15160  Biso   1.000  H
  H201     1.0000 0.52003  0.09741  0.12216  Biso   1.000  H
  C239     1.0000 0.71841  0.04957  0.08906  Biso   1.000  C
  H202     1.0000 0.14576  0.10780  0.08839  Biso   1.000  H
  H203     1.0000 0.26809  0.12830  0.14258  Biso   1.000  H
  H204     1.0000 0.17805  0.09090  0.16666  Biso   1.000  H
  C240     1.0000 0.51030  0.99707  0.76602  Biso   1.000  C
  H205     1.0000 0.47043  0.03921  0.86811  Biso   1.000  H
  H206     1.0000 0.78137  0.02681  0.11308  Biso   1.000  H
  H207     1.0000 0.63570  0.04522  0.10416  Biso   1.000  H
  H208     1.0000 0.46931  0.02691  0.76009  Biso   1.000  H
  H209     1.0000 0.51181  0.98439  0.72069  Biso   1.000  H
  H210     1.0000 0.46021  0.97721  0.78979  Biso   1.000  H
  C241     1.0000 0.26584  0.74651  0.19506  Biso   1.000  C
  C242     1.0000 0.21922  0.74503  0.11710  Biso   1.000  C
  C243     1.0000 0.32713  0.79115  0.22234  Biso   1.000  C
  H211     1.0000 0.19060  0.74041  0.21610  Biso   1.000  H
  H212     1.0000 0.33062  0.72220  0.20971  Biso   1.000  H
  C244     1.0000 0.30741  0.73211  0.07724  Biso   1.000  C
  C245     1.0000 0.09141  0.75531  0.08229  Biso   1.000  C
  C246     1.0000 0.26012  0.82463  0.24998  Biso   1.000  C
  C247     1.0000 0.45569  0.79918  0.21677  Biso   1.000  C
  H213     1.0000 0.39454  0.72480  0.09988  Biso   1.000  H
  C248     1.0000 0.27257  0.72958  0.00639  Biso   1.000  C
  C249     1.0000 0.05523  0.75103  0.01078  Biso   1.000  C
  C250     1.0000 0.98635  0.77146  0.11854  Biso   1.000  C
  C251     1.0000 0.32547  0.86462  0.27225  Biso   1.000  C
  C252     1.0000 0.11608  0.82187  0.25003  Biso   1.000  C
  C253     1.0000 0.51509  0.84008  0.23600  Biso   1.000  C
  H214     1.0000 0.50264  0.77622  0.19950  Biso   1.000  H
  H215     1.0000 0.33531  0.72159  0.98082  Biso   1.000  H
  C254     1.0000 0.14517  0.73879  0.97277  Biso   1.000  C
  H216     1.0000 0.96706  0.75659  0.98768  Biso   1.000  H
  H217     1.0000 0.00226  0.75801  0.16521  Biso   1.000  H
  H218     1.0000 0.89993  0.76101  0.09240  Biso   1.000  H
  C255     1.0000 0.98439  0.82251  0.12468  Biso   1.000  C
  H219     1.0000 0.28232  0.88691  0.29329  Biso   1.000  H
  C256     1.0000 0.45044  0.87295  0.26472  Biso   1.000  C
  C257     1.0000 0.03941  0.84524  0.18609  Biso   1.000  C
  H220     1.0000 0.08872  0.78990  0.25018  Biso   1.000  H
  H221     1.0000 0.09934  0.83671  0.29179  Biso   1.000  H
  O46      1.0000 0.63684  0.85313  0.22672  Biso   1.000  O
  O47      1.0000 0.11448  0.73147  0.90229  Biso   1.000  O
  C258     1.0000 0.92467  0.84820  0.06724  Biso   1.000  C
  H222     1.0000 0.49178  0.90090  0.27911  Biso   1.000  H
  C259     1.0000 0.02947  0.89204  0.18826  Biso   1.000  C
  C260     1.0000 0.72210  0.82133  0.20775  Biso   1.000  C
  C261     1.0000 0.00824  0.75454  0.86042  Biso   1.000  C
  H223     1.0000 0.88634  0.83320  0.02542  Biso   1.000  H
  C262     1.0000 0.91983  0.89467  0.06930  Biso   1.000  C
  H224     1.0000 0.06236  0.90741  0.23049  Biso   1.000  H
  C263     1.0000 0.97277  0.91658  0.13030  Biso   1.000  C
  O48      1.0000 0.67186  0.79618  0.14752  Biso   1.000  O
  H225     1.0000 0.74980  0.79999  0.24652  Biso   1.000  H
  H226     1.0000 0.80120  0.83741  0.20140  Biso   1.000  H
  H227     1.0000 0.94426  0.73258  0.83510  Biso   1.000  H
  H228     1.0000 0.96403  0.77332  0.88950  Biso   1.000  H
  O49      1.0000 0.05395  0.78215  0.81334  Biso   1.000  O
  H229     1.0000 0.88051  0.91129  0.02918  Biso   1.000  H
  O50      1.0000 0.96047  0.96315  0.13293  Biso   1.000  O
  C264     1.0000 0.62689  0.81789  0.08513  Biso   1.000  C
  C265     1.0000 0.11251  0.82204  0.84227  Biso   1.000  C
  C266     1.0000 0.07520  0.98796  0.16005  Biso   1.000  C
  C267     1.0000 0.60214  0.78994  0.02728  Biso   1.000  C
  C268     1.0000 0.60765  0.86341  0.07703  Biso   1.000  C
  C269     1.0000 0.03422  0.85737  0.85702  Biso   1.000  C
  C270     1.0000 0.24487  0.82753  0.85171  Biso   1.000  C
  H230     1.0000 0.14340  0.96750  0.18588  Biso   1.000  H
  O51      1.0000 0.12109  0.00904  0.10622  Biso   1.000  O
  H231     1.0000 0.05675  0.01109  0.19238  Biso   1.000  H
  O52      1.0000 0.63217  0.74503  0.03903  Biso   1.000  O
  C271     1.0000 0.55056  0.80848  0.96344  Biso   1.000  C
  C272     1.0000 0.55777  0.88280  0.01227  Biso   1.000  C
  H232     1.0000 0.62883  0.88239  0.11638  Biso   1.000  H
  O53      1.0000 0.90321  0.84841  0.84629  Biso   1.000  O
  C273     1.0000 0.09317  0.89773  0.87991  Biso   1.000  C
  C274     1.0000 0.30623  0.86843  0.87465  Biso   1.000  C
  H233     1.0000 0.29649  0.80299  0.84253  Biso   1.000  H
  C275     1.0000 0.22276  0.98786  0.08374  Biso   1.000  C
  C276     1.0000 0.64060  0.71849  0.98061  Biso   1.000  C
  C277     1.0000 0.52447  0.85471  0.95493  Biso   1.000  C
  H234     1.0000 0.53233  0.78940  0.92410  Biso   1.000  H
  C278     1.0000 0.54620  0.93374  0.00902  Biso   1.000  C
  C279     1.0000 0.82130  0.88307  0.86351  Biso   1.000  C
  C280     1.0000 0.22864  0.90397  0.88837  Biso   1.000  C
  H235     1.0000 0.04127  0.92191  0.89022  Biso   1.000  H
  C281     1.0000 0.45423  0.87103  0.88414  Biso   1.000  C
  C282     1.0000 0.34604  0.98331  0.12762  Biso   1.000  C
  C283     1.0000 0.20473  0.97623  0.01526  Biso   1.000  C
  H236     1.0000 0.55338  0.71471  0.95102  Biso   1.000  H
  H237     1.0000 0.67721  0.68889  0.99598  Biso   1.000  H
  H238     1.0000 0.69728  0.73360  0.95468  Biso   1.000  H
  C284     1.0000 0.42898  0.95266  0.03254  Biso   1.000  C
  H239     1.0000 0.62659  0.94689  0.03800  Biso   1.000  H
  H240     1.0000 0.54111  0.94349  0.96092  Biso   1.000  H
  H241     1.0000 0.85411  0.89220  0.91162  Biso   1.000  H
  H242     1.0000 0.73176  0.87170  0.85738  Biso   1.000  H
  H243     1.0000 0.82180  0.90910  0.83330  Biso   1.000  H
  C285     1.0000 0.28146  0.95043  0.91095  Biso   1.000  C
  H244     1.0000 0.48124  0.85238  0.84841  Biso   1.000  H
  H245     1.0000 0.47982  0.90259  0.87780  Biso   1.000  H
  O54      1.0000 0.35896  0.99889  0.19393  Biso   1.000  O
  C286     1.0000 0.44646  0.96503  0.10173  Biso   1.000  C
  C287     1.0000 0.30683  0.95920  0.98819  Biso   1.000  C
  H246     1.0000 0.12072  0.97990  0.98561  Biso   1.000  H
  H247     1.0000 0.21850  0.97319  0.88692  Biso   1.000  H
  H248     1.0000 0.36424  0.95478  0.89579  Biso   1.000  H
  C288     1.0000 0.48955  0.00293  0.23394  Biso   1.000  C
  H249     1.0000 0.52954  0.96079  0.13190  Biso   1.000  H
  H250     1.0000 0.53056  0.97309  0.23992  Biso   1.000  H
  H251     1.0000 0.48806  0.01561  0.27932  Biso   1.000  H
  H252     1.0000 0.53966  0.02279  0.21022  Biso   1.000  H
  Ne1      1.0000 0.72586  0.35416  0.44350  Biso   1.000  Ne
  He1      1.0000 0.65513  0.27948  0.56358  Biso   1.000  He
  He2      1.0000 0.00085  0.32624  0.53542  Biso   1.000  He
  He3      1.0000 0.95874  0.41866  0.51298  Biso   1.000  He
  He4      1.0000 0.48835  0.39810  0.34172  Biso   1.000  He
  He5      1.0000 0.72359  0.42935  0.29962  Biso   1.000  He
  Ar1      1.0000 0.73550  0.35353  0.44207  Biso   1.000  Ar
  Ne2      1.0000 0.27405  0.64584  0.55648  Biso   1.000  Ne
  He6      1.0000 0.27738  0.55532  0.75228  Biso   1.000  He
  He7      1.0000 0.55459  0.58015  0.69726  Biso   1.000  He
  He8      1.0000 0.04566  0.58276  0.48847  Biso   1.000  He
  He9      1.0000 0.95381  0.68204  0.45220  Biso   1.000  He
  He10     1.0000 0.33776  0.71231  0.44772  Biso   1.000  He
  Ar2      1.0000 0.25660  0.64566  0.55841  Biso   1.000  Ar
  Ne3      1.0000 0.72582  0.14584  0.94350  Biso   1.000  Ne
  He11     1.0000 0.65383  0.22200  0.06561  Biso   1.000  He
  He12     1.0000 0.13818  0.19287  0.06257  Biso   1.000  He
  He13     1.0000 0.95559  0.08231  0.01194  Biso   1.000  He
  He14     1.0000 0.44621  0.08045  0.80337  Biso   1.000  He
  He15     1.0000 0.72191  0.05620  0.75067  Biso   1.000  He
  Ar3      1.0000 0.73542  0.14647  0.94207  Biso   1.000  Ar
  Ne4      1.0000 0.99993  0.50000  1.00000  Biso   1.000  Ne
  He16     1.0000 0.16778  0.61160  0.04412  Biso   1.000  He
  He17     1.0000 0.81398  0.36502  0.94602  Biso   1.000  He
  Ar4      1.0000 0.99995  0.50000  0.00001  Biso   1.000  Ar
  Ne5      1.0000 0.27408  0.85416  0.05649  Biso   1.000  Ne
  He18     1.0000 0.27729  0.94496  0.25324  Biso   1.000  He
  He19     1.0000 0.50580  0.89686  0.15570  Biso   1.000  He
  He20     1.0000 0.46539  0.78060  0.11170  Biso   1.000  He
  He21     1.0000 0.04612  0.91711  0.98863  Biso   1.000  He
  He22     1.0000 0.02343  0.82899  0.97087  Biso   1.000  He
  He23     1.0000 0.34650  0.77746  0.93361  Biso   1.000  He
  Ar5      1.0000 0.25672  0.85433  0.05842  Biso   1.000  Ar
