data_image0
_cell_length_a       19.866
_cell_length_b       10.659
_cell_length_c       21.676
_cell_angle_alpha    90
_cell_angle_beta     109.94
_cell_angle_gamma    90

_symmetry_space_group_name_H-M    "P 1"
_symmetry_int_tables_number       1

loop_
  _symmetry_equiv_pos_as_xyz
  'x, y, z'

loop_
  _atom_site_label
  _atom_site_occupancy
  _atom_site_fract_x
  _atom_site_fract_y
  _atom_site_fract_z
  _atom_site_thermal_displace_type
  _atom_site_B_iso_or_equiv
  _atom_site_type_symbol
  C1       1.0000 0.63657  0.40811  0.69560  Biso   1.000  C
  C2       1.0000 0.57550  0.36504  0.70571  Biso   1.000  C
  C3       1.0000 0.66716  0.52360  0.72127  Biso   1.000  C
  H1       1.0000 0.65809  0.35876  0.67092  Biso   1.000  H
  O1       1.0000 0.54501  0.24740  0.68859  Biso   1.000  O
  C4       1.0000 0.54065  0.44122  0.73747  Biso   1.000  C
  C5       1.0000 0.73731  0.55793  0.71160  Biso   1.000  C
  C6       1.0000 0.63458  0.59837  0.75587  Biso   1.000  C
  C7       1.0000 0.57281  0.16418  0.65237  Biso   1.000  C
  C8       1.0000 0.57001  0.55634  0.76117  Biso   1.000  C
  H2       1.0000 0.49730  0.41439  0.74272  Biso   1.000  H
  H3       1.0000 0.74559  0.64922  0.71857  Biso   1.000  H
  H4       1.0000 0.73346  0.53898  0.66582  Biso   1.000  H
  C9       1.0000 0.80093  0.48748  0.75813  Biso   1.000  C
  C10      1.0000 0.66795  0.71620  0.79346  Biso   1.000  C
  O2       1.0000 0.64699  0.13941  0.67951  Biso   1.000  O
  H5       1.0000 0.56266  0.19955  0.60791  Biso   1.000  H
  H6       1.0000 0.54679  0.08359  0.64751  Biso   1.000  H
  H7       1.0000 0.54545  0.60897  0.78188  Biso   1.000  H
  C11      1.0000 0.84380  0.53542  0.81923  Biso   1.000  C
  C12      1.0000 0.81740  0.36767  0.74071  Biso   1.000  C
  C13      1.0000 0.70922  0.68036  0.86418  Biso   1.000  C
  H8       1.0000 0.63005  0.77765  0.79199  Biso   1.000  H
  H9       1.0000 0.70066  0.75523  0.77329  Biso   1.000  H
  C14      1.0000 0.67772  0.08894  0.74154  Biso   1.000  C
  C15      1.0000 0.90023  0.46318  0.85981  Biso   1.000  C
  C16      1.0000 0.83011  0.66094  0.84548  Biso   1.000  C
  C17      1.0000 0.87155  0.29581  0.78124  Biso   1.000  C
  H10      1.0000 0.78975  0.33512  0.69899  Biso   1.000  H
  C18      1.0000 0.67010  0.67098  0.90693  Biso   1.000  C
  C19      1.0000 0.78205  0.64940  0.88690  Biso   1.000  C
  C20      1.0000 0.64562  0.07393  0.78865  Biso   1.000  C
  C21      1.0000 0.74913  0.05216  0.75636  Biso   1.000  C
  H11      1.0000 0.93038  0.49695  0.90040  Biso   1.000  H
  C22      1.0000 0.91288  0.34318  0.84185  Biso   1.000  C
  H12      1.0000 0.87645  0.69828  0.87247  Biso   1.000  H
  H13      1.0000 0.80748  0.71827  0.80818  Biso   1.000  H
  H14      1.0000 0.88066  0.21437  0.76799  Biso   1.000  H
  C23      1.0000 0.70080  0.62473  0.96955  Biso   1.000  C
  H15      1.0000 0.62146  0.69725  0.89240  Biso   1.000  H
  C24      1.0000 0.81209  0.60447  0.95085  Biso   1.000  C
  C25      1.0000 0.68411  0.02721  0.85137  Biso   1.000  C
  H16      1.0000 0.59657  0.09569  0.77830  Biso   1.000  H
  O3       1.0000 0.78082  0.06042  0.70881  Biso   1.000  O
  C26      1.0000 0.78731  0.00966  0.81810  Biso   1.000  C
  O4       1.0000 0.96507  0.26109  0.87930  Biso   1.000  O
  C27      1.0000 0.77234  0.59096  0.99188  Biso   1.000  C
  O5       1.0000 0.66462  0.61638  0.01381  Biso   1.000  O
  H17      1.0000 0.86136  0.58232  0.96680  Biso   1.000  H
  C28      1.0000 0.64382  0.00732  0.89907  Biso   1.000  C
  C29      1.0000 0.75715  0.99859  0.86732  Biso   1.000  C
  C30      1.0000 0.76179  0.95741  0.66375  Biso   1.000  C
  H18      1.0000 0.83609  0.98687  0.82772  Biso   1.000  H
  C31      1.0000 0.01124  0.28549  0.93819  Biso   1.000  C
  C32      1.0000 0.00501  0.31588  0.95419  Biso   1.000  C
  H19      1.0000 0.79404  0.55868  0.03506  Biso   1.000  H
  C33      1.0000 0.59337  0.56825  0.99143  Biso   1.000  C
  C34      1.0000 0.63317  0.12525  0.93402  Biso   1.000  C
  H20      1.0000 0.67025  0.94521  0.93249  Biso   1.000  H
  H21      1.0000 0.59629  0.97110  0.87468  Biso   1.000  H
  C35      1.0000 0.80739  0.96801  0.93470  Biso   1.000  C
  C36      1.0000 0.80197  0.94896  0.93799  Biso   1.000  C
  H22      1.0000 0.70968  0.95591  0.64182  Biso   1.000  H
  H23      1.0000 0.78519  0.96716  0.63087  Biso   1.000  H
  H24      1.0000 0.77739  0.87860  0.68770  Biso   1.000  H
  O6       1.0000 0.97785  0.32658  0.98481  Biso   1.000  O
  O7       1.0000 0.00877  0.21859  0.99418  Biso   1.000  O
  H25      1.0000 0.03979  0.20912  0.95551  Biso   1.000  H
  H26      1.0000 0.04458  0.35163  0.93431  Biso   1.000  H
  H27      1.0000 0.05348  0.34750  0.95929  Biso   1.000  H
  H28      1.0000 0.97673  0.38512  0.96366  Biso   1.000  H
  O8       1.0000 0.59173  0.45145  0.02245  Biso   1.000  O
  H29      1.0000 0.57678  0.55671  0.94319  Biso   1.000  H
  H30      1.0000 0.56095  0.62839  0.00184  Biso   1.000  H
  C37      1.0000 0.67997  0.16259  0.99541  Biso   1.000  C
  C38      1.0000 0.57203  0.19758  0.90295  Biso   1.000  C
  C39      1.0000 0.83997  0.08641  0.97897  Biso   1.000  C
  C40      1.0000 0.83803  0.05282  0.97185  Biso   1.000  C
  H31      1.0000 0.78156  0.91594  0.95728  Biso   1.000  H
  H32      1.0000 0.84718  0.91669  0.93058  Biso   1.000  H
  H33      1.0000 0.83625  0.88367  0.93475  Biso   1.000  H
  H34      1.0000 0.77006  0.91266  0.95939  Biso   1.000  H
  C41      1.0000 0.92567  0.25612  0.99718  Biso   1.000  C
  C42      1.0000 0.94173  0.19364  0.00042  Biso   1.000  C
  C43      1.0000 0.60610  0.34619  0.99099  Biso   1.000  C
  C44      1.0000 0.66523  0.27413  0.02275  Biso   1.000  C
  C45      1.0000 0.74454  0.08500  0.03595  Biso   1.000  C
  C46      1.0000 0.75001  0.09701  0.03104  Biso   1.000  C
  C47      1.0000 0.55761  0.30669  0.93078  Biso   1.000  C
  H35      1.0000 0.53957  0.17112  0.86158  Biso   1.000  H
  C48      1.0000 0.89544  0.14626  0.96518  Biso   1.000  C
  C49      1.0000 0.90572  0.09494  0.96817  Biso   1.000  C
  C50      1.0000 0.81094  0.13819  0.02446  Biso   1.000  C
  C51      1.0000 0.81698  0.12102  0.01460  Biso   1.000  C
  C52      1.0000 0.90055  0.30425  0.04532  Biso   1.000  C
  C53      1.0000 0.91792  0.26222  0.04424  Biso   1.000  C
  H36      1.0000 0.69692  0.30050  0.06436  Biso   1.000  H
  H37      1.0000 0.73765  0.99559  0.02216  Biso   1.000  H
  H38      1.0000 0.75033  0.08931  0.08316  Biso   1.000  H
  H39      1.0000 0.74013  0.00544  0.02490  Biso   1.000  H
  H40      1.0000 0.76180  0.11436  0.07800  Biso   1.000  H
  O9       1.0000 0.49757  0.37846  0.90482  Biso   1.000  O
  H41      1.0000 0.91307  0.11127  0.93328  Biso   1.000  H
  H42      1.0000 0.92584  0.04907  0.94108  Biso   1.000  H
  C54      1.0000 0.84716  0.24618  0.05754  Biso   1.000  C
  C55      1.0000 0.84842  0.22000  0.05214  Biso   1.000  C
  O10      1.0000 0.93546  0.40764  0.07747  Biso   1.000  O
  O11      1.0000 0.96060  0.35735  0.07643  Biso   1.000  O
  C56      1.0000 0.44006  0.32517  0.85186  Biso   1.000  C
  H43      1.0000 0.83202  0.28005  0.09126  Biso   1.000  H
  H44      1.0000 0.82861  0.26044  0.08115  Biso   1.000  H
  C57      1.0000 0.93272  0.42978  0.14274  Biso   1.000  C
  C58      1.0000 0.94151  0.41205  0.12713  Biso   1.000  C
  H45      1.0000 0.89601  0.45652  0.10833  Biso   1.000  H
  H46      1.0000 0.42650  0.24421  0.86560  Biso   1.000  H
  H47      1.0000 0.39886  0.38212  0.83989  Biso   1.000  H
  H48      1.0000 0.45546  0.31279  0.81398  Biso   1.000  H
  H49      1.0000 0.94912  0.35463  0.16963  Biso   1.000  H
  H50      1.0000 0.96395  0.50061  0.16296  Biso   1.000  H
  H51      1.0000 0.88341  0.44901  0.13955  Biso   1.000  H
  H52      1.0000 0.93650  0.34600  0.15682  Biso   1.000  H
  H53      1.0000 0.97893  0.47106  0.15152  Biso   1.000  H
  C59      1.0000 0.36340  0.59189  0.30442  Biso   1.000  C
  C60      1.0000 0.33279  0.47640  0.27870  Biso   1.000  C
  C61      1.0000 0.42446  0.63505  0.29426  Biso   1.000  C
  H54      1.0000 0.34188  0.64134  0.32910  Biso   1.000  H
  C62      1.0000 0.36539  0.40173  0.24415  Biso   1.000  C
  C63      1.0000 0.26265  0.44216  0.28837  Biso   1.000  C
  C64      1.0000 0.45932  0.55878  0.26256  Biso   1.000  C
  O12      1.0000 0.45494  0.75260  0.31139  Biso   1.000  O
  C65      1.0000 0.33202  0.28380  0.20656  Biso   1.000  C
  C66      1.0000 0.43000  0.44376  0.23880  Biso   1.000  C
  H55      1.0000 0.25441  0.35078  0.28140  Biso   1.000  H
  H56      1.0000 0.26651  0.46102  0.33421  Biso   1.000  H
  C67      1.0000 0.19902  0.51252  0.24185  Biso   1.000  C
  H57      1.0000 0.50267  0.58561  0.25731  Biso   1.000  H
  C68      1.0000 0.42714  0.83582  0.34761  Biso   1.000  C
  C69      1.0000 0.29074  0.31973  0.13579  Biso   1.000  C
  H58      1.0000 0.36990  0.22244  0.20798  Biso   1.000  H
  H59      1.0000 0.29929  0.24477  0.22668  Biso   1.000  H
  H60      1.0000 0.45451  0.39112  0.21809  Biso   1.000  H
  C70      1.0000 0.15617  0.46458  0.18080  Biso   1.000  C
  C71      1.0000 0.18255  0.63233  0.25927  Biso   1.000  C
  O13      1.0000 0.35298  0.86068  0.32052  Biso   1.000  O
  H61      1.0000 0.43731  0.80054  0.39212  Biso   1.000  H
  H62      1.0000 0.45318  0.91641  0.35251  Biso   1.000  H
  C72      1.0000 0.32985  0.32902  0.09305  Biso   1.000  C
  C73      1.0000 0.21792  0.35060  0.11312  Biso   1.000  C
  C74      1.0000 0.16984  0.33915  0.15449  Biso   1.000  C
  C75      1.0000 0.09972  0.53682  0.14016  Biso   1.000  C
  C76      1.0000 0.12843  0.70419  0.21878  Biso   1.000  C
  H63      1.0000 0.21021  0.66488  0.30098  Biso   1.000  H
  C77      1.0000 0.32223  0.91115  0.25843  Biso   1.000  C
  C78      1.0000 0.29917  0.37527  0.03048  Biso   1.000  C
  H64      1.0000 0.37852  0.30284  0.10762  Biso   1.000  H
  C79      1.0000 0.18787  0.39563  0.04913  Biso   1.000  C
  H65      1.0000 0.12350  0.30172  0.12750  Biso   1.000  H
  H66      1.0000 0.19248  0.28183  0.19179  Biso   1.000  H
  H67      1.0000 0.06957  0.50314  0.09958  Biso   1.000  H
  C80      1.0000 0.08710  0.65682  0.15817  Biso   1.000  C
  H68      1.0000 0.11929  0.78563  0.23198  Biso   1.000  H
  C81      1.0000 0.35433  0.92617  0.21132  Biso   1.000  C
  C82      1.0000 0.25082  0.94784  0.24361  Biso   1.000  C
  C83      1.0000 0.22764  0.40914  0.00815  Biso   1.000  C
  O14      1.0000 0.33533  0.38362  0.98616  Biso   1.000  O
  H69      1.0000 0.13859  0.41768  0.03318  Biso   1.000  H
  O15      1.0000 0.03489  0.73891  0.12068  Biso   1.000  O
  C84      1.0000 0.31584  0.97279  0.14860  Biso   1.000  C
  H70      1.0000 0.40339  0.90431  0.22168  Biso   1.000  H
  O16      1.0000 0.21916  0.93968  0.29122  Biso   1.000  O
  C85      1.0000 0.21267  0.99034  0.18192  Biso   1.000  C
  H71      1.0000 0.20593  0.44132  0.96496  Biso   1.000  H
  C86      1.0000 0.40660  0.43184  0.00859  Biso   1.000  C
  C87      1.0000 0.98871  0.71451  0.06179  Biso   1.000  C
  C88      1.0000 0.99496  0.68412  0.04584  Biso   1.000  C
  C89      1.0000 0.35615  0.99278  0.10095  Biso   1.000  C
  C90      1.0000 0.24281  0.00141  0.13265  Biso   1.000  C
  C91      1.0000 0.23819  0.04259  0.33627  Biso   1.000  C
  H72      1.0000 0.16388  0.01313  0.17231  Biso   1.000  H
  H73      1.0000 0.42317  0.44329  0.05678  Biso   1.000  H
  O17      1.0000 0.40823  0.54855  0.97752  Biso   1.000  O
  H74      1.0000 0.43900  0.37161  0.99814  Biso   1.000  H
  O18      1.0000 0.02212  0.67342  0.01521  Biso   1.000  O
  H75      1.0000 0.96019  0.79097  0.04451  Biso   1.000  H
  H76      1.0000 0.95539  0.64847  0.06571  Biso   1.000  H
  H77      1.0000 0.94650  0.65250  0.04073  Biso   1.000  H
  O19      1.0000 0.99120  0.78141  0.00584  Biso   1.000  O
  H78      1.0000 0.02323  0.61488  0.03632  Biso   1.000  H
  C92      1.0000 0.36679  0.87485  0.06596  Biso   1.000  C
  H79      1.0000 0.32970  0.05488  0.06748  Biso   1.000  H
  H80      1.0000 0.40366  0.02890  0.12529  Biso   1.000  H
  C93      1.0000 0.19258  0.03209  0.06532  Biso   1.000  C
  C94      1.0000 0.19800  0.05104  0.06203  Biso   1.000  C
  H81      1.0000 0.29029  0.04409  0.35821  Biso   1.000  H
  H82      1.0000 0.21481  0.03284  0.36910  Biso   1.000  H
  H83      1.0000 0.22258  0.12140  0.31232  Biso   1.000  H
  C95      1.0000 0.39388  0.65381  0.00903  Biso   1.000  C
  C96      1.0000 0.07428  0.74397  0.00280  Biso   1.000  C
  C97      1.0000 0.05823  0.80645  0.99956  Biso   1.000  C
  C98      1.0000 0.42795  0.80242  0.09707  Biso   1.000  C
  C99      1.0000 0.32000  0.83741  0.00461  Biso   1.000  C
  C100     1.0000 0.15999  0.91359  0.02100  Biso   1.000  C
  C101     1.0000 0.16193  0.94727  0.02812  Biso   1.000  C
  H84      1.0000 0.21839  0.08415  0.04270  Biso   1.000  H
  H85      1.0000 0.15277  0.08331  0.06939  Biso   1.000  H
  H86      1.0000 0.16370  0.11633  0.06522  Biso   1.000  H
  H87      1.0000 0.22991  0.08734  0.04063  Biso   1.000  H
  C102     1.0000 0.44234  0.69331  0.06920  Biso   1.000  C
  C103     1.0000 0.33474  0.72596  0.97728  Biso   1.000  C
  C104     1.0000 0.10451  0.85374  0.03479  Biso   1.000  C
  C105     1.0000 0.09946  0.69584  0.95465  Biso   1.000  C
  C106     1.0000 0.08206  0.73787  0.95578  Biso   1.000  C
  C107     1.0000 0.09424  0.90515  0.03180  Biso   1.000  C
  H88      1.0000 0.46039  0.82897  0.13839  Biso   1.000  H
  C108     1.0000 0.25542  0.91500  0.96403  Biso   1.000  C
  C109     1.0000 0.24996  0.90299  0.96898  Biso   1.000  C
  C110     1.0000 0.18903  0.86181  0.97556  Biso   1.000  C
  C111     1.0000 0.18297  0.87907  0.98538  Biso   1.000  C
  O20      1.0000 0.50239  0.62163  0.09516  Biso   1.000  O
  H89      1.0000 0.30305  0.69950  0.93566  Biso   1.000  H
  H90      1.0000 0.08688  0.88873  0.06669  Biso   1.000  H
  C112     1.0000 0.15285  0.75382  0.94243  Biso   1.000  C
  C113     1.0000 0.15155  0.78000  0.94788  Biso   1.000  C
  O21      1.0000 0.06456  0.59246  0.92256  Biso   1.000  O
  O22      1.0000 0.03937  0.64274  0.92359  Biso   1.000  O
  H91      1.0000 0.07413  0.95093  0.05894  Biso   1.000  H
  H92      1.0000 0.24964  0.91078  0.91687  Biso   1.000  H
  H93      1.0000 0.25988  0.99465  0.97507  Biso   1.000  H
  H94      1.0000 0.23815  0.88564  0.92197  Biso   1.000  H
  H95      1.0000 0.26233  0.00441  0.97787  Biso   1.000  H
  C114     1.0000 0.55990  0.67483  0.14811  Biso   1.000  C
  H96      1.0000 0.16795  0.72005  0.90877  Biso   1.000  H
  H97      1.0000 0.17136  0.73966  0.91888  Biso   1.000  H
  C115     1.0000 0.06723  0.57022  0.85724  Biso   1.000  C
  C116     1.0000 0.05846  0.58805  0.87289  Biso   1.000  C
  H98      1.0000 0.10396  0.54348  0.89169  Biso   1.000  H
  H99      1.0000 0.57348  0.75579  0.13442  Biso   1.000  H
  H100     1.0000 0.60110  0.61788  0.16009  Biso   1.000  H
  H101     1.0000 0.54450  0.68721  0.18600  Biso   1.000  H
  H102     1.0000 0.05083  0.64546  0.83034  Biso   1.000  H
  H103     1.0000 0.03602  0.49939  0.83707  Biso   1.000  H
  H104     1.0000 0.11654  0.55099  0.86043  Biso   1.000  H
  H105     1.0000 0.06345  0.65400  0.84315  Biso   1.000  H
  H106     1.0000 0.02108  0.52904  0.84845  Biso   1.000  H
