data_image0
_cell_length_a       12.273
_cell_length_b       15.102
_cell_length_c       15.213
_cell_angle_alpha    90.8
_cell_angle_beta     101.8
_cell_angle_gamma    93.91

_symmetry_space_group_name_H-M    "P 1"
_symmetry_int_tables_number       1

loop_
  _symmetry_equiv_pos_as_xyz
  'x, y, z'

loop_
  _atom_site_label
  _atom_site_occupancy
  _atom_site_fract_x
  _atom_site_fract_y
  _atom_site_fract_z
  _atom_site_thermal_displace_type
  _atom_site_B_iso_or_equiv
  _atom_site_type_symbol
  O1       1.0000 0.59511  0.39288  0.48060  Biso   1.000  O
  C1       1.0000 0.53032  0.35865  0.40348  Biso   1.000  C
  C2       1.0000 0.57223  0.36685  0.56451  Biso   1.000  C
  N1       1.0000 0.44631  0.29979  0.40624  Biso   1.000  N
  C3       1.0000 0.55852  0.38851  0.32327  Biso   1.000  C
  C4       1.0000 0.65986  0.33787  0.62665  Biso   1.000  C
  C5       1.0000 0.46905  0.37600  0.58547  Biso   1.000  C
  C6       1.0000 0.38350  0.26994  0.32938  Biso   1.000  C
  C7       1.0000 0.48930  0.35698  0.24353  Biso   1.000  C
  C8       1.0000 0.65449  0.44937  0.32555  Biso   1.000  C
  H1       1.0000 0.73126  0.33514  0.61221  Biso   1.000  H
  C9       1.0000 0.64282  0.31288  0.71009  Biso   1.000  C
  C10      1.0000 0.45261  0.34963  0.66918  Biso   1.000  C
  H2       1.0000 0.41065  0.39984  0.54362  Biso   1.000  H
  O2       1.0000 0.29774  0.20992  0.32851  Biso   1.000  O
  C11      1.0000 0.39852  0.29782  0.24474  Biso   1.000  C
  H3       1.0000 0.50439  0.37625  0.18770  Biso   1.000  H
  N2       1.0000 0.73270  0.49638  0.32858  Biso   1.000  N
  H4       1.0000 0.70306  0.29306  0.75309  Biso   1.000  H
  C12      1.0000 0.53773  0.31648  0.73179  Biso   1.000  C
  H5       1.0000 0.38160  0.35429  0.68389  Biso   1.000  H
  C13      1.0000 0.26506  0.18671  0.40912  Biso   1.000  C
  C14      1.0000 0.31623  0.27071  0.16627  Biso   1.000  C
  C15      1.0000 0.51460  0.28470  0.81919  Biso   1.000  C
  C16      1.0000 0.15691  0.20343  0.41376  Biso   1.000  C
  C17      1.0000 0.33391  0.14469  0.47704  Biso   1.000  C
  N3       1.0000 0.24564  0.25055  0.10567  Biso   1.000  N
  C18      1.0000 0.55035  0.20796  0.85607  Biso   1.000  C
  C19      1.0000 0.44316  0.34158  0.86151  Biso   1.000  C
  C20      1.0000 0.11684  0.17712  0.48813  Biso   1.000  C
  H6       1.0000 0.11120  0.23256  0.36653  Biso   1.000  H
  H7       1.0000 0.40795  0.13355  0.47261  Biso   1.000  H
  C21      1.0000 0.29244  0.11957  0.55128  Biso   1.000  C
  C22      1.0000 0.60788  0.14185  0.81146  Biso   1.000  C
  C23      1.0000 0.53099  0.18150  0.94629  Biso   1.000  C
  C24      1.0000 0.46847  0.43260  0.87401  Biso   1.000  C
  C25      1.0000 0.34663  0.30609  0.88556  Biso   1.000  C
  C26      1.0000 0.18405  0.13471  0.55840  Biso   1.000  C
  H8       1.0000 0.04251  0.18785  0.49189  Biso   1.000  H
  H9       1.0000 0.33900  0.09124  0.59871  Biso   1.000  H
  C27      1.0000 0.56693  0.11326  0.72238  Biso   1.000  C
  C28      1.0000 0.70242  0.10483  0.85883  Biso   1.000  C
  C29      1.0000 0.45744  0.10860  0.95221  Biso   1.000  C
  C30      1.0000 0.58453  0.22652  0.02463  Biso   1.000  C
  H10      1.0000 0.53506  0.45847  0.85943  Biso   1.000  H
  C31      1.0000 0.39805  0.48624  0.90726  Biso   1.000  C
  C32      1.0000 0.27476  0.35835  0.91936  Biso   1.000  C
  H11      1.0000 0.32893  0.24378  0.87878  Biso   1.000  H
  C33      1.0000 0.13883  0.10953  0.63969  Biso   1.000  C
  H12      1.0000 0.50189  0.13699  0.68873  Biso   1.000  H
  C34      1.0000 0.62091  0.05000  0.68241  Biso   1.000  C
  C35      1.0000 0.75657  0.04270  0.81852  Biso   1.000  C
  H13      1.0000 0.73053  0.12242  0.91989  Biso   1.000  H
  H14      1.0000 0.42239  0.07557  0.89913  Biso   1.000  H
  C36      1.0000 0.43425  0.08311  0.03437  Biso   1.000  C
  H15      1.0000 0.63464  0.27676  0.02214  Biso   1.000  H
  C37      1.0000 0.56472  0.19806  0.10732  Biso   1.000  C
  H16      1.0000 0.41617  0.54827  0.91579  Biso   1.000  H
  C38      1.0000 0.30136  0.44833  0.92795  Biso   1.000  C
  H17      1.0000 0.20925  0.33267  0.93588  Biso   1.000  H
  C39      1.0000 0.08237  0.18220  0.67737  Biso   1.000  C
  C40      1.0000 0.15106  0.02758  0.67583  Biso   1.000  C
  H18      1.0000 0.59200  0.03058  0.62202  Biso   1.000  H
  C41      1.0000 0.71548  0.01590  0.72991  Biso   1.000  C
  H19      1.0000 0.82163  0.01868  0.85171  Biso   1.000  H
  C42      1.0000 0.48844  0.12736  0.11136  Biso   1.000  C
  H20      1.0000 0.38078  0.03505  0.03672  Biso   1.000  H
  H21      1.0000 0.60402  0.22766  0.16127  Biso   1.000  H
  O3       1.0000 0.23416  0.50810  0.96228  Biso   1.000  O
  C43      1.0000 0.12246  0.27046  0.67193  Biso   1.000  C
  C44      1.0000 0.98765  0.16645  0.71426  Biso   1.000  C
  C45      1.0000 0.12112  0.00190  0.76296  Biso   1.000  C
  C46      1.0000 0.20236  0.95670  0.63136  Biso   1.000  C
  H22      1.0000 0.75288  0.97390  0.70203  Biso   1.000  H
  H23      1.0000 0.47370  0.10970  0.16772  Biso   1.000  H
  C47      1.0000 0.12576  0.51114  0.92191  Biso   1.000  C
  C48      1.0000 0.07168  0.34040  0.70210  Biso   1.000  C
  H24      1.0000 0.18642  0.28269  0.64667  Biso   1.000  H
  H25      1.0000 0.95751  0.10728  0.71748  Biso   1.000  H
  C49      1.0000 0.93685  0.23585  0.74610  Biso   1.000  C
  C50      1.0000 0.16330  0.05047  0.84223  Biso   1.000  C
  C51      1.0000 0.05224  0.92614  0.76639  Biso   1.000  C
  C52      1.0000 0.16303  0.92976  0.54201  Biso   1.000  C
  C53      1.0000 0.29382  0.91681  0.68040  Biso   1.000  C
  N4       1.0000 0.07754  0.44899  0.86219  Biso   1.000  N
  C54      1.0000 0.07006  0.58275  0.94750  Biso   1.000  C
  H26      1.0000 0.09953  0.40007  0.69739  Biso   1.000  H
  C55      1.0000 0.97974  0.32160  0.73904  Biso   1.000  C
  H27      1.0000 0.87365  0.22458  0.77243  Biso   1.000  H
  H28      1.0000 0.21058  0.10302  0.84163  Biso   1.000  H
  C56      1.0000 0.13655  0.02242  0.92312  Biso   1.000  C
  C57      1.0000 0.02517  0.89899  0.84633  Biso   1.000  C
  H29      1.0000 0.02276  0.89210  0.71278  Biso   1.000  H
  H30      1.0000 0.09805  0.95384  0.50882  Biso   1.000  H
  C58      1.0000 0.21622  0.86871  0.50042  Biso   1.000  C
  C59      1.0000 0.34824  0.85675  0.63854  Biso   1.000  C
  H31      1.0000 0.31876  0.93091  0.74261  Biso   1.000  H
  C60      1.0000 0.97071  0.45397  0.82450  Biso   1.000  C
  C61      1.0000 0.95918  0.58699  0.90726  Biso   1.000  C
  C62      1.0000 0.12724  0.64825  0.01321  Biso   1.000  C
  O4       1.0000 0.91851  0.39049  0.76464  Biso   1.000  O
  H32      1.0000 0.16552  0.05567  0.97720  Biso   1.000  H
  C63      1.0000 0.06810  0.94639  0.92413  Biso   1.000  C
  H33      1.0000 0.97668  0.84738  0.84700  Biso   1.000  H
  H34      1.0000 0.18817  0.85146  0.43922  Biso   1.000  H
  C64      1.0000 0.31085  0.83271  0.54879  Biso   1.000  C
  H35      1.0000 0.41223  0.83175  0.67200  Biso   1.000  H
  C65      1.0000 0.90615  0.52211  0.84492  Biso   1.000  C
  H36      1.0000 0.91900  0.63447  0.92238  Biso   1.000  H
  N5       1.0000 0.17192  0.69962  0.06702  Biso   1.000  N
  H37      1.0000 0.05066  0.92703  0.97908  Biso   1.000  H
  H38      1.0000 0.34948  0.79203  0.52051  Biso   1.000  H
  C66      1.0000 0.79130  0.52173  0.80340  Biso   1.000  C
  N6       1.0000 0.69785  0.52054  0.77069  Biso   1.000  N
  O5       1.0000 0.40498  0.60723  0.51943  Biso   1.000  O
  C67      1.0000 0.42784  0.63326  0.43546  Biso   1.000  C
  C68      1.0000 0.46975  0.64146  0.59649  Biso   1.000  C
  C69      1.0000 0.34022  0.66224  0.37339  Biso   1.000  C
  C70      1.0000 0.53101  0.62404  0.41450  Biso   1.000  C
  C71      1.0000 0.44156  0.61161  0.67677  Biso   1.000  C
  N7       1.0000 0.55378  0.70032  0.59380  Biso   1.000  N
  C72      1.0000 0.35727  0.68723  0.28995  Biso   1.000  C
  H39      1.0000 0.26891  0.66497  0.38783  Biso   1.000  H
  C73      1.0000 0.54748  0.65049  0.33086  Biso   1.000  C
  H40      1.0000 0.58943  0.60027  0.45642  Biso   1.000  H
  C74      1.0000 0.51076  0.64313  0.75644  Biso   1.000  C
  C75      1.0000 0.34558  0.55074  0.67442  Biso   1.000  C
  C76      1.0000 0.61658  0.73017  0.67066  Biso   1.000  C
  C77      1.0000 0.46234  0.68363  0.26818  Biso   1.000  C
  H41      1.0000 0.29709  0.70705  0.24689  Biso   1.000  H
  H42      1.0000 0.61846  0.64582  0.31608  Biso   1.000  H
  H43      1.0000 0.49569  0.62386  0.81234  Biso   1.000  H
  C78      1.0000 0.60156  0.70230  0.75530  Biso   1.000  C
  N8       1.0000 0.26739  0.50374  0.67146  Biso   1.000  N
  O6       1.0000 0.70234  0.79020  0.67153  Biso   1.000  O
  C79      1.0000 0.48548  0.71541  0.18085  Biso   1.000  C
  C80      1.0000 0.68386  0.72940  0.83377  Biso   1.000  C
  C81      1.0000 0.73503  0.81341  0.59091  Biso   1.000  C
  C82      1.0000 0.55692  0.65853  0.13852  Biso   1.000  C
  C83      1.0000 0.44973  0.79209  0.14397  Biso   1.000  C
  N9       1.0000 0.75444  0.74957  0.89436  Biso   1.000  N
  C84      1.0000 0.84318  0.79668  0.58628  Biso   1.000  C
  C85      1.0000 0.66617  0.85542  0.52299  Biso   1.000  C
  C86      1.0000 0.53161  0.56751  0.12603  Biso   1.000  C
  C87      1.0000 0.65344  0.69402  0.11441  Biso   1.000  C
  C88      1.0000 0.39218  0.85826  0.18851  Biso   1.000  C
  C89      1.0000 0.46908  0.81861  0.05368  Biso   1.000  C
  C90      1.0000 0.88323  0.82299  0.51184  Biso   1.000  C
  H44      1.0000 0.88888  0.76755  0.63351  Biso   1.000  H
  H45      1.0000 0.59221  0.86657  0.52743  Biso   1.000  H
  C91      1.0000 0.70764  0.88054  0.44876  Biso   1.000  C
  H46      1.0000 0.46502  0.54164  0.14061  Biso   1.000  H
  C92      1.0000 0.60202  0.51387  0.09271  Biso   1.000  C
  C93      1.0000 0.72532  0.64176  0.08068  Biso   1.000  C
  H47      1.0000 0.67114  0.75633  0.12119  Biso   1.000  H
  C94      1.0000 0.43315  0.88679  0.27765  Biso   1.000  C
  C95      1.0000 0.29767  0.89528  0.14121  Biso   1.000  C
  C96      1.0000 0.54265  0.89152  0.04783  Biso   1.000  C
  C97      1.0000 0.41556  0.77359  0.97541  Biso   1.000  C
  C98      1.0000 0.81603  0.86541  0.44164  Biso   1.000  C
  H48      1.0000 0.95756  0.81226  0.50808  Biso   1.000  H
  H49      1.0000 0.66108  0.90887  0.40133  Biso   1.000  H
  H50      1.0000 0.58390  0.45184  0.08418  Biso   1.000  H
  C99      1.0000 0.69871  0.55178  0.07202  Biso   1.000  C
  H51      1.0000 0.79081  0.66738  0.06409  Biso   1.000  H
  H52      1.0000 0.49819  0.86312  0.31131  Biso   1.000  H
  C100     1.0000 0.37917  0.95011  0.31763  Biso   1.000  C
  C101     1.0000 0.24351  0.95742  0.18152  Biso   1.000  C
  H53      1.0000 0.26953  0.87769  0.08008  Biso   1.000  H
  H54      1.0000 0.57769  0.92454  0.10090  Biso   1.000  H
  C102     1.0000 0.56592  0.91701  0.96567  Biso   1.000  C
  H55      1.0000 0.36545  0.72335  0.97790  Biso   1.000  H
  C103     1.0000 0.43534  0.80205  0.89265  Biso   1.000  C
  C104     1.0000 0.86124  0.89059  0.36029  Biso   1.000  C
  O7       1.0000 0.76592  0.49201  0.03776  Biso   1.000  O
  H56      1.0000 0.40809  0.96954  0.37802  Biso   1.000  H
  C105     1.0000 0.28460  0.98421  0.27013  Biso   1.000  C
  H57      1.0000 0.17845  0.98143  0.14833  Biso   1.000  H
  C106     1.0000 0.51173  0.87275  0.88868  Biso   1.000  C
  H58      1.0000 0.61929  0.96506  0.96325  Biso   1.000  H
  H59      1.0000 0.39606  0.77245  0.83877  Biso   1.000  H
  C107     1.0000 0.91779  0.81791  0.32266  Biso   1.000  C
  C108     1.0000 0.84909  0.97253  0.32414  Biso   1.000  C
  C109     1.0000 0.87431  0.48897  0.07806  Biso   1.000  C
  H60      1.0000 0.24720  0.02621  0.29801  Biso   1.000  H
  H61      1.0000 0.52636  0.89041  0.83225  Biso   1.000  H
  C110     1.0000 0.87763  0.72966  0.32811  Biso   1.000  C
  C111     1.0000 0.01241  0.83359  0.28572  Biso   1.000  C
  C112     1.0000 0.87896  0.99821  0.23708  Biso   1.000  C
  C113     1.0000 0.79771  0.04341  0.36862  Biso   1.000  C
  C114     1.0000 0.93001  0.41736  0.05247  Biso   1.000  C
  N10      1.0000 0.92253  0.55112  0.13779  Biso   1.000  N
  C115     1.0000 0.92848  0.65971  0.29794  Biso   1.000  C
  H62      1.0000 0.81365  0.71743  0.35330  Biso   1.000  H
  C116     1.0000 0.06323  0.76420  0.25394  Biso   1.000  C
  H63      1.0000 0.04255  0.89283  0.28249  Biso   1.000  H
  C117     1.0000 0.83677  0.94964  0.15774  Biso   1.000  C
  C118     1.0000 0.94792  0.07398  0.23365  Biso   1.000  C
  C119     1.0000 0.83714  0.07036  0.45803  Biso   1.000  C
  C120     1.0000 0.70626  0.08331  0.31964  Biso   1.000  C
  C121     1.0000 0.87284  0.35186  0.98683  Biso   1.000  C
  C122     1.0000 0.04089  0.41312  0.09271  Biso   1.000  C
  C123     1.0000 0.02946  0.54615  0.17554  Biso   1.000  C
  C124     1.0000 0.02034  0.67851  0.26099  Biso   1.000  C
  H64      1.0000 0.90053  0.60004  0.30258  Biso   1.000  H
  H65      1.0000 0.12643  0.77553  0.22761  Biso   1.000  H
  H66      1.0000 0.78959  0.89710  0.15841  Biso   1.000  H
  C125     1.0000 0.86353  0.97769  0.07692  Biso   1.000  C
  C126     1.0000 0.97491  0.10112  0.15371  Biso   1.000  C
  H67      1.0000 0.97731  0.10801  0.28719  Biso   1.000  H
  H68      1.0000 0.90203  0.04627  0.49122  Biso   1.000  H
  C127     1.0000 0.78393  0.13140  0.49955  Biso   1.000  C
  C128     1.0000 0.65184  0.14336  0.36149  Biso   1.000  C
  H69      1.0000 0.68133  0.06920  0.25743  Biso   1.000  H
  N11      1.0000 0.82815  0.30049  0.93295  Biso   1.000  N
  H70      1.0000 0.08107  0.36564  0.07759  Biso   1.000  H
  C129     1.0000 0.09393  0.47794  0.15512  Biso   1.000  C
  O8       1.0000 0.08155  0.60963  0.23533  Biso   1.000  O
  H71      1.0000 0.83455  0.94444  0.02277  Biso   1.000  H
  C130     1.0000 0.93199  0.05372  0.07591  Biso   1.000  C
  H72      1.0000 0.02338  0.15274  0.15297  Biso   1.000  H
  H73      1.0000 0.81191  0.14866  0.56082  Biso   1.000  H
  C131     1.0000 0.68922  0.16740  0.45118  Biso   1.000  C
  H74      1.0000 0.58783  0.16836  0.32797  Biso   1.000  H
  C132     1.0000 0.20876  0.47838  0.19657  Biso   1.000  C
  H75      1.0000 0.94941  0.07308  0.02089  Biso   1.000  H
  H76      1.0000 0.65061  0.20809  0.47953  Biso   1.000  H
  N12      1.0000 0.30222  0.47957  0.22928  Biso   1.000  N
  Ne1      1.0000 0.30592  0.24563  0.69921  Biso   1.000  Ne
  He1      1.0000 0.18674  0.21403  0.82315  Biso   1.000  He
  He2      1.0000 0.38051  0.06199  0.76679  Biso   1.000  He
  He3      1.0000 0.30183  0.25528  0.61739  Biso   1.000  He
  He4      1.0000 0.43497  0.20785  0.62469  Biso   1.000  He
  Ar1      1.0000 0.32823  0.20864  0.71176  Biso   1.000  Ar
  Ne2      1.0000 0.69417  0.75448  0.30080  Biso   1.000  Ne
  He5      1.0000 0.69738  0.74635  0.37965  Biso   1.000  He
  He6      1.0000 0.58298  0.79409  0.35628  Biso   1.000  He
  He7      1.0000 0.53483  0.00704  0.19244  Biso   1.000  He
  He8      1.0000 0.75451  0.80620  0.21450  Biso   1.000  He
  Ar2      1.0000 0.67184  0.79147  0.28828  Biso   1.000  Ar
