data_image0
_cell_length_a       11.437
_cell_length_b       21.742
_cell_length_c       21.59
_cell_angle_alpha    90
_cell_angle_beta     104.27
_cell_angle_gamma    90

_symmetry_space_group_name_H-M    "P 1"
_symmetry_int_tables_number       1

loop_
  _symmetry_equiv_pos_as_xyz
  'x, y, z'

loop_
  _atom_site_label
  _atom_site_occupancy
  _atom_site_fract_x
  _atom_site_fract_y
  _atom_site_fract_z
  _atom_site_thermal_displace_type
  _atom_site_B_iso_or_equiv
  _atom_site_type_symbol
  C1       1.0000 0.59580  0.51228  0.40122  Biso   1.000  C
  C2       1.0000 0.52702  0.47631  0.35299  Biso   1.000  C
  C3       1.0000 0.71505  0.52810  0.40270  Biso   1.000  C
  H1       1.0000 0.56191  0.52640  0.43362  Biso   1.000  H
  C4       1.0000 0.57597  0.45419  0.30410  Biso   1.000  C
  O1       1.0000 0.40873  0.45962  0.34831  Biso   1.000  O
  C5       1.0000 0.76230  0.50598  0.35448  Biso   1.000  C
  C6       1.0000 0.78629  0.57009  0.45451  Biso   1.000  C
  C7       1.0000 0.50000  0.41588  0.25000  Biso   1.000  C
  C8       1.0000 0.69372  0.46941  0.30630  Biso   1.000  C
  C9       1.0000 0.35096  0.48399  0.39347  Biso   1.000  C
  O2       1.0000 0.88019  0.52401  0.35792  Biso   1.000  O
  H2       1.0000 0.76450  0.56182  0.49432  Biso   1.000  H
  H3       1.0000 0.87181  0.56191  0.46091  Biso   1.000  H
  C10      1.0000 0.76193  0.63688  0.43692  Biso   1.000  C
  H4       1.0000 0.55298  0.38952  0.23289  Biso   1.000  H
  H5       1.0000 0.44701  0.38952  0.26711  Biso   1.000  H
  C11      1.0000 0.42402  0.45419  0.19590  Biso   1.000  C
  H6       1.0000 0.72842  0.45479  0.27452  Biso   1.000  H
  H7       1.0000 0.26693  0.47360  0.38162  Biso   1.000  H
  H8       1.0000 0.35968  0.52792  0.39491  Biso   1.000  H
  H9       1.0000 0.38721  0.46721  0.43491  Biso   1.000  H
  C12      1.0000 0.94667  0.49062  0.32322  Biso   1.000  C
  C13      1.0000 0.82888  0.66751  0.40040  Biso   1.000  C
  C14      1.0000 0.66885  0.66861  0.45278  Biso   1.000  C
  C15      1.0000 0.30627  0.46941  0.19370  Biso   1.000  C
  C16      1.0000 0.47297  0.47631  0.14701  Biso   1.000  C
  H10      1.0000 0.90885  0.49388  0.27839  Biso   1.000  H
  H11      1.0000 0.94986  0.44821  0.33588  Biso   1.000  H
  H12      1.0000 0.02720  0.50690  0.33149  Biso   1.000  H
  H13      1.0000 0.89249  0.64700  0.38960  Biso   1.000  H
  C17      1.0000 0.80360  0.72739  0.38009  Biso   1.000  C
  O3       1.0000 0.60607  0.63600  0.48925  Biso   1.000  O
  C18      1.0000 0.64377  0.72928  0.43329  Biso   1.000  C
  H14      1.0000 0.27157  0.45479  0.22548  Biso   1.000  H
  C19      1.0000 0.23767  0.50598  0.14548  Biso   1.000  C
  O4       1.0000 0.59126  0.45962  0.15169  Biso   1.000  O
  C20      1.0000 0.40419  0.51228  0.09879  Biso   1.000  C
  O5       1.0000 0.86573  0.75954  0.34301  Biso   1.000  O
  C21      1.0000 0.70928  0.75922  0.39649  Biso   1.000  C
  C22      1.0000 0.50580  0.66461  0.50450  Biso   1.000  C
  H15      1.0000 0.58181  0.74998  0.44519  Biso   1.000  H
  O6       1.0000 0.11980  0.52401  0.14209  Biso   1.000  O
  C23      1.0000 0.28494  0.52810  0.09731  Biso   1.000  C
  C24      1.0000 0.64900  0.48399  0.10648  Biso   1.000  C
  H16      1.0000 0.43808  0.52640  0.06638  Biso   1.000  H
  C25      1.0000 0.97766  0.73618  0.33909  Biso   1.000  C
  C26      1.0000 0.67843  0.82518  0.37359  Biso   1.000  C
  H17      1.0000 0.47096  0.63711  0.52978  Biso   1.000  H
  H18      1.0000 0.44678  0.67450  0.46578  Biso   1.000  H
  H19      1.0000 0.53152  0.70150  0.52820  Biso   1.000  H
  C27      1.0000 0.05332  0.49062  0.17678  Biso   1.000  C
  C28      1.0000 0.21370  0.57009  0.04550  Biso   1.000  C
  H20      1.0000 0.73306  0.47360  0.11838  Biso   1.000  H
  H21      1.0000 0.64032  0.52792  0.10510  Biso   1.000  H
  H22      1.0000 0.61278  0.46721  0.06509  Biso   1.000  H
  H23      1.0000 0.96618  0.69782  0.31648  Biso   1.000  H
  H24      1.0000 0.01598  0.76488  0.31658  Biso   1.000  H
  H25      1.0000 0.02764  0.72988  0.38129  Biso   1.000  H
  H26      1.0000 0.64648  0.84721  0.40490  Biso   1.000  H
  H27      1.0000 0.75110  0.84610  0.36948  Biso   1.000  H
  C29      1.0000 0.58574  0.82568  0.30931  Biso   1.000  C
  H28      1.0000 0.09114  0.49388  0.22161  Biso   1.000  H
  H29      1.0000 0.05014  0.44821  0.16412  Biso   1.000  H
  H30      1.0000 0.97279  0.50690  0.16852  Biso   1.000  H
  H31      1.0000 0.23549  0.56182  0.00569  Biso   1.000  H
  H32      1.0000 0.12818  0.56191  0.03909  Biso   1.000  H
  C30      1.0000 0.23806  0.63688  0.06309  Biso   1.000  C
  C31      1.0000 0.62109  0.82559  0.25282  Biso   1.000  C
  C32      1.0000 0.46138  0.82472  0.30568  Biso   1.000  C
  C33      1.0000 0.17112  0.66751  0.09960  Biso   1.000  C
  C34      1.0000 0.33114  0.66861  0.04722  Biso   1.000  C
  C35      1.0000 0.53859  0.82472  0.19428  Biso   1.000  C
  H33      1.0000 0.70297  0.82619  0.25421  Biso   1.000  H
  C36      1.0000 0.37890  0.82559  0.24718  Biso   1.000  C
  O7       1.0000 0.43137  0.82550  0.36370  Biso   1.000  O
  H34      1.0000 0.10750  0.64700  0.11040  Biso   1.000  H
  C37      1.0000 0.19639  0.72739  0.11991  Biso   1.000  C
  O8       1.0000 0.39392  0.63600  0.01075  Biso   1.000  O
  C38      1.0000 0.35622  0.72928  0.06672  Biso   1.000  C
  C39      1.0000 0.41425  0.82568  0.19069  Biso   1.000  C
  O9       1.0000 0.56863  0.82550  0.13630  Biso   1.000  O
  H35      1.0000 0.29702  0.82619  0.24580  Biso   1.000  H
  C40      1.0000 0.31082  0.81621  0.36509  Biso   1.000  C
  O10      1.0000 0.13426  0.75954  0.15700  Biso   1.000  O
  C41      1.0000 0.29071  0.75922  0.10352  Biso   1.000  C
  C42      1.0000 0.49419  0.66461  0.99551  Biso   1.000  C
  H36      1.0000 0.41818  0.74998  0.05482  Biso   1.000  H
  C43      1.0000 0.32156  0.82518  0.12641  Biso   1.000  C
  C44      1.0000 0.68917  0.81621  0.13492  Biso   1.000  C
  H37      1.0000 0.28803  0.77449  0.35142  Biso   1.000  H
  H38      1.0000 0.26035  0.84380  0.33440  Biso   1.000  H
  C45      1.0000 0.28426  0.82669  0.43090  Biso   1.000  C
  C46      1.0000 0.31598  0.82532  0.43668  Biso   1.000  C
  C47      1.0000 0.02233  0.73618  0.16092  Biso   1.000  C
  H39      1.0000 0.55321  0.67450  0.03422  Biso   1.000  H
  H40      1.0000 0.52901  0.63711  0.97018  Biso   1.000  H
  H41      1.0000 0.46847  0.70150  0.97180  Biso   1.000  H
  H42      1.0000 0.35351  0.84721  0.09511  Biso   1.000  H
  H43      1.0000 0.24889  0.84610  0.13052  Biso   1.000  H
  H44      1.0000 0.71196  0.77449  0.14859  Biso   1.000  H
  H45      1.0000 0.73955  0.84380  0.16560  Biso   1.000  H
  C48      1.0000 0.71573  0.82669  0.06911  Biso   1.000  C
  C49      1.0000 0.68399  0.82532  0.06328  Biso   1.000  C
  O11      1.0000 0.22162  0.80471  0.44791  Biso   1.000  O
  O12      1.0000 0.34898  0.87559  0.46512  Biso   1.000  O
  H46      1.0000 0.29986  0.78981  0.45690  Biso   1.000  H
  H47      1.0000 0.20143  0.83939  0.42650  Biso   1.000  H
  C50      1.0000 0.37396  0.87890  0.45981  Biso   1.000  C
  H48      1.0000 0.03381  0.69782  0.18352  Biso   1.000  H
  H49      1.0000 0.98399  0.76488  0.18338  Biso   1.000  H
  H50      1.0000 0.97226  0.72988  0.11872  Biso   1.000  H
  O13      1.0000 0.77837  0.80471  0.05209  Biso   1.000  O
  O14      1.0000 0.65102  0.87559  0.03489  Biso   1.000  O
  H51      1.0000 0.70013  0.78981  0.04311  Biso   1.000  H
  H52      1.0000 0.79856  0.83939  0.07350  Biso   1.000  H
  C51      1.0000 0.62603  0.87890  0.04019  Biso   1.000  C
  C52      1.0000 0.34396  0.89099  0.52500  Biso   1.000  C
  H53      1.0000 0.45696  0.86570  0.46550  Biso   1.000  H
  H54      1.0000 0.35996  0.91542  0.43309  Biso   1.000  H
  C53      1.0000 0.33403  0.89601  0.52600  Biso   1.000  C
  H55      1.0000 0.54303  0.86570  0.03451  Biso   1.000  H
  H56      1.0000 0.64003  0.91542  0.06691  Biso   1.000  H
  C54      1.0000 0.65603  0.89099  0.97500  Biso   1.000  C
  C55      1.0000 0.66596  0.89601  0.97400  Biso   1.000  C
  H57      1.0000 0.40621  0.91519  0.55148  Biso   1.000  H
  H58      1.0000 0.33847  0.85199  0.54569  Biso   1.000  H
  H59      1.0000 0.26810  0.91192  0.51812  Biso   1.000  H
  H60      1.0000 0.37935  0.93340  0.53790  Biso   1.000  H
  H61      1.0000 0.36118  0.86519  0.55731  Biso   1.000  H
  H62      1.0000 0.24966  0.90461  0.52208  Biso   1.000  H
  H63      1.0000 0.59376  0.91519  0.94848  Biso   1.000  H
  H64      1.0000 0.66152  0.85199  0.95431  Biso   1.000  H
  H65      1.0000 0.73189  0.91192  0.98189  Biso   1.000  H
  H66      1.0000 0.62056  0.93340  0.96210  Biso   1.000  H
  H67      1.0000 0.63881  0.86519  0.94270  Biso   1.000  H
  H68      1.0000 0.75031  0.90461  0.97787  Biso   1.000  H
  C56      1.0000 0.64900  0.51601  0.60649  Biso   1.000  C
  O15      1.0000 0.59125  0.54038  0.65170  Biso   1.000  O
  H69      1.0000 0.73305  0.52640  0.61839  Biso   1.000  H
  H70      1.0000 0.64031  0.47208  0.60510  Biso   1.000  H
  H71      1.0000 0.61277  0.53279  0.56510  Biso   1.000  H
  C57      1.0000 0.47296  0.52369  0.64701  Biso   1.000  C
  C58      1.0000 0.40418  0.48772  0.59879  Biso   1.000  C
  C59      1.0000 0.42401  0.54581  0.69590  Biso   1.000  C
  C60      1.0000 0.28484  0.47190  0.59731  Biso   1.000  C
  H72      1.0000 0.43807  0.47360  0.56639  Biso   1.000  H
  C61      1.0000 0.30626  0.53059  0.69371  Biso   1.000  C
  C62      1.0000 0.49999  0.58412  0.75001  Biso   1.000  C
  C63      1.0000 0.21369  0.42991  0.54550  Biso   1.000  C
  C64      1.0000 0.23766  0.49402  0.64548  Biso   1.000  C
  H73      1.0000 0.27156  0.54521  0.72549  Biso   1.000  H
  H74      1.0000 0.44701  0.61048  0.76712  Biso   1.000  H
  H75      1.0000 0.55297  0.61048  0.73290  Biso   1.000  H
  C65      1.0000 0.57596  0.54581  0.80411  Biso   1.000  C
  C66      1.0000 0.23805  0.36312  0.56309  Biso   1.000  C
  H76      1.0000 0.23548  0.43818  0.50569  Biso   1.000  H
  H77      1.0000 0.12818  0.43809  0.53910  Biso   1.000  H
  O16      1.0000 0.11979  0.47599  0.64209  Biso   1.000  O
  C67      1.0000 0.69371  0.53059  0.80631  Biso   1.000  C
  C68      1.0000 0.52701  0.52369  0.85300  Biso   1.000  C
  C69      1.0000 0.33111  0.33139  0.54717  Biso   1.000  C
  C70      1.0000 0.17111  0.33249  0.59960  Biso   1.000  C
  C71      1.0000 0.05331  0.50938  0.67679  Biso   1.000  C
  H78      1.0000 0.72839  0.54521  0.77448  Biso   1.000  H
  C72      1.0000 0.76229  0.49402  0.85448  Biso   1.000  C
  O17      1.0000 0.40872  0.54038  0.84831  Biso   1.000  O
  C73      1.0000 0.59577  0.48772  0.90117  Biso   1.000  C
  O18      1.0000 0.39391  0.36400  0.51076  Biso   1.000  O
  C74      1.0000 0.35619  0.27072  0.56667  Biso   1.000  C
  H79      1.0000 0.10750  0.35300  0.61040  Biso   1.000  H
  C75      1.0000 0.19638  0.27261  0.61991  Biso   1.000  C
  H80      1.0000 0.09104  0.50612  0.72162  Biso   1.000  H
  H81      1.0000 0.05010  0.55179  0.66408  Biso   1.000  H
  H82      1.0000 0.97278  0.49310  0.66852  Biso   1.000  H
  O19      1.0000 0.88016  0.47599  0.85787  Biso   1.000  O
  C76      1.0000 0.71504  0.47190  0.90270  Biso   1.000  C
  C77      1.0000 0.35096  0.51601  0.89348  Biso   1.000  C
  H83      1.0000 0.56188  0.47360  0.93358  Biso   1.000  H
  C78      1.0000 0.49418  0.33539  0.49551  Biso   1.000  C
  C79      1.0000 0.29068  0.24078  0.60347  Biso   1.000  C
  H84      1.0000 0.41815  0.25002  0.55477  Biso   1.000  H
  O20      1.0000 0.13425  0.24046  0.65700  Biso   1.000  O
  C80      1.0000 0.94664  0.50938  0.82318  Biso   1.000  C
  C81      1.0000 0.78628  0.42991  0.95451  Biso   1.000  C
  H85      1.0000 0.26690  0.52640  0.88158  Biso   1.000  H
  H86      1.0000 0.35967  0.47208  0.89491  Biso   1.000  H
  H87      1.0000 0.38720  0.53279  0.93491  Biso   1.000  H
  H88      1.0000 0.52900  0.36289  0.47018  Biso   1.000  H
  H89      1.0000 0.55318  0.32550  0.53418  Biso   1.000  H
  H90      1.0000 0.46847  0.29850  0.47181  Biso   1.000  H
  C82      1.0000 0.32156  0.17482  0.62641  Biso   1.000  C
  C83      1.0000 0.02232  0.26382  0.66092  Biso   1.000  C
  H91      1.0000 0.90884  0.50612  0.77839  Biso   1.000  H
  H92      1.0000 0.94985  0.55179  0.83589  Biso   1.000  H
  H93      1.0000 0.02719  0.49310  0.83149  Biso   1.000  H
  C84      1.0000 0.76190  0.36312  0.93687  Biso   1.000  C
  H94      1.0000 0.76447  0.43818  0.99427  Biso   1.000  H
  H95      1.0000 0.87180  0.43809  0.96091  Biso   1.000  H
  H96      1.0000 0.35350  0.15279  0.59511  Biso   1.000  H
  H97      1.0000 0.24886  0.15390  0.63048  Biso   1.000  H
  C85      1.0000 0.41424  0.17432  0.69070  Biso   1.000  C
  H98      1.0000 0.03378  0.30218  0.68348  Biso   1.000  H
  H99      1.0000 0.98398  0.23512  0.68338  Biso   1.000  H
  H100     1.0000 0.97225  0.27012  0.61872  Biso   1.000  H
  C86      1.0000 0.82887  0.33249  0.90041  Biso   1.000  C
  C87      1.0000 0.66884  0.33139  0.95279  Biso   1.000  C
  C88      1.0000 0.37889  0.17441  0.74719  Biso   1.000  C
  C89      1.0000 0.53858  0.17528  0.69428  Biso   1.000  C
  C90      1.0000 0.80359  0.27261  0.88010  Biso   1.000  C
  H101     1.0000 0.89248  0.35300  0.88961  Biso   1.000  H
  C91      1.0000 0.64376  0.27072  0.93329  Biso   1.000  C
  O21      1.0000 0.60604  0.36400  0.98921  Biso   1.000  O
  H102     1.0000 0.29702  0.17381  0.74580  Biso   1.000  H
  C92      1.0000 0.46137  0.17528  0.80568  Biso   1.000  C
  O22      1.0000 0.56862  0.17450  0.63631  Biso   1.000  O
  C93      1.0000 0.62106  0.17441  0.75278  Biso   1.000  C
  C94      1.0000 0.70927  0.24078  0.89649  Biso   1.000  C
  O23      1.0000 0.86564  0.24046  0.84301  Biso   1.000  O
  H103     1.0000 0.58180  0.25002  0.94519  Biso   1.000  H
  C95      1.0000 0.50579  0.33539  0.00450  Biso   1.000  C
  O24      1.0000 0.43136  0.17450  0.86370  Biso   1.000  O
  C96      1.0000 0.58564  0.17432  0.80932  Biso   1.000  C
  C97      1.0000 0.68914  0.18379  0.63487  Biso   1.000  C
  H104     1.0000 0.70296  0.17381  0.75421  Biso   1.000  H
  C98      1.0000 0.67833  0.17482  0.87360  Biso   1.000  C
  C99      1.0000 0.97765  0.26382  0.83909  Biso   1.000  C
  H105     1.0000 0.44677  0.32550  0.96579  Biso   1.000  H
  H106     1.0000 0.47097  0.36289  0.02983  Biso   1.000  H
  H107     1.0000 0.53151  0.29850  0.02821  Biso   1.000  H
  C100     1.0000 0.31073  0.18379  0.86509  Biso   1.000  C
  H108     1.0000 0.71196  0.22551  0.64859  Biso   1.000  H
  H109     1.0000 0.73955  0.15620  0.66560  Biso   1.000  H
  C101     1.0000 0.71572  0.17331  0.56911  Biso   1.000  C
  C102     1.0000 0.68398  0.17468  0.56328  Biso   1.000  C
  H110     1.0000 0.64647  0.15279  0.90490  Biso   1.000  H
  H111     1.0000 0.75109  0.15390  0.86949  Biso   1.000  H
  H112     1.0000 0.96617  0.30218  0.81648  Biso   1.000  H
  H113     1.0000 0.01597  0.23512  0.81658  Biso   1.000  H
  H114     1.0000 0.02763  0.27012  0.88129  Biso   1.000  H
  H115     1.0000 0.28800  0.22551  0.85137  Biso   1.000  H
  H116     1.0000 0.26034  0.15620  0.83441  Biso   1.000  H
  C103     1.0000 0.28425  0.17331  0.93090  Biso   1.000  C
  C104     1.0000 0.31597  0.17468  0.93668  Biso   1.000  C
  O25      1.0000 0.77836  0.19529  0.55210  Biso   1.000  O
  O26      1.0000 0.65101  0.12441  0.53489  Biso   1.000  O
  H117     1.0000 0.70012  0.21019  0.54311  Biso   1.000  H
  H118     1.0000 0.79855  0.16061  0.57351  Biso   1.000  H
  C105     1.0000 0.62602  0.12110  0.54020  Biso   1.000  C
  O27      1.0000 0.22161  0.19529  0.94791  Biso   1.000  O
  O28      1.0000 0.34897  0.12441  0.96512  Biso   1.000  O
  H119     1.0000 0.29985  0.21019  0.95690  Biso   1.000  H
  H120     1.0000 0.20133  0.16061  0.92650  Biso   1.000  H
  C106     1.0000 0.37395  0.12110  0.95981  Biso   1.000  C
  C107     1.0000 0.65602  0.10901  0.47501  Biso   1.000  C
  H121     1.0000 0.54302  0.13430  0.53451  Biso   1.000  H
  H122     1.0000 0.64003  0.08458  0.56691  Biso   1.000  H
  C108     1.0000 0.66596  0.10399  0.47400  Biso   1.000  C
  H123     1.0000 0.45695  0.13430  0.96550  Biso   1.000  H
  H124     1.0000 0.35995  0.08458  0.93310  Biso   1.000  H
  C109     1.0000 0.34396  0.10901  0.02500  Biso   1.000  C
  C110     1.0000 0.33402  0.10399  0.02601  Biso   1.000  C
  H125     1.0000 0.59375  0.08481  0.44848  Biso   1.000  H
  H126     1.0000 0.66152  0.14801  0.45431  Biso   1.000  H
  H127     1.0000 0.73188  0.08808  0.48189  Biso   1.000  H
  H128     1.0000 0.62055  0.06660  0.46210  Biso   1.000  H
  H129     1.0000 0.63880  0.13481  0.44270  Biso   1.000  H
  H130     1.0000 0.75030  0.09539  0.47788  Biso   1.000  H
  H131     1.0000 0.40622  0.08481  0.05153  Biso   1.000  H
  H132     1.0000 0.33846  0.14801  0.04570  Biso   1.000  H
  H133     1.0000 0.26809  0.08808  0.01812  Biso   1.000  H
  H134     1.0000 0.37934  0.06660  0.03791  Biso   1.000  H
  H135     1.0000 0.36117  0.13481  0.05731  Biso   1.000  H
  H136     1.0000 0.24965  0.09539  0.02209  Biso   1.000  H
  C111     1.0000 0.83398  0.39601  0.52600  Biso   1.000  C
  O29      1.0000 0.84902  0.37559  0.46512  Biso   1.000  O
  C112     1.0000 0.87401  0.37890  0.45981  Biso   1.000  C
  H137     1.0000 0.90617  0.41519  0.55148  Biso   1.000  H
  H138     1.0000 0.83851  0.35199  0.54569  Biso   1.000  H
  H139     1.0000 0.76806  0.41192  0.51812  Biso   1.000  H
  H140     1.0000 0.87939  0.43340  0.53790  Biso   1.000  H
  H141     1.0000 0.86123  0.36519  0.55731  Biso   1.000  H
  H142     1.0000 0.74971  0.40461  0.52208  Biso   1.000  H
  C113     1.0000 0.78431  0.32669  0.43090  Biso   1.000  C
  C114     1.0000 0.81594  0.32532  0.43668  Biso   1.000  C
  C115     1.0000 0.84401  0.39099  0.52500  Biso   1.000  C
  H143     1.0000 0.95700  0.36570  0.46550  Biso   1.000  H
  H144     1.0000 0.86000  0.41542  0.43309  Biso   1.000  H
  C116     1.0000 0.81078  0.31621  0.36509  Biso   1.000  C
  O30      1.0000 0.72158  0.30471  0.44791  Biso   1.000  O
  H145     1.0000 0.79990  0.28981  0.45690  Biso   1.000  H
  H146     1.0000 0.70138  0.33939  0.42650  Biso   1.000  H
  O31      1.0000 0.93141  0.32550  0.36370  Biso   1.000  O
  H147     1.0000 0.78798  0.27449  0.35142  Biso   1.000  H
  H148     1.0000 0.76039  0.34380  0.33440  Biso   1.000  H
  C117     1.0000 0.96142  0.32472  0.30568  Biso   1.000  C
  C118     1.0000 0.87885  0.32559  0.24718  Biso   1.000  C
  C119     1.0000 0.08569  0.32568  0.30931  Biso   1.000  C
  C120     1.0000 0.91430  0.32568  0.19069  Biso   1.000  C
  H149     1.0000 0.79698  0.32619  0.24580  Biso   1.000  H
  C121     1.0000 0.12114  0.32559  0.25282  Biso   1.000  C
  C122     1.0000 0.17838  0.32518  0.37359  Biso   1.000  C
  C123     1.0000 0.82161  0.32518  0.12641  Biso   1.000  C
  C124     1.0000 0.03855  0.32472  0.19428  Biso   1.000  C
  H150     1.0000 0.20301  0.32619  0.25421  Biso   1.000  H
  C125     1.0000 0.20932  0.25922  0.39649  Biso   1.000  C
  H151     1.0000 0.14652  0.34721  0.40490  Biso   1.000  H
  H152     1.0000 0.25105  0.34610  0.36948  Biso   1.000  H
  C126     1.0000 0.79067  0.25922  0.10352  Biso   1.000  C
  H153     1.0000 0.85347  0.34721  0.09511  Biso   1.000  H
  H154     1.0000 0.74894  0.34610  0.13052  Biso   1.000  H
  O32      1.0000 0.06858  0.32550  0.13630  Biso   1.000  O
  C127     1.0000 0.30356  0.22739  0.38009  Biso   1.000  C
  C128     1.0000 0.14382  0.22928  0.43329  Biso   1.000  C
  C129     1.0000 0.69644  0.22739  0.11991  Biso   1.000  C
  C130     1.0000 0.85617  0.22928  0.06672  Biso   1.000  C
  C131     1.0000 0.18921  0.31621  0.13492  Biso   1.000  C
  O33      1.0000 0.36569  0.25954  0.34301  Biso   1.000  O
  C132     1.0000 0.32892  0.16751  0.40040  Biso   1.000  C
  H155     1.0000 0.08177  0.25002  0.44519  Biso   1.000  H
  C133     1.0000 0.16889  0.16861  0.45278  Biso   1.000  C
  O34      1.0000 0.63430  0.25954  0.15700  Biso   1.000  O
  C134     1.0000 0.67107  0.16751  0.09960  Biso   1.000  C
  C135     1.0000 0.83110  0.16861  0.04722  Biso   1.000  C
  H156     1.0000 0.91822  0.25002  0.05482  Biso   1.000  H
  H157     1.0000 0.21201  0.27449  0.14859  Biso   1.000  H
  H158     1.0000 0.23960  0.34380  0.16560  Biso   1.000  H
  C136     1.0000 0.21568  0.32669  0.06911  Biso   1.000  C
  C137     1.0000 0.18403  0.32532  0.06328  Biso   1.000  C
  C138     1.0000 0.47771  0.23618  0.33909  Biso   1.000  C
  C139     1.0000 0.26188  0.13688  0.43692  Biso   1.000  C
  H159     1.0000 0.39253  0.14700  0.38960  Biso   1.000  H
  O35      1.0000 0.10612  0.13600  0.48925  Biso   1.000  O
  C140     1.0000 0.52228  0.23618  0.16092  Biso   1.000  C
  C141     1.0000 0.73811  0.13688  0.06309  Biso   1.000  C
  H160     1.0000 0.60746  0.14700  0.11040  Biso   1.000  H
  O36      1.0000 0.89387  0.13600  0.01075  Biso   1.000  O
  O37      1.0000 0.27841  0.30471  0.05209  Biso   1.000  O
  O38      1.0000 0.15097  0.37559  0.03489  Biso   1.000  O
  H161     1.0000 0.20009  0.28981  0.04311  Biso   1.000  H
  H162     1.0000 0.29861  0.33939  0.07350  Biso   1.000  H
  C142     1.0000 0.12599  0.37890  0.04019  Biso   1.000  C
  H163     1.0000 0.51602  0.26488  0.31658  Biso   1.000  H
  H164     1.0000 0.46614  0.19782  0.31648  Biso   1.000  H
  H165     1.0000 0.52768  0.22988  0.38129  Biso   1.000  H
  C143     1.0000 0.28633  0.07009  0.45451  Biso   1.000  C
  C144     1.0000 0.00575  0.16461  0.50450  Biso   1.000  C
  H166     1.0000 0.48395  0.26488  0.18338  Biso   1.000  H
  H167     1.0000 0.53376  0.19782  0.18352  Biso   1.000  H
  H168     1.0000 0.47231  0.22988  0.11872  Biso   1.000  H
  C145     1.0000 0.71366  0.07009  0.04550  Biso   1.000  C
  C146     1.0000 0.99415  0.16461  0.99551  Biso   1.000  C
  C147     1.0000 0.15598  0.39099  0.97500  Biso   1.000  C
  C148     1.0000 0.16601  0.39601  0.97400  Biso   1.000  C
  H169     1.0000 0.04299  0.36570  0.03451  Biso   1.000  H
  H170     1.0000 0.13999  0.41542  0.06691  Biso   1.000  H
  C149     1.0000 0.21510  0.02810  0.40270  Biso   1.000  C
  H171     1.0000 0.26446  0.06182  0.49432  Biso   1.000  H
  H172     1.0000 0.37176  0.06191  0.46091  Biso   1.000  H
  H173     1.0000 0.97100  0.13711  0.52978  Biso   1.000  H
  H174     1.0000 0.94682  0.17450  0.46578  Biso   1.000  H
  H175     1.0000 0.03147  0.20150  0.52820  Biso   1.000  H
  C150     1.0000 0.78489  0.02810  0.09731  Biso   1.000  C
  H176     1.0000 0.73553  0.06182  0.00569  Biso   1.000  H
  H177     1.0000 0.62823  0.06191  0.03909  Biso   1.000  H
  H178     1.0000 0.96852  0.20150  0.97180  Biso   1.000  H
  H179     1.0000 0.02897  0.13711  0.97018  Biso   1.000  H
  H180     1.0000 0.05317  0.17450  0.03422  Biso   1.000  H
  H181     1.0000 0.09380  0.41519  0.94848  Biso   1.000  H
  H182     1.0000 0.16148  0.35199  0.95431  Biso   1.000  H
  H183     1.0000 0.23184  0.41192  0.98189  Biso   1.000  H
  H184     1.0000 0.12060  0.43340  0.96210  Biso   1.000  H
  H185     1.0000 0.13876  0.36519  0.94270  Biso   1.000  H
  H186     1.0000 0.25026  0.40461  0.97787  Biso   1.000  H
  C151     1.0000 0.26226  0.00598  0.35448  Biso   1.000  C
  C152     1.0000 0.09576  0.01228  0.40122  Biso   1.000  C
  C153     1.0000 0.73771  0.00598  0.14548  Biso   1.000  C
  C154     1.0000 0.90423  0.01228  0.09879  Biso   1.000  C
  C155     1.0000 0.19367  0.96941  0.30630  Biso   1.000  C
  O39      1.0000 0.38023  0.02401  0.35792  Biso   1.000  O
  C156     1.0000 0.02698  0.97631  0.35299  Biso   1.000  C
  H187     1.0000 0.06187  0.02640  0.43362  Biso   1.000  H
  O40      1.0000 0.61976  0.02401  0.14209  Biso   1.000  O
  C157     1.0000 0.80632  0.96941  0.19370  Biso   1.000  C
  H188     1.0000 0.93812  0.02640  0.06638  Biso   1.000  H
  C158     1.0000 0.97301  0.97631  0.14701  Biso   1.000  C
  C159     1.0000 0.07601  0.95419  0.30410  Biso   1.000  C
  H189     1.0000 0.22837  0.95479  0.27452  Biso   1.000  H
  C160     1.0000 0.44672  0.99062  0.32322  Biso   1.000  C
  O41      1.0000 0.90868  0.95962  0.34831  Biso   1.000  O
  C161     1.0000 0.55327  0.99062  0.17678  Biso   1.000  C
  C162     1.0000 0.92398  0.95419  0.19590  Biso   1.000  C
  H190     1.0000 0.77162  0.95479  0.22548  Biso   1.000  H
  O42      1.0000 0.09131  0.95962  0.15169  Biso   1.000  O
  C163     1.0000 0.99995  0.91588  0.25000  Biso   1.000  C
  H191     1.0000 0.40889  0.99388  0.27839  Biso   1.000  H
  H192     1.0000 0.44990  0.94821  0.33588  Biso   1.000  H
  H193     1.0000 0.52716  0.00690  0.33149  Biso   1.000  H
  C164     1.0000 0.85101  0.98399  0.39347  Biso   1.000  C
  H194     1.0000 0.47283  0.00690  0.16852  Biso   1.000  H
  H195     1.0000 0.59110  0.99388  0.22161  Biso   1.000  H
  H196     1.0000 0.55009  0.94821  0.16412  Biso   1.000  H
  C165     1.0000 0.14896  0.98399  0.10648  Biso   1.000  C
  H197     1.0000 0.94697  0.88952  0.26711  Biso   1.000  H
  H198     1.0000 0.05302  0.88952  0.23289  Biso   1.000  H
  H199     1.0000 0.85972  0.02792  0.39491  Biso   1.000  H
  H200     1.0000 0.76689  0.97360  0.38162  Biso   1.000  H
  H201     1.0000 0.88716  0.96721  0.43491  Biso   1.000  H
  H202     1.0000 0.23310  0.97360  0.11838  Biso   1.000  H
  H203     1.0000 0.11283  0.96721  0.06509  Biso   1.000  H
  H204     1.0000 0.14027  0.02792  0.10510  Biso   1.000  H
  C166     1.0000 0.82160  0.67482  0.62641  Biso   1.000  C
  C167     1.0000 0.79064  0.74078  0.60347  Biso   1.000  C
  H205     1.0000 0.85346  0.65279  0.59511  Biso   1.000  H
  H206     1.0000 0.74891  0.65390  0.63048  Biso   1.000  H
  C168     1.0000 0.91429  0.67432  0.69070  Biso   1.000  C
  C169     1.0000 0.69643  0.77261  0.61991  Biso   1.000  C
  C170     1.0000 0.85614  0.77072  0.56667  Biso   1.000  C
  C171     1.0000 0.87884  0.67441  0.74719  Biso   1.000  C
  C172     1.0000 0.03854  0.67528  0.69428  Biso   1.000  C
  O43      1.0000 0.63429  0.74046  0.65700  Biso   1.000  O
  C173     1.0000 0.67106  0.83249  0.59960  Biso   1.000  C
  H207     1.0000 0.91819  0.74998  0.55477  Biso   1.000  H
  C174     1.0000 0.83107  0.83139  0.54717  Biso   1.000  C
  H208     1.0000 0.79697  0.67381  0.74580  Biso   1.000  H
  C175     1.0000 0.96141  0.67528  0.80568  Biso   1.000  C
  O44      1.0000 0.06857  0.67450  0.63631  Biso   1.000  O
  C176     1.0000 0.12111  0.67441  0.75278  Biso   1.000  C
  C177     1.0000 0.52227  0.76382  0.66092  Biso   1.000  C
  C178     1.0000 0.73810  0.86312  0.56309  Biso   1.000  C
  H209     1.0000 0.60745  0.85300  0.61040  Biso   1.000  H
  O45      1.0000 0.89386  0.86400  0.51076  Biso   1.000  O
  O46      1.0000 0.93140  0.67450  0.86370  Biso   1.000  O
  C179     1.0000 0.08569  0.67432  0.80932  Biso   1.000  C
  C180     1.0000 0.18918  0.68379  0.63487  Biso   1.000  C
  H210     1.0000 0.20300  0.67381  0.75421  Biso   1.000  H
  H211     1.0000 0.48394  0.73512  0.68338  Biso   1.000  H
  H212     1.0000 0.53373  0.80218  0.68348  Biso   1.000  H
  H213     1.0000 0.47230  0.77012  0.61872  Biso   1.000  H
  C181     1.0000 0.71365  0.92991  0.54550  Biso   1.000  C
  C182     1.0000 0.99423  0.83539  0.49551  Biso   1.000  C
  C183     1.0000 0.81077  0.68379  0.86509  Biso   1.000  C
  C184     1.0000 0.17837  0.67482  0.87360  Biso   1.000  C
  H214     1.0000 0.21200  0.72551  0.64859  Biso   1.000  H
  H215     1.0000 0.23959  0.65620  0.66560  Biso   1.000  H
  C185     1.0000 0.21567  0.67331  0.56911  Biso   1.000  C
  C186     1.0000 0.18393  0.67468  0.56328  Biso   1.000  C
  C187     1.0000 0.78489  0.97190  0.59731  Biso   1.000  C
  H216     1.0000 0.73552  0.93818  0.50569  Biso   1.000  H
  H217     1.0000 0.62822  0.93809  0.53910  Biso   1.000  H
  H218     1.0000 0.96851  0.79850  0.47181  Biso   1.000  H
  H219     1.0000 0.02896  0.86289  0.47018  Biso   1.000  H
  H220     1.0000 0.05314  0.82550  0.53418  Biso   1.000  H
  H221     1.0000 0.78795  0.72551  0.85137  Biso   1.000  H
  H222     1.0000 0.76038  0.65620  0.83441  Biso   1.000  H
  C188     1.0000 0.78430  0.67331  0.93090  Biso   1.000  C
  C189     1.0000 0.81593  0.67468  0.93668  Biso   1.000  C
  C190     1.0000 0.20922  0.74078  0.89649  Biso   1.000  C
  H223     1.0000 0.14651  0.65279  0.90490  Biso   1.000  H
  H224     1.0000 0.25104  0.65390  0.86949  Biso   1.000  H
  O47      1.0000 0.27841  0.69529  0.55210  Biso   1.000  O
  O48      1.0000 0.15096  0.62441  0.53489  Biso   1.000  O
  H225     1.0000 0.20008  0.71019  0.54311  Biso   1.000  H
  H226     1.0000 0.29860  0.66061  0.57351  Biso   1.000  H
  C191     1.0000 0.12598  0.62110  0.54020  Biso   1.000  C
  C192     1.0000 0.73770  0.99402  0.64548  Biso   1.000  C
  C193     1.0000 0.90414  0.98772  0.59879  Biso   1.000  C
  O49      1.0000 0.72157  0.69529  0.94791  Biso   1.000  O
  O50      1.0000 0.84901  0.62441  0.96512  Biso   1.000  O
  H227     1.0000 0.79989  0.71019  0.95690  Biso   1.000  H
  H228     1.0000 0.70137  0.66061  0.92650  Biso   1.000  H
  C194     1.0000 0.87400  0.62110  0.95981  Biso   1.000  C
  C195     1.0000 0.30355  0.77261  0.88010  Biso   1.000  C
  C196     1.0000 0.14381  0.77072  0.93329  Biso   1.000  C
  C197     1.0000 0.15597  0.60901  0.47501  Biso   1.000  C
  H229     1.0000 0.04298  0.63430  0.53451  Biso   1.000  H
  H230     1.0000 0.13998  0.58458  0.56691  Biso   1.000  H
  C198     1.0000 0.16600  0.60399  0.47400  Biso   1.000  C
  O51      1.0000 0.61975  0.97599  0.64209  Biso   1.000  O
  C199     1.0000 0.80631  0.03059  0.69371  Biso   1.000  C
  H231     1.0000 0.93811  0.97360  0.56639  Biso   1.000  H
  C200     1.0000 0.97300  0.02369  0.64701  Biso   1.000  C
  H232     1.0000 0.95700  0.63430  0.96550  Biso   1.000  H
  H233     1.0000 0.85999  0.58458  0.93310  Biso   1.000  H
  C201     1.0000 0.84400  0.60901  0.02500  Biso   1.000  C
  C202     1.0000 0.83397  0.60399  0.02601  Biso   1.000  C
  O52      1.0000 0.36568  0.74046  0.84301  Biso   1.000  O
  C203     1.0000 0.32891  0.83249  0.90041  Biso   1.000  C
  H234     1.0000 0.08176  0.74998  0.94519  Biso   1.000  H
  C204     1.0000 0.16888  0.83139  0.95279  Biso   1.000  C
  H235     1.0000 0.09379  0.58481  0.44848  Biso   1.000  H
  H236     1.0000 0.16147  0.64801  0.45431  Biso   1.000  H
  H237     1.0000 0.23192  0.58808  0.48189  Biso   1.000  H
  H238     1.0000 0.12059  0.56660  0.46210  Biso   1.000  H
  H239     1.0000 0.13876  0.63481  0.44270  Biso   1.000  H
  H240     1.0000 0.25025  0.59539  0.47788  Biso   1.000  H
  C205     1.0000 0.55327  0.00938  0.67679  Biso   1.000  C
  C206     1.0000 0.92397  0.04581  0.69590  Biso   1.000  C
  H241     1.0000 0.77161  0.04521  0.72549  Biso   1.000  H
  O53      1.0000 0.09130  0.04038  0.65170  Biso   1.000  O
  H242     1.0000 0.90618  0.58481  0.05153  Biso   1.000  H
  H243     1.0000 0.83850  0.64801  0.04570  Biso   1.000  H
  H244     1.0000 0.76805  0.58808  0.01812  Biso   1.000  H
  H245     1.0000 0.87938  0.56660  0.03791  Biso   1.000  H
  H246     1.0000 0.86122  0.63481  0.05731  Biso   1.000  H
  H247     1.0000 0.74970  0.59539  0.02209  Biso   1.000  H
  C207     1.0000 0.47770  0.76382  0.83909  Biso   1.000  C
  C208     1.0000 0.26185  0.86312  0.93687  Biso   1.000  C
  H248     1.0000 0.39243  0.85300  0.88961  Biso   1.000  H
  O54      1.0000 0.10609  0.86400  0.98921  Biso   1.000  O
  H249     1.0000 0.47282  0.99310  0.66852  Biso   1.000  H
  H250     1.0000 0.59109  0.00612  0.72162  Biso   1.000  H
  H251     1.0000 0.55006  0.05179  0.66408  Biso   1.000  H
  C209     1.0000 0.99994  0.08412  0.75001  Biso   1.000  C
  C210     1.0000 0.14895  0.01601  0.60649  Biso   1.000  C
  H252     1.0000 0.51593  0.73512  0.81658  Biso   1.000  H
  H253     1.0000 0.46613  0.80218  0.81648  Biso   1.000  H
  H254     1.0000 0.52767  0.77012  0.88129  Biso   1.000  H
  C211     1.0000 0.28623  0.92991  0.95451  Biso   1.000  C
  C212     1.0000 0.00574  0.83539  0.00450  Biso   1.000  C
  H255     1.0000 0.94696  0.11048  0.76712  Biso   1.000  H
  H256     1.0000 0.05301  0.11048  0.73290  Biso   1.000  H
  C213     1.0000 0.07600  0.04581  0.80411  Biso   1.000  C
  H257     1.0000 0.14026  0.97208  0.60510  Biso   1.000  H
  H258     1.0000 0.23309  0.02640  0.61839  Biso   1.000  H
  H259     1.0000 0.11282  0.03279  0.56510  Biso   1.000  H
  C214     1.0000 0.21509  0.97190  0.90270  Biso   1.000  C
  H260     1.0000 0.26443  0.93818  0.99427  Biso   1.000  H
  H261     1.0000 0.37175  0.93809  0.96091  Biso   1.000  H
  H262     1.0000 0.94672  0.82550  0.96579  Biso   1.000  H
  H263     1.0000 0.97102  0.86289  0.02983  Biso   1.000  H
  H264     1.0000 0.03146  0.79850  0.02821  Biso   1.000  H
  C215     1.0000 0.19367  0.03059  0.80631  Biso   1.000  C
  C216     1.0000 0.02697  0.02369  0.85300  Biso   1.000  C
  C217     1.0000 0.26225  0.99402  0.85448  Biso   1.000  C
  C218     1.0000 0.09573  0.98772  0.90117  Biso   1.000  C
  H265     1.0000 0.22834  0.04521  0.77448  Biso   1.000  H
  O55      1.0000 0.90868  0.04038  0.84831  Biso   1.000  O
  O56      1.0000 0.38020  0.97599  0.85787  Biso   1.000  O
  H266     1.0000 0.06184  0.97360  0.93358  Biso   1.000  H
  C219     1.0000 0.85100  0.01601  0.89348  Biso   1.000  C
  C220     1.0000 0.44669  0.00938  0.82318  Biso   1.000  C
  H267     1.0000 0.85971  0.97208  0.89491  Biso   1.000  H
  H268     1.0000 0.76686  0.02640  0.88158  Biso   1.000  H
  H269     1.0000 0.88715  0.03279  0.93491  Biso   1.000  H
  H270     1.0000 0.52715  0.99310  0.83149  Biso   1.000  H
  H271     1.0000 0.40889  0.00612  0.77839  Biso   1.000  H
  H272     1.0000 0.44989  0.05179  0.83589  Biso   1.000  H
