data_image0
_cell_length_a       12.087
_cell_length_b       12.8
_cell_length_c       21.492
_cell_angle_alpha    97.1
_cell_angle_beta     96.72
_cell_angle_gamma    93.45

_symmetry_space_group_name_H-M    "P 1"
_symmetry_int_tables_number       1

loop_
  _symmetry_equiv_pos_as_xyz
  'x, y, z'

loop_
  _atom_site_label
  _atom_site_occupancy
  _atom_site_fract_x
  _atom_site_fract_y
  _atom_site_fract_z
  _atom_site_thermal_displace_type
  _atom_site_B_iso_or_equiv
  _atom_site_type_symbol
  O1       1.0000 0.51266  0.46926  0.40443  Biso   1.000  O
  C1       1.0000 0.54777  0.43509  0.34701  Biso   1.000  C
  C2       1.0000 0.44405  0.55497  0.40627  Biso   1.000  C
  C3       1.0000 0.48885  0.44777  0.28939  Biso   1.000  C
  C4       1.0000 0.64757  0.38593  0.34946  Biso   1.000  C
  H1       1.0000 0.47675  0.61013  0.38628  Biso   1.000  H
  H2       1.0000 0.43780  0.58106  0.44938  Biso   1.000  H
  H3       1.0000 0.37125  0.53176  0.38439  Biso   1.000  H
  C5       1.0000 0.52895  0.41608  0.23258  Biso   1.000  C
  H4       1.0000 0.42072  0.47806  0.28868  Biso   1.000  H
  C6       1.0000 0.68580  0.35036  0.29242  Biso   1.000  C
  C7       1.0000 0.71788  0.37762  0.41161  Biso   1.000  C
  C8       1.0000 0.46958  0.43955  0.17029  Biso   1.000  C
  C9       1.0000 0.62816  0.36677  0.23504  Biso   1.000  C
  H5       1.0000 0.75082  0.31515  0.29279  Biso   1.000  H
  H6       1.0000 0.66946  0.36167  0.44262  Biso   1.000  H
  H7       1.0000 0.76611  0.32028  0.40571  Biso   1.000  H
  C10      1.0000 0.78868  0.47949  0.43595  Biso   1.000  C
  C11      1.0000 0.52311  0.53822  0.14959  Biso   1.000  C
  H8       1.0000 0.39170  0.44936  0.17468  Biso   1.000  H
  H9       1.0000 0.47215  0.37987  0.13810  Biso   1.000  H
  O2       1.0000 0.66533  0.33540  0.17752  Biso   1.000  O
  C12      1.0000 0.74996  0.55649  0.47679  Biso   1.000  C
  C13      1.0000 0.89356  0.49948  0.41658  Biso   1.000  C
  C14      1.0000 0.50327  0.63871  0.17657  Biso   1.000  C
  C15      1.0000 0.59593  0.53200  0.10426  Biso   1.000  C
  C16      1.0000 0.77861  0.31831  0.17809  Biso   1.000  C
  H10      1.0000 0.68060  0.54444  0.49031  Biso   1.000  H
  C17      1.0000 0.81177  0.65145  0.49825  Biso   1.000  C
  C18      1.0000 0.95657  0.59319  0.43945  Biso   1.000  C
  O3       1.0000 0.92683  0.42235  0.37267  Biso   1.000  O
  C19      1.0000 0.55785  0.72742  0.16003  Biso   1.000  C
  O4       1.0000 0.42777  0.64221  0.21982  Biso   1.000  O
  H11      1.0000 0.61006  0.46572  0.08512  Biso   1.000  H
  C20      1.0000 0.64859  0.62111  0.08630  Biso   1.000  C
  H12      1.0000 0.82286  0.37636  0.20361  Biso   1.000  H
  H13      1.0000 0.79756  0.31265  0.13569  Biso   1.000  H
  H14      1.0000 0.79309  0.25410  0.19539  Biso   1.000  H
  C21      1.0000 0.91740  0.67032  0.48085  Biso   1.000  C
  O5       1.0000 0.77471  0.73111  0.53870  Biso   1.000  O
  H15      1.0000 0.02690  0.60465  0.42679  Biso   1.000  H
  C22      1.0000 0.04291  0.41666  0.36889  Biso   1.000  C
  C23      1.0000 0.63204  0.72065  0.11504  Biso   1.000  C
  H16      1.0000 0.54456  0.79372  0.17960  Biso   1.000  H
  C24      1.0000 0.39736  0.74141  0.24525  Biso   1.000  C
  O6       1.0000 0.71940  0.61566  0.04022  Biso   1.000  O
  C25      1.0000 0.98829  0.77309  0.50576  Biso   1.000  C
  C26      1.0000 0.67088  0.71361  0.55520  Biso   1.000  C
  C27      1.0000 0.67108  0.71794  0.57590  Biso   1.000  C
  H17      1.0000 0.05757  0.34296  0.36010  Biso   1.000  H
  H18      1.0000 0.08354  0.44385  0.40991  Biso   1.000  H
  C28      1.0000 0.08908  0.47545  0.31988  Biso   1.000  C
  C29      1.0000 0.68879  0.82072  0.09713  Biso   1.000  C
  H19      1.0000 0.46144  0.78074  0.26959  Biso   1.000  H
  H20      1.0000 0.34018  0.73188  0.27200  Biso   1.000  H
  H21      1.0000 0.36961  0.77932  0.21160  Biso   1.000  H
  C30      1.0000 0.71232  0.52262  0.99731  Biso   1.000  C
  H22      1.0000 0.96188  0.80515  0.54400  Biso   1.000  H
  C31      1.0000 0.98329  0.85033  0.45770  Biso   1.000  C
  H23      1.0000 0.06520  0.75743  0.51640  Biso   1.000  H
  H24      1.0000 0.66997  0.65653  0.58100  Biso   1.000  H
  H25      1.0000 0.61759  0.69351  0.51758  Biso   1.000  H
  C32      1.0000 0.63822  0.81692  0.59320  Biso   1.000  C
  H26      1.0000 0.67061  0.64774  0.58838  Biso   1.000  H
  H27      1.0000 0.60501  0.71908  0.54589  Biso   1.000  H
  C33      1.0000 0.65605  0.79643  0.63630  Biso   1.000  C
  N1       1.0000 0.01765  0.52117  0.28225  Biso   1.000  N
  O7       1.0000 0.18928  0.47737  0.31614  Biso   1.000  O
  C34      1.0000 0.75888  0.88866  0.15153  Biso   1.000  C
  H28      1.0000 0.73586  0.80059  0.06470  Biso   1.000  H
  H29      1.0000 0.63168  0.86223  0.07912  Biso   1.000  H
  H30      1.0000 0.74131  0.46658  0.01862  Biso   1.000  H
  H31      1.0000 0.75507  0.53389  0.96351  Biso   1.000  H
  H32      1.0000 0.63561  0.50371  0.98039  Biso   1.000  H
  C35      1.0000 0.89512  0.91354  0.45117  Biso   1.000  C
  C36      1.0000 0.06548  0.85857  0.41837  Biso   1.000  C
  H33      1.0000 0.65181  0.87735  0.57122  Biso   1.000  H
  H34      1.0000 0.55986  0.81092  0.59939  Biso   1.000  H
  C37      1.0000 0.71182  0.82756  0.65540  Biso   1.000  C
  C38      1.0000 0.64814  0.89267  0.60062  Biso   1.000  C
  H35      1.0000 0.59150  0.87876  0.56408  Biso   1.000  H
  H36      1.0000 0.71282  0.75826  0.66910  Biso   1.000  H
  H37      1.0000 0.58837  0.77903  0.65431  Biso   1.000  H
  H38      1.0000 0.72036  0.80307  0.66858  Biso   1.000  H
  H39      1.0000 0.94773  0.51528  0.28641  Biso   1.000  H
  C39      1.0000 0.05446  0.58160  0.23390  Biso   1.000  C
  C40      1.0000 0.71352  0.96488  0.19127  Biso   1.000  C
  C41      1.0000 0.87245  0.87746  0.16358  Biso   1.000  C
  H40      1.0000 0.83945  0.90955  0.47750  Biso   1.000  H
  C42      1.0000 0.88733  0.98310  0.40632  Biso   1.000  C
  C43      1.0000 0.05852  0.93000  0.37413  Biso   1.000  C
  O8       1.0000 0.15171  0.79403  0.42631  Biso   1.000  O
  H41      1.0000 0.78720  0.84770  0.64769  Biso   1.000  H
  C44      1.0000 0.68481  0.90124  0.70781  Biso   1.000  C
  H42      1.0000 0.71919  0.91191  0.58668  Biso   1.000  H
  C45      1.0000 0.61608  0.98074  0.64939  Biso   1.000  C
  H43      1.0000 0.13106  0.60978  0.24709  Biso   1.000  H
  H44      1.0000 0.00865  0.64090  0.23060  Biso   1.000  H
  C46      1.0000 0.04778  0.51793  0.17081  Biso   1.000  C
  O9       1.0000 0.60205  0.97759  0.17615  Biso   1.000  O
  C47      1.0000 0.77954  0.02153  0.24312  Biso   1.000  C
  H45      1.0000 0.90500  0.82878  0.13692  Biso   1.000  H
  C48      1.0000 0.93896  0.93659  0.21424  Biso   1.000  C
  C49      1.0000 0.97022  0.99198  0.36700  Biso   1.000  C
  O10      1.0000 0.80115  0.04782  0.39739  Biso   1.000  O
  H46      1.0000 0.11516  0.93569  0.34880  Biso   1.000  H
  C50      1.0000 0.22387  0.78237  0.38222  Biso   1.000  C
  H47      1.0000 0.75075  0.94505  0.72620  Biso   1.000  H
  H48      1.0000 0.65774  0.86250  0.73910  Biso   1.000  H
  H49      1.0000 0.62832  0.94470  0.69259  Biso   1.000  H
  H50      1.0000 0.67001  0.98972  0.68631  Biso   1.000  H
  H51      1.0000 0.54353  0.96151  0.66088  Biso   1.000  H
  H52      1.0000 0.61322  0.04555  0.63129  Biso   1.000  H
  H53      1.0000 0.97054  0.49349  0.15578  Biso   1.000  H
  H54      1.0000 0.09037  0.45649  0.17402  Biso   1.000  H
  N2       1.0000 0.09212  0.58168  0.12619  Biso   1.000  N
  C51      1.0000 0.55536  0.06168  0.20829  Biso   1.000  C
  C52      1.0000 0.89164  0.00756  0.25612  Biso   1.000  C
  H55      1.0000 0.74732  0.07029  0.26978  Biso   1.000  H
  O11      1.0000 0.05216  0.93172  0.22696  Biso   1.000  O
  C53      1.0000 0.96027  0.06376  0.31548  Biso   1.000  C
  C54      1.0000 0.71344  0.04140  0.43468  Biso   1.000  C
  H56      1.0000 0.18229  0.76296  0.34100  Biso   1.000  H
  H57      1.0000 0.27237  0.72803  0.39139  Biso   1.000  H
  H58      1.0000 0.26766  0.84766  0.38302  Biso   1.000  H
  C55      1.0000 0.02522  0.60886  0.08224  Biso   1.000  C
  H59      1.0000 0.55548  0.05131  0.25182  Biso   1.000  H
  H60      1.0000 0.47997  0.06568  0.18948  Biso   1.000  H
  H61      1.0000 0.59835  0.12627  0.20588  Biso   1.000  H
  C56      1.0000 0.10680  0.86333  0.18683  Biso   1.000  C
  H62      1.0000 0.92518  0.12682  0.33032  Biso   1.000  H
  H63      1.0000 0.03422  0.08517  0.30608  Biso   1.000  H
  H64      1.0000 0.67682  0.97156  0.42641  Biso   1.000  H
  H65      1.0000 0.66074  0.09181  0.42442  Biso   1.000  H
  H66      1.0000 0.74287  0.05636  0.47849  Biso   1.000  H
  H67      1.0000 0.95095  0.58258  0.07770  Biso   1.000  H
  C57      1.0000 0.05914  0.67958  0.03833  Biso   1.000  C
  H68      1.0000 0.07950  0.79168  0.18811  Biso   1.000  H
  H69      1.0000 0.18578  0.87150  0.20049  Biso   1.000  H
  H70      1.0000 0.09273  0.87989  0.14439  Biso   1.000  H
  C58      1.0000 0.97884  0.70799  0.99282  Biso   1.000  C
  C59      1.0000 0.17010  0.72318  0.04372  Biso   1.000  C
  H71      1.0000 0.90593  0.67860  0.98979  Biso   1.000  H
  C60      1.0000 0.00439  0.77846  0.95208  Biso   1.000  C
  C61      1.0000 0.19999  0.79568  0.00293  Biso   1.000  C
  O12      1.0000 0.24816  0.69688  0.08815  Biso   1.000  O
  C62      1.0000 0.91792  0.81486  0.90306  Biso   1.000  C
  C63      1.0000 0.11537  0.81990  0.95902  Biso   1.000  C
  C64      1.0000 0.32115  0.84536  0.00780  Biso   1.000  C
  H72      1.0000 0.21977  0.65436  0.10828  Biso   1.000  H
  C65      1.0000 0.80389  0.75415  0.89890  Biso   1.000  C
  C66      1.0000 0.95615  0.80147  0.83760  Biso   1.000  C
  C67      1.0000 0.90531  0.93256  0.92254  Biso   1.000  C
  H73      1.0000 0.13389  0.86772  0.93199  Biso   1.000  H
  C68      1.0000 0.40053  0.75894  0.99390  Biso   1.000  C
  C69      1.0000 0.33099  0.92343  0.96002  Biso   1.000  C
  C70      1.0000 0.35735  0.90561  0.07387  Biso   1.000  C
  H74      1.0000 0.75339  0.77695  0.86629  Biso   1.000  H
  H75      1.0000 0.77505  0.76745  0.93870  Biso   1.000  H
  H76      1.0000 0.81179  0.67993  0.88922  Biso   1.000  H
  H77      1.0000 0.90032  0.82423  0.80769  Biso   1.000  H
  H78      1.0000 0.96697  0.72840  0.82532  Biso   1.000  H
  H79      1.0000 0.02511  0.84317  0.83860  Biso   1.000  H
  H80      1.0000 0.97674  0.97125  0.92551  Biso   1.000  H
  H81      1.0000 0.87780  0.94189  0.96280  Biso   1.000  H
  H82      1.0000 0.85372  0.95789  0.89148  Biso   1.000  H
  H83      1.0000 0.47531  0.79043  0.99650  Biso   1.000  H
  H84      1.0000 0.37818  0.72214  0.95222  Biso   1.000  H
  H85      1.0000 0.39771  0.71022  0.02429  Biso   1.000  H
  H86      1.0000 0.40672  0.95330  0.96413  Biso   1.000  H
  H87      1.0000 0.28221  0.97863  0.96791  Biso   1.000  H
  H88      1.0000 0.31043  0.88726  0.91800  Biso   1.000  H
  H89      1.0000 0.35429  0.85778  0.10478  Biso   1.000  H
  H90      1.0000 0.30820  0.96041  0.08210  Biso   1.000  H
  H91      1.0000 0.43234  0.93639  0.07609  Biso   1.000  H
  O13      1.0000 0.48751  0.53059  0.59556  Biso   1.000  O
  C71      1.0000 0.45232  0.56476  0.65299  Biso   1.000  C
  C72      1.0000 0.55604  0.44495  0.59372  Biso   1.000  C
  C73      1.0000 0.35260  0.61391  0.65053  Biso   1.000  C
  C74      1.0000 0.51126  0.55217  0.71065  Biso   1.000  C
  H92      1.0000 0.52334  0.38971  0.61371  Biso   1.000  H
  H93      1.0000 0.56237  0.41887  0.55061  Biso   1.000  H
  H94      1.0000 0.62884  0.46816  0.61560  Biso   1.000  H
  C75      1.0000 0.28221  0.62222  0.58838  Biso   1.000  C
  C76      1.0000 0.31437  0.64948  0.70757  Biso   1.000  C
  C77      1.0000 0.47114  0.58376  0.76741  Biso   1.000  C
  H95      1.0000 0.57937  0.52187  0.71131  Biso   1.000  H
  C78      1.0000 0.21142  0.52044  0.56404  Biso   1.000  C
  H96      1.0000 0.33065  0.63826  0.55742  Biso   1.000  H
  H97      1.0000 0.23398  0.67964  0.59429  Biso   1.000  H
  H98      1.0000 0.24927  0.68470  0.70720  Biso   1.000  H
  C79      1.0000 0.37192  0.63308  0.76495  Biso   1.000  C
  C80      1.0000 0.53051  0.56030  0.82970  Biso   1.000  C
  C81      1.0000 0.25014  0.44344  0.52320  Biso   1.000  C
  C82      1.0000 0.10662  0.50044  0.58341  Biso   1.000  C
  O14      1.0000 0.33477  0.66453  0.82247  Biso   1.000  O
  C83      1.0000 0.47699  0.46170  0.85040  Biso   1.000  C
  H99      1.0000 0.60839  0.55049  0.82531  Biso   1.000  H
  H100     1.0000 0.52802  0.61998  0.86189  Biso   1.000  H
  C84      1.0000 0.18832  0.34847  0.50174  Biso   1.000  C
  H101     1.0000 0.31957  0.45541  0.50968  Biso   1.000  H
  C85      1.0000 0.04352  0.40673  0.56054  Biso   1.000  C
  O15      1.0000 0.07327  0.57758  0.62732  Biso   1.000  O
  C86      1.0000 0.22148  0.68162  0.82190  Biso   1.000  C
  C87      1.0000 0.49690  0.36122  0.82342  Biso   1.000  C
  C88      1.0000 0.40426  0.46794  0.89578  Biso   1.000  C
  O16      1.0000 0.22538  0.26881  0.46129  Biso   1.000  O
  C89      1.0000 0.08277  0.32952  0.51914  Biso   1.000  C
  H102     1.0000 0.97328  0.39528  0.57321  Biso   1.000  H
  C90      1.0000 0.95718  0.58326  0.63110  Biso   1.000  C
  H103     1.0000 0.17731  0.62348  0.79638  Biso   1.000  H
  H104     1.0000 0.20261  0.68720  0.86430  Biso   1.000  H
  H105     1.0000 0.20700  0.74583  0.80461  Biso   1.000  H
  C91      1.0000 0.44223  0.27242  0.83996  Biso   1.000  C
  O17      1.0000 0.57232  0.35772  0.78017  Biso   1.000  O
  H106     1.0000 0.39013  0.53421  0.91492  Biso   1.000  H
  C92      1.0000 0.35160  0.37875  0.91374  Biso   1.000  C
  C93      1.0000 0.32921  0.28623  0.44479  Biso   1.000  C
  C94      1.0000 0.32901  0.28199  0.42409  Biso   1.000  C
  C95      1.0000 0.01180  0.22683  0.49423  Biso   1.000  C
  H107     1.0000 0.94261  0.65697  0.63989  Biso   1.000  H
  H108     1.0000 0.91655  0.55607  0.59008  Biso   1.000  H
  C96      1.0000 0.91110  0.52447  0.68012  Biso   1.000  C
  C97      1.0000 0.36806  0.27928  0.88495  Biso   1.000  C
  H109     1.0000 0.45554  0.20621  0.82039  Biso   1.000  H
  C98      1.0000 0.60274  0.25852  0.75474  Biso   1.000  C
  O18      1.0000 0.28069  0.38427  0.95977  Biso   1.000  O
  C99      1.0000 0.36196  0.18293  0.40679  Biso   1.000  C
  H110     1.0000 0.33012  0.34332  0.41899  Biso   1.000  H
  H111     1.0000 0.38258  0.30633  0.48241  Biso   1.000  H
  H112     1.0000 0.32957  0.35219  0.41161  Biso   1.000  H
  H113     1.0000 0.39517  0.28085  0.45410  Biso   1.000  H
  C100     1.0000 0.34404  0.20349  0.36369  Biso   1.000  C
  H114     1.0000 0.03821  0.19478  0.45599  Biso   1.000  H
  C101     1.0000 0.01688  0.14952  0.54230  Biso   1.000  C
  H115     1.0000 0.93497  0.24242  0.48360  Biso   1.000  H
  N3       1.0000 0.98244  0.47867  0.71774  Biso   1.000  N
  O19      1.0000 0.81090  0.52256  0.68385  Biso   1.000  O
  C102     1.0000 0.31138  0.17920  0.90287  Biso   1.000  C
  H116     1.0000 0.53865  0.21911  0.73040  Biso   1.000  H
  H117     1.0000 0.65999  0.26804  0.72799  Biso   1.000  H
  H118     1.0000 0.63057  0.22061  0.78839  Biso   1.000  H
  C103     1.0000 0.28786  0.47731  0.00269  Biso   1.000  C
  C104     1.0000 0.28836  0.17237  0.34459  Biso   1.000  C
  H119     1.0000 0.34830  0.12258  0.42882  Biso   1.000  H
  H120     1.0000 0.44023  0.18892  0.40060  Biso   1.000  H
  H121     1.0000 0.40867  0.12117  0.43591  Biso   1.000  H
  H122     1.0000 0.28736  0.24167  0.33089  Biso   1.000  H
  C105     1.0000 0.35204  0.10727  0.39942  Biso   1.000  C
  H123     1.0000 0.41172  0.22090  0.34568  Biso   1.000  H
  H124     1.0000 0.27973  0.19686  0.33141  Biso   1.000  H
  C106     1.0000 0.10505  0.08631  0.54882  Biso   1.000  C
  C107     1.0000 0.93461  0.14135  0.58162  Biso   1.000  C
  H125     1.0000 0.05236  0.48464  0.71358  Biso   1.000  H
  C108     1.0000 0.94563  0.41833  0.76609  Biso   1.000  C
  C109     1.0000 0.24121  0.11127  0.84847  Biso   1.000  C
  H126     1.0000 0.26423  0.19933  0.93529  Biso   1.000  H
  H127     1.0000 0.36851  0.13771  0.92092  Biso   1.000  H
  H128     1.0000 0.25879  0.53328  0.98142  Biso   1.000  H
  H129     1.0000 0.24502  0.46596  0.03648  Biso   1.000  H
  H130     1.0000 0.36456  0.49621  0.01961  Biso   1.000  H
  C110     1.0000 0.31528  0.09868  0.29218  Biso   1.000  C
  H131     1.0000 0.21289  0.15215  0.35230  Biso   1.000  H
  H132     1.0000 0.28090  0.08794  0.41332  Biso   1.000  H
  C111     1.0000 0.38401  0.01919  0.35060  Biso   1.000  C
  H133     1.0000 0.16064  0.09038  0.52249  Biso   1.000  H
  C112     1.0000 0.11285  0.01682  0.59367  Biso   1.000  C
  C113     1.0000 0.94166  0.06993  0.62586  Biso   1.000  C
  O20      1.0000 0.84837  0.20582  0.57368  Biso   1.000  O
  H134     1.0000 0.86903  0.39015  0.75290  Biso   1.000  H
  H135     1.0000 0.99144  0.35903  0.76939  Biso   1.000  H
  C114     1.0000 0.95241  0.48201  0.82923  Biso   1.000  C
  C115     1.0000 0.12765  0.12247  0.83641  Biso   1.000  C
  C116     1.0000 0.28666  0.03505  0.80872  Biso   1.000  C
  H136     1.0000 0.24943  0.05488  0.27379  Biso   1.000  H
  H137     1.0000 0.34243  0.13735  0.26089  Biso   1.000  H
  H138     1.0000 0.37185  0.05515  0.30740  Biso   1.000  H
  H139     1.0000 0.33009  0.01020  0.31368  Biso   1.000  H
  H140     1.0000 0.45664  0.03834  0.33911  Biso   1.000  H
  H141     1.0000 0.38687  0.95438  0.36870  Biso   1.000  H
  C117     1.0000 0.02995  0.00795  0.63299  Biso   1.000  C
  O21      1.0000 0.19894  0.95210  0.60260  Biso   1.000  O
  H142     1.0000 0.88493  0.06424  0.65119  Biso   1.000  H
  C118     1.0000 0.77623  0.21756  0.61778  Biso   1.000  C
  H143     1.0000 0.02956  0.50644  0.84421  Biso   1.000  H
  H144     1.0000 0.90982  0.54344  0.82602  Biso   1.000  H
  N4       1.0000 0.90798  0.41825  0.87380  Biso   1.000  N
  C119     1.0000 0.06113  0.06333  0.78575  Biso   1.000  C
  H145     1.0000 0.09519  0.17116  0.86312  Biso   1.000  H
  C120     1.0000 0.22055  0.97840  0.75687  Biso   1.000  C
  O22      1.0000 0.39813  0.02235  0.82389  Biso   1.000  O
  C121     1.0000 0.03990  0.93609  0.68451  Biso   1.000  C
  C122     1.0000 0.28666  0.95854  0.56536  Biso   1.000  C
  H146     1.0000 0.81789  0.23697  0.65899  Biso   1.000  H
  H147     1.0000 0.72772  0.27182  0.60861  Biso   1.000  H
  H148     1.0000 0.73244  0.15228  0.61702  Biso   1.000  H
  C123     1.0000 0.97488  0.39106  0.91775  Biso   1.000  C
  C124     1.0000 0.10847  0.99237  0.74392  Biso   1.000  C
  O23      1.0000 0.94802  0.06821  0.77303  Biso   1.000  O
  H149     1.0000 0.25277  0.92964  0.73021  Biso   1.000  H
  C125     1.0000 0.44482  0.93824  0.79170  Biso   1.000  C
  H150     1.0000 0.96587  0.91476  0.69392  Biso   1.000  H
  H151     1.0000 0.07500  0.87312  0.66972  Biso   1.000  H
  H152     1.0000 0.32335  0.02837  0.57358  Biso   1.000  H
  H153     1.0000 0.33936  0.90813  0.57562  Biso   1.000  H
  H154     1.0000 0.25731  0.94356  0.52150  Biso   1.000  H
  H155     1.0000 0.04914  0.41734  0.92229  Biso   1.000  H
  C126     1.0000 0.94103  0.32035  0.96166  Biso   1.000  C
  C127     1.0000 0.89339  0.13661  0.81321  Biso   1.000  C
  H156     1.0000 0.44470  0.94862  0.74817  Biso   1.000  H
  H157     1.0000 0.52021  0.93425  0.81051  Biso   1.000  H
  H158     1.0000 0.40182  0.87358  0.79411  Biso   1.000  H
  C128     1.0000 0.83008  0.27674  0.95627  Biso   1.000  C
  C129     1.0000 0.02125  0.29186  0.00718  Biso   1.000  C
  H159     1.0000 0.92068  0.20825  0.81188  Biso   1.000  H
  H160     1.0000 0.81431  0.12843  0.79950  Biso   1.000  H
  H161     1.0000 0.90736  0.12004  0.85560  Biso   1.000  H
  C130     1.0000 0.80011  0.20425  0.99706  Biso   1.000  C
  O24      1.0000 0.75193  0.30296  0.91185  Biso   1.000  O
  C131     1.0000 0.99571  0.22148  0.04796  Biso   1.000  C
  H162     1.0000 0.09424  0.32125  0.01020  Biso   1.000  H
  C132     1.0000 0.67902  0.15457  0.99219  Biso   1.000  C
  C133     1.0000 0.88480  0.18002  0.04097  Biso   1.000  C
  H163     1.0000 0.78040  0.34549  0.89171  Biso   1.000  H
  C134     1.0000 0.08218  0.18506  0.09693  Biso   1.000  C
  C135     1.0000 0.64274  0.09432  0.92612  Biso   1.000  C
  C136     1.0000 0.59956  0.24098  0.00609  Biso   1.000  C
  C137     1.0000 0.66910  0.07649  0.03998  Biso   1.000  C
  H164     1.0000 0.86620  0.13221  0.06800  Biso   1.000  H
  C138     1.0000 0.19620  0.24578  0.10109  Biso   1.000  C
  C139     1.0000 0.04403  0.19846  0.16239  Biso   1.000  C
  C140     1.0000 0.09478  0.06737  0.07746  Biso   1.000  C
  H165     1.0000 0.64589  0.14214  0.89521  Biso   1.000  H
  H166     1.0000 0.69197  0.03952  0.91790  Biso   1.000  H
  H167     1.0000 0.56776  0.06354  0.92390  Biso   1.000  H
  H168     1.0000 0.60238  0.28971  0.97570  Biso   1.000  H
  H169     1.0000 0.52479  0.20950  0.00349  Biso   1.000  H
  H170     1.0000 0.62191  0.27779  0.04777  Biso   1.000  H
  H171     1.0000 0.59337  0.04656  0.03591  Biso   1.000  H
  H172     1.0000 0.71788  0.02130  0.03208  Biso   1.000  H
  H173     1.0000 0.68974  0.11267  0.08199  Biso   1.000  H
  H174     1.0000 0.24671  0.22298  0.13370  Biso   1.000  H
  H175     1.0000 0.22513  0.23248  0.06129  Biso   1.000  H
  H176     1.0000 0.18830  0.31999  0.11078  Biso   1.000  H
  H177     1.0000 0.97498  0.15676  0.16139  Biso   1.000  H
  H178     1.0000 0.09985  0.17569  0.19230  Biso   1.000  H
  H179     1.0000 0.03312  0.27145  0.17468  Biso   1.000  H
  H180     1.0000 0.02336  0.02868  0.07448  Biso   1.000  H
  H181     1.0000 0.12229  0.05796  0.03719  Biso   1.000  H
  H182     1.0000 0.14637  0.04196  0.10851  Biso   1.000  H
