data_image0
_cell_length_a       12.322
_cell_length_b       15.457
_cell_length_c       27.114
_cell_angle_alpha    90
_cell_angle_beta     90
_cell_angle_gamma    90

_symmetry_space_group_name_H-M    "P 1"
_symmetry_int_tables_number       1

loop_
  _symmetry_equiv_pos_as_xyz
  'x, y, z'

loop_
  _atom_site_label
  _atom_site_occupancy
  _atom_site_fract_x
  _atom_site_fract_y
  _atom_site_fract_z
  _atom_site_thermal_displace_type
  _atom_site_B_iso_or_equiv
  _atom_site_type_symbol
  O1       1.0000 0.52889  0.44129  0.43848  Biso   1.000  O
  C1       1.0000 0.61459  0.47590  0.44649  Biso   1.000  C
  N1       1.0000 0.64843  0.55308  0.42705  Biso   1.000  N
  N2       1.0000 0.69372  0.44543  0.47769  Biso   1.000  N
  C2       1.0000 0.58213  0.60471  0.39581  Biso   1.000  C
  C3       1.0000 0.74850  0.58181  0.44999  Biso   1.000  C
  C4       1.0000 0.77982  0.50708  0.48528  Biso   1.000  C
  C5       1.0000 0.67627  0.36967  0.50749  Biso   1.000  C
  N3       1.0000 0.60680  0.59468  0.34355  Biso   1.000  N
  H1       1.0000 0.59122  0.66501  0.40488  Biso   1.000  H
  H2       1.0000 0.50674  0.58951  0.40131  Biso   1.000  H
  N4       1.0000 0.84150  0.58789  0.41750  Biso   1.000  N
  H3       1.0000 0.73746  0.63589  0.46821  Biso   1.000  H
  N5       1.0000 0.88492  0.47907  0.46677  Biso   1.000  N
  H4       1.0000 0.78380  0.52630  0.51969  Biso   1.000  H
  N6       1.0000 0.72521  0.29242  0.48728  Biso   1.000  N
  H5       1.0000 0.59877  0.36029  0.51092  Biso   1.000  H
  H6       1.0000 0.70581  0.37989  0.54009  Biso   1.000  H
  C6       1.0000 0.55486  0.53581  0.31412  Biso   1.000  C
  C7       1.0000 0.68990  0.64230  0.31711  Biso   1.000  C
  C8       1.0000 0.85043  0.64929  0.37711  Biso   1.000  C
  C9       1.0000 0.91909  0.52869  0.42760  Biso   1.000  C
  C10      1.0000 0.94579  0.41017  0.48658  Biso   1.000  C
  C11      1.0000 0.66978  0.23808  0.45722  Biso   1.000  C
  C12      1.0000 0.83777  0.26842  0.49207  Biso   1.000  C
  N7       1.0000 0.59722  0.54150  0.26772  Biso   1.000  N
  O2       1.0000 0.47898  0.49000  0.32625  Biso   1.000  O
  C13      1.0000 0.68211  0.60678  0.26389  Biso   1.000  C
  H7       1.0000 0.67643  0.70479  0.31810  Biso   1.000  H
  N8       1.0000 0.79971  0.62198  0.33149  Biso   1.000  N
  H8       1.0000 0.81789  0.70363  0.38729  Biso   1.000  H
  H9       1.0000 0.92672  0.66009  0.37080  Biso   1.000  H
  O3       1.0000 0.00674  0.52203  0.40702  Biso   1.000  O
  N9       1.0000 0.91349  0.32620  0.46751  Biso   1.000  N
  H10      1.0000 0.93759  0.41017  0.52209  Biso   1.000  H
  H11      1.0000 0.02191  0.41949  0.47920  Biso   1.000  H
  N10      1.0000 0.74014  0.17539  0.44058  Biso   1.000  N
  O4       1.0000 0.57288  0.23983  0.44818  Biso   1.000  O
  C14      1.0000 0.84848  0.18309  0.46131  Biso   1.000  C
  H12      1.0000 0.85782  0.25911  0.52670  Biso   1.000  H
  C15      1.0000 0.55429  0.49052  0.22619  Biso   1.000  C
  N11      1.0000 0.78956  0.57469  0.25503  Biso   1.000  N
  H13      1.0000 0.66247  0.65239  0.24028  Biso   1.000  H
  C16      1.0000 0.85611  0.58621  0.29420  Biso   1.000  C
  C17      1.0000 0.97427  0.28298  0.43277  Biso   1.000  C
  C18      1.0000 0.70443  0.10513  0.40879  Biso   1.000  C
  N12      1.0000 0.93402  0.20217  0.42709  Biso   1.000  N
  H14      1.0000 0.86658  0.13353  0.48219  Biso   1.000  H
  N13      1.0000 0.61102  0.40959  0.21941  Biso   1.000  N
  H15      1.0000 0.47801  0.47868  0.23198  Biso   1.000  H
  H16      1.0000 0.55989  0.52442  0.19621  Biso   1.000  H
  C19      1.0000 0.82511  0.53303  0.20989  Biso   1.000  C
  O5       1.0000 0.95439  0.56770  0.29531  Biso   1.000  O
  O6       1.0000 0.05267  0.31261  0.41064  Biso   1.000  O
  N14      1.0000 0.72780  0.12001  0.35742  Biso   1.000  N
  H17      1.0000 0.73973  0.05202  0.41908  Biso   1.000  H
  H18      1.0000 0.62677  0.09717  0.41281  Biso   1.000  H
  C20      1.0000 0.97638  0.14130  0.39150  Biso   1.000  C
  C21      1.0000 0.57661  0.33409  0.23829  Biso   1.000  C
  C22      1.0000 0.70930  0.40060  0.18975  Biso   1.000  C
  N15      1.0000 0.80458  0.44038  0.20915  Biso   1.000  N
  H19      1.0000 0.78810  0.55949  0.18219  Biso   1.000  H
  H20      1.0000 0.90229  0.54293  0.20569  Biso   1.000  H
  C23      1.0000 0.64908  0.14770  0.32551  Biso   1.000  C
  C24      1.0000 0.82730  0.09342  0.33142  Biso   1.000  C
  N16      1.0000 0.92022  0.14259  0.34447  Biso   1.000  N
  H21      1.0000 0.97160  0.08352  0.40529  Biso   1.000  H
  H22      1.0000 0.05251  0.15398  0.38600  Biso   1.000  H
  O7       1.0000 0.49270  0.32147  0.26186  Biso   1.000  O
  N17      1.0000 0.64973  0.27088  0.22575  Biso   1.000  N
  C25      1.0000 0.73316  0.30278  0.19267  Biso   1.000  C
  H23      1.0000 0.69640  0.41871  0.15560  Biso   1.000  H
  C26      1.0000 0.88322  0.38119  0.22029  Biso   1.000  C
  N18      1.0000 0.69242  0.15003  0.27842  Biso   1.000  N
  O8       1.0000 0.55478  0.16672  0.33577  Biso   1.000  O
  C27      1.0000 0.80287  0.11962  0.27779  Biso   1.000  C
  H24      1.0000 0.84037  0.03112  0.33440  Biso   1.000  H
  C28      1.0000 0.95642  0.19357  0.30530  Biso   1.000  C
  C29      1.0000 0.63123  0.18141  0.23759  Biso   1.000  C
  H25      1.0000 0.72991  0.27502  0.16021  Biso   1.000  H
  N19      1.0000 0.84020  0.30148  0.21288  Biso   1.000  N
  O9       1.0000 0.97622  0.39723  0.23420  Biso   1.000  O
  N20      1.0000 0.88533  0.18393  0.26776  Biso   1.000  N
  H26      1.0000 0.81058  0.07000  0.25559  Biso   1.000  H
  O10      1.0000 0.03644  0.23873  0.30575  Biso   1.000  O
  H27      1.0000 0.55470  0.17351  0.24471  Biso   1.000  H
  H28      1.0000 0.64843  0.14660  0.20890  Biso   1.000  H
  C30      1.0000 0.90497  0.22430  0.22088  Biso   1.000  C
  H29      1.0000 0.88963  0.18302  0.19492  Biso   1.000  H
  H30      1.0000 0.98117  0.23950  0.21871  Biso   1.000  H
  C31      1.0000 0.34848  0.31688  0.53869  Biso   1.000  C
  C32      1.0000 0.33777  0.23161  0.50793  Biso   1.000  C
  N21      1.0000 0.24014  0.32458  0.55942  Biso   1.000  N
  H31      1.0000 0.36658  0.36650  0.51781  Biso   1.000  H
  N22      1.0000 0.43402  0.29779  0.57291  Biso   1.000  N
  N23      1.0000 0.22521  0.20761  0.51272  Biso   1.000  N
  H32      1.0000 0.35782  0.24093  0.47330  Biso   1.000  H
  N24      1.0000 0.41349  0.17377  0.53249  Biso   1.000  N
  C33      1.0000 0.16978  0.26189  0.54278  Biso   1.000  C
  C34      1.0000 0.20443  0.39490  0.59121  Biso   1.000  C
  C35      1.0000 0.47427  0.21699  0.56723  Biso   1.000  C
  C36      1.0000 0.47638  0.35867  0.60850  Biso   1.000  C
  C37      1.0000 0.17627  0.13030  0.49251  Biso   1.000  C
  C38      1.0000 0.44579  0.08980  0.51342  Biso   1.000  C
  O11      1.0000 0.07288  0.26021  0.55182  Biso   1.000  O
  H33      1.0000 0.23973  0.44802  0.58092  Biso   1.000  H
  H34      1.0000 0.12677  0.40279  0.58719  Biso   1.000  H
  N25      1.0000 0.22780  0.38002  0.64258  Biso   1.000  N
  O12      1.0000 0.55267  0.18742  0.58936  Biso   1.000  O
  H35      1.0000 0.47160  0.41651  0.59471  Biso   1.000  H
  H36      1.0000 0.55251  0.34599  0.61400  Biso   1.000  H
  N26      1.0000 0.42022  0.35738  0.65553  Biso   1.000  N
  H37      1.0000 0.09877  0.13968  0.48908  Biso   1.000  H
  H38      1.0000 0.20581  0.12008  0.45991  Biso   1.000  H
  N27      1.0000 0.19372  0.05460  0.52231  Biso   1.000  N
  N28      1.0000 0.38492  0.02090  0.53323  Biso   1.000  N
  H39      1.0000 0.43759  0.08980  0.47791  Biso   1.000  H
  H40      1.0000 0.52191  0.08048  0.52080  Biso   1.000  H
  C39      1.0000 0.32730  0.40661  0.66858  Biso   1.000  C
  C40      1.0000 0.14908  0.35233  0.67449  Biso   1.000  C
  C41      1.0000 0.45642  0.30640  0.69470  Biso   1.000  C
  C42      1.0000 0.11459  0.02413  0.55351  Biso   1.000  C
  C43      1.0000 0.27982  0.99288  0.51472  Biso   1.000  C
  C44      1.0000 0.41909  0.97128  0.57240  Biso   1.000  C
  H41      1.0000 0.34037  0.46891  0.66560  Biso   1.000  H
  C45      1.0000 0.30287  0.38041  0.72221  Biso   1.000  C
  N29      1.0000 0.19242  0.35000  0.72158  Biso   1.000  N
  O13      1.0000 0.05478  0.33331  0.66423  Biso   1.000  O
  N30      1.0000 0.38533  0.31610  0.73224  Biso   1.000  N
  O14      1.0000 0.53644  0.26131  0.69425  Biso   1.000  O
  O15      1.0000 0.02889  0.05868  0.56152  Biso   1.000  O
  N31      1.0000 0.14843  0.94688  0.57295  Biso   1.000  N
  C46      1.0000 0.24850  0.91822  0.55001  Biso   1.000  C
  H42      1.0000 0.28380  0.97367  0.48031  Biso   1.000  H
  N32      1.0000 0.34150  0.91208  0.58250  Biso   1.000  N
  O16      1.0000 0.50674  0.97800  0.59298  Biso   1.000  O
  H43      1.0000 0.31058  0.43003  0.74441  Biso   1.000  H
  C47      1.0000 0.13123  0.31863  0.76241  Biso   1.000  C
  C48      1.0000 0.40497  0.27567  0.77912  Biso   1.000  C
  C49      1.0000 0.08213  0.89532  0.60419  Biso   1.000  C
  H44      1.0000 0.23746  0.86407  0.53179  Biso   1.000  H
  C50      1.0000 0.35043  0.85068  0.62289  Biso   1.000  C
  H45      1.0000 0.05470  0.32652  0.75529  Biso   1.000  H
  H46      1.0000 0.14843  0.35343  0.79110  Biso   1.000  H
  N33      1.0000 0.14973  0.22909  0.77425  Biso   1.000  N
  H47      1.0000 0.38963  0.31701  0.80508  Biso   1.000  H
  H48      1.0000 0.48117  0.26053  0.78129  Biso   1.000  H
  N34      1.0000 0.34020  0.19849  0.78712  Biso   1.000  N
  H49      1.0000 0.09122  0.83503  0.59512  Biso   1.000  H
  H50      1.0000 0.00674  0.91053  0.59869  Biso   1.000  H
  N35      1.0000 0.10680  0.90529  0.65645  Biso   1.000  N
  H51      1.0000 0.31789  0.79640  0.61271  Biso   1.000  H
  H52      1.0000 0.42672  0.83988  0.62920  Biso   1.000  H
  N36      1.0000 0.29971  0.87798  0.66851  Biso   1.000  N
  C51      1.0000 0.07661  0.16588  0.76171  Biso   1.000  C
  C52      1.0000 0.23316  0.19719  0.80733  Biso   1.000  C
  C53      1.0000 0.38322  0.11878  0.77971  Biso   1.000  C
  C54      1.0000 0.18990  0.85767  0.68289  Biso   1.000  C
  C55      1.0000 0.05486  0.96422  0.68588  Biso   1.000  C
  C56      1.0000 0.35611  0.91383  0.70580  Biso   1.000  C
  N37      1.0000 0.11102  0.09038  0.78059  Biso   1.000  N
  O17      1.0000 0.99270  0.17850  0.73814  Biso   1.000  O
  C57      1.0000 0.20930  0.09937  0.81025  Biso   1.000  C
  H53      1.0000 0.22991  0.22501  0.83979  Biso   1.000  H
  N38      1.0000 0.30458  0.05958  0.79085  Biso   1.000  N
  O18      1.0000 0.47622  0.10280  0.76580  Biso   1.000  O
  C58      1.0000 0.18211  0.89319  0.73611  Biso   1.000  C
  H54      1.0000 0.17643  0.79517  0.68190  Biso   1.000  H
  O19      1.0000 0.97898  0.01003  0.67375  Biso   1.000  O
  N39      1.0000 0.09722  0.95853  0.73228  Biso   1.000  N
  N40      1.0000 0.28956  0.92528  0.74497  Biso   1.000  N
  O20      1.0000 0.45439  0.93233  0.70469  Biso   1.000  O
  C59      1.0000 0.05429  0.00951  0.77381  Biso   1.000  C
  H55      1.0000 0.19640  0.08132  0.84440  Biso   1.000  H
  C60      1.0000 0.32511  0.96701  0.79011  Biso   1.000  C
  H56      1.0000 0.16247  0.84758  0.75972  Biso   1.000  H
  H57      1.0000 0.97801  0.02128  0.76802  Biso   1.000  H
  H58      1.0000 0.05989  0.97561  0.80379  Biso   1.000  H
  H59      1.0000 0.28810  0.94048  0.81781  Biso   1.000  H
  H60      1.0000 0.40229  0.95711  0.79431  Biso   1.000  H
  C61      1.0000 0.67489  0.46697  0.70989  Biso   1.000  C
  H61      1.0000 0.71190  0.44051  0.68219  Biso   1.000  H
  H62      1.0000 0.59771  0.45707  0.70569  Biso   1.000  H
  N41      1.0000 0.69542  0.55962  0.70915  Biso   1.000  N
  N42      1.0000 0.71044  0.42531  0.75503  Biso   1.000  N
  C62      1.0000 0.79070  0.59940  0.68975  Biso   1.000  C
  C63      1.0000 0.61678  0.61881  0.72029  Biso   1.000  C
  C64      1.0000 0.81789  0.39322  0.76389  Biso   1.000  C
  C65      1.0000 0.64389  0.41379  0.79420  Biso   1.000  C
  C66      1.0000 0.76684  0.69722  0.69267  Biso   1.000  C
  H63      1.0000 0.80360  0.58129  0.65560  Biso   1.000  H
  N43      1.0000 0.88898  0.59041  0.71941  Biso   1.000  N
  N44      1.0000 0.65980  0.69852  0.71288  Biso   1.000  N
  O21      1.0000 0.52378  0.60277  0.73420  Biso   1.000  O
  H64      1.0000 0.83753  0.34761  0.74028  Biso   1.000  H
  C67      1.0000 0.81010  0.35770  0.81711  Biso   1.000  C
  N45      1.0000 0.90278  0.45850  0.76772  Biso   1.000  N
  N46      1.0000 0.70029  0.37802  0.83149  Biso   1.000  N
  O22      1.0000 0.54561  0.43230  0.79531  Biso   1.000  O
  H65      1.0000 0.77009  0.72498  0.66021  Biso   1.000  H
  N47      1.0000 0.85027  0.72912  0.72575  Biso   1.000  N
  C68      1.0000 0.92339  0.66591  0.73829  Biso   1.000  C
  C69      1.0000 0.94571  0.50948  0.72619  Biso   1.000  C
  C70      1.0000 0.59503  0.77570  0.72088  Biso   1.000  C
  H66      1.0000 0.82357  0.29521  0.81810  Biso   1.000  H
  N48      1.0000 0.89320  0.40532  0.84355  Biso   1.000  N
  C71      1.0000 0.94514  0.46419  0.81412  Biso   1.000  C
  C72      1.0000 0.64957  0.35071  0.87711  Biso   1.000  C
  C73      1.0000 0.86877  0.81859  0.73759  Biso   1.000  C
  O23      1.0000 0.00730  0.67853  0.76186  Biso   1.000  O
  H67      1.0000 0.94011  0.47558  0.69621  Biso   1.000  H
  H68      1.0000 0.02199  0.52132  0.73198  Biso   1.000  H
  H69      1.0000 0.61037  0.81698  0.69492  Biso   1.000  H
  H70      1.0000 0.51883  0.76050  0.71871  Biso   1.000  H
  N49      1.0000 0.61467  0.81607  0.76776  Biso   1.000  N
  C74      1.0000 0.91787  0.39529  0.89581  Biso   1.000  C
  O24      1.0000 0.02102  0.51000  0.82625  Biso   1.000  O
  H71      1.0000 0.68211  0.29637  0.88729  Biso   1.000  H
  H72      1.0000 0.57328  0.33991  0.87080  Biso   1.000  H
  N50      1.0000 0.65850  0.41211  0.91750  Biso   1.000  N
  H73      1.0000 0.94530  0.82649  0.74471  Biso   1.000  H
  H74      1.0000 0.85157  0.85340  0.70890  Biso   1.000  H
  N51      1.0000 0.80758  0.84997  0.77842  Biso   1.000  N
  C75      1.0000 0.69713  0.88038  0.77779  Biso   1.000  C
  C76      1.0000 0.54358  0.80643  0.80530  Biso   1.000  C
  H75      1.0000 0.90878  0.33499  0.90488  Biso   1.000  H
  H76      1.0000 0.99326  0.41049  0.90131  Biso   1.000  H
  N52      1.0000 0.85157  0.44692  0.92705  Biso   1.000  N
  C77      1.0000 0.75150  0.41819  0.94999  Biso   1.000  C
  C78      1.0000 0.58091  0.47131  0.92760  Biso   1.000  C
  C79      1.0000 0.85092  0.85230  0.82551  Biso   1.000  C
  C80      1.0000 0.67270  0.90658  0.83142  Biso   1.000  C
  H77      1.0000 0.68942  0.93000  0.75559  Biso   1.000  H
  N53      1.0000 0.57978  0.85741  0.84447  Biso   1.000  N
  O25      1.0000 0.46356  0.76127  0.80575  Biso   1.000  O
  C81      1.0000 0.88541  0.52410  0.94649  Biso   1.000  C
  H78      1.0000 0.76254  0.36411  0.96821  Biso   1.000  H
  C82      1.0000 0.72018  0.49292  0.98528  Biso   1.000  C
  N54      1.0000 0.61508  0.52093  0.96677  Biso   1.000  N
  O26      1.0000 0.49326  0.47797  0.90702  Biso   1.000  O
  N55      1.0000 0.77220  0.87999  0.85742  Biso   1.000  N
  O27      1.0000 0.94522  0.83328  0.83577  Biso   1.000  O
  H79      1.0000 0.65963  0.96888  0.83440  Biso   1.000  H
  C83      1.0000 0.52362  0.85870  0.89150  Biso   1.000  C
  N56      1.0000 0.80628  0.55457  0.97769  Biso   1.000  N
  O28      1.0000 0.97111  0.55871  0.93848  Biso   1.000  O
  H80      1.0000 0.71620  0.47370  0.01969  Biso   1.000  H
  C84      1.0000 0.55421  0.58983  0.98658  Biso   1.000  C
  C85      1.0000 0.79557  0.89487  0.90879  Biso   1.000  C
  H81      1.0000 0.52840  0.91648  0.90529  Biso   1.000  H
  H82      1.0000 0.44749  0.84602  0.88600  Biso   1.000  H
  N57      1.0000 0.56598  0.79783  0.92709  Biso   1.000  N
  C86      1.0000 0.82373  0.63033  0.00749  Biso   1.000  C
  H83      1.0000 0.47809  0.58051  0.97920  Biso   1.000  H
  N58      1.0000 0.58651  0.67380  0.96751  Biso   1.000  N
  H84      1.0000 0.56241  0.58983  0.02209  Biso   1.000  H
  H85      1.0000 0.76027  0.94798  0.91908  Biso   1.000  H
  H86      1.0000 0.87323  0.90283  0.91281  Biso   1.000  H
  N59      1.0000 0.75986  0.82461  0.94058  Biso   1.000  N
  C87      1.0000 0.65152  0.81691  0.96131  Biso   1.000  C
  C88      1.0000 0.52573  0.71702  0.93277  Biso   1.000  C
  N60      1.0000 0.77479  0.70758  0.98728  Biso   1.000  N
  H87      1.0000 0.90123  0.63971  0.01092  Biso   1.000  H
  H88      1.0000 0.79419  0.62011  0.04009  Biso   1.000  H
  C89      1.0000 0.66223  0.73158  0.99207  Biso   1.000  C
  C90      1.0000 0.83022  0.76192  0.95722  Biso   1.000  C
  H89      1.0000 0.63342  0.86647  0.98219  Biso   1.000  H
  O29      1.0000 0.44733  0.68739  0.91064  Biso   1.000  O
  H90      1.0000 0.64218  0.74089  0.02670  Biso   1.000  H
  O30      1.0000 0.92712  0.76017  0.94818  Biso   1.000  O
  C91      1.0000 0.36877  0.68137  0.26241  Biso   1.000  C
  N61      1.0000 0.30758  0.65000  0.22158  Biso   1.000  N
  H91      1.0000 0.44530  0.67348  0.25529  Biso   1.000  H
  H92      1.0000 0.35157  0.64657  0.29110  Biso   1.000  H
  N62      1.0000 0.35027  0.77091  0.27425  Biso   1.000  N
  C92      1.0000 0.19713  0.61959  0.22221  Biso   1.000  C
  C93      1.0000 0.35092  0.64767  0.17449  Biso   1.000  C
  C94      1.0000 0.26684  0.80281  0.30733  Biso   1.000  C
  C95      1.0000 0.42339  0.83412  0.26171  Biso   1.000  C
  C96      1.0000 0.17270  0.59339  0.16858  Biso   1.000  C
  H93      1.0000 0.18942  0.56997  0.24441  Biso   1.000  H
  N63      1.0000 0.11467  0.68390  0.23224  Biso   1.000  N
  N64      1.0000 0.27220  0.61998  0.14258  Biso   1.000  N
  O31      1.0000 0.44522  0.66669  0.16423  Biso   1.000  O
  N65      1.0000 0.15980  0.80151  0.28712  Biso   1.000  N
  H94      1.0000 0.27009  0.77499  0.33979  Biso   1.000  H
  C97      1.0000 0.29070  0.90063  0.31025  Biso   1.000  C
  N66      1.0000 0.38898  0.90962  0.28059  Biso   1.000  N
  O32      1.0000 0.50730  0.82150  0.23814  Biso   1.000  O
  H95      1.0000 0.15963  0.53109  0.16560  Biso   1.000  H
  N67      1.0000 0.07978  0.64262  0.15553  Biso   1.000  N
  C98      1.0000 0.04358  0.69360  0.19470  Biso   1.000  C
  C99      1.0000 0.09503  0.72433  0.27912  Biso   1.000  C
  C100     1.0000 0.29557  0.60510  0.09121  Biso   1.000  C
  C101     1.0000 0.11678  0.88122  0.27971  Biso   1.000  C
  N68      1.0000 0.19542  0.94042  0.29085  Biso   1.000  N
  H96      1.0000 0.30360  0.91868  0.34440  Biso   1.000  H
  C102     1.0000 0.44571  0.99049  0.27381  Biso   1.000  C
  C103     1.0000 0.02362  0.64133  0.10850  Biso   1.000  C
  O33      1.0000 0.96356  0.73869  0.19425  Biso   1.000  O
  H97      1.0000 0.11037  0.68299  0.30508  Biso   1.000  H
  H98      1.0000 0.01883  0.73947  0.28129  Biso   1.000  H
  H99      1.0000 0.26027  0.55198  0.08092  Biso   1.000  H
  H100     1.0000 0.37323  0.59721  0.08719  Biso   1.000  H
  N69      1.0000 0.25986  0.67542  0.05942  Biso   1.000  N
  O34      1.0000 0.02378  0.89720  0.26580  Biso   1.000  O
  C104     1.0000 0.17489  0.03299  0.29011  Biso   1.000  C
  H101     1.0000 0.52199  0.97872  0.26802  Biso   1.000  H
  H102     1.0000 0.44011  0.02439  0.30379  Biso   1.000  H
  N70      1.0000 0.40278  0.04147  0.23228  Biso   1.000  N
  H103     1.0000 0.02840  0.58349  0.09471  Biso   1.000  H
  N71      1.0000 0.06598  0.70221  0.07291  Biso   1.000  N
  H104     1.0000 0.94749  0.65401  0.11400  Biso   1.000  H
  C105     1.0000 0.15152  0.68312  0.03869  Biso   1.000  C
  C106     1.0000 0.33022  0.73811  0.04278  Biso   1.000  C
  H105     1.0000 0.21190  0.05952  0.31781  Biso   1.000  H
  H106     1.0000 0.09771  0.04289  0.29431  Biso   1.000  H
  N72      1.0000 0.21044  0.07472  0.24497  Biso   1.000  N
  C107     1.0000 0.31789  0.10681  0.23611  Biso   1.000  C
  C108     1.0000 0.44514  0.03578  0.18588  Biso   1.000  C
  C109     1.0000 0.02573  0.78301  0.06723  Biso   1.000  C
  C110     1.0000 0.16223  0.76839  0.00793  Biso   1.000  C
  H107     1.0000 0.13342  0.63350  0.01781  Biso   1.000  H
  N73      1.0000 0.27479  0.79239  0.01272  Biso   1.000  N
  O35      1.0000 0.42712  0.73979  0.05182  Biso   1.000  O
  C111     1.0000 0.14389  0.08617  0.20580  Biso   1.000  C
  H108     1.0000 0.33753  0.15242  0.25972  Biso   1.000  H
  C112     1.0000 0.31010  0.14233  0.18289  Biso   1.000  C
  O36      1.0000 0.52102  0.98997  0.17375  Biso   1.000  O
  N74      1.0000 0.39320  0.09471  0.15645  Biso   1.000  N
  N75      1.0000 0.08651  0.82623  0.03249  Biso   1.000  N
  O37      1.0000 0.94733  0.81258  0.08936  Biso   1.000  O
  H109     1.0000 0.14218  0.75907  0.97330  Biso   1.000  H
  C113     1.0000 0.32373  0.86970  0.99251  Biso   1.000  C
  N76      1.0000 0.20029  0.12202  0.16851  Biso   1.000  N
  O38      1.0000 0.04561  0.06767  0.20469  Biso   1.000  O
  H110     1.0000 0.32357  0.20483  0.18190  Biso   1.000  H
  C114     1.0000 0.41787  0.10468  0.10419  Biso   1.000  C
  C115     1.0000 0.05421  0.91020  0.01342  Biso   1.000  C
  N77      1.0000 0.30628  0.94540  0.02231  Biso   1.000  N
  H111     1.0000 0.40123  0.86032  0.98908  Biso   1.000  H
  H112     1.0000 0.29419  0.87992  0.95991  Biso   1.000  H
  C116     1.0000 0.14957  0.14932  0.12289  Biso   1.000  C
  N78      1.0000 0.35157  0.05312  0.07295  Biso   1.000  N
  H113     1.0000 0.40878  0.16497  0.09512  Biso   1.000  H
  H114     1.0000 0.49326  0.08947  0.09869  Biso   1.000  H
  N79      1.0000 0.11508  0.97910  0.03323  Biso   1.000  N
  H115     1.0000 0.97809  0.91952  0.02080  Biso   1.000  H
  H116     1.0000 0.06241  0.91020  0.97791  Biso   1.000  H
  C117     1.0000 0.22018  0.00712  0.01472  Biso   1.000  C
  C118     1.0000 0.38541  0.97587  0.05351  Biso   1.000  C
  N80      1.0000 0.15850  0.08792  0.08250  Biso   1.000  N
  H117     1.0000 0.18211  0.20360  0.11271  Biso   1.000  H
  H118     1.0000 0.07328  0.16012  0.12920  Biso   1.000  H
  C119     1.0000 0.25150  0.08178  0.05001  Biso   1.000  C
  C120     1.0000 0.08091  0.02872  0.07240  Biso   1.000  C
  H119     1.0000 0.21620  0.02633  0.98031  Biso   1.000  H
  O39      1.0000 0.47111  0.94132  0.06152  Biso   1.000  O
  H120     1.0000 0.26254  0.13593  0.03179  Biso   1.000  H
  O40      1.0000 0.99326  0.02200  0.09298  Biso   1.000  O
