data_image0
_cell_length_a       17.067
_cell_length_b       9.244
_cell_length_c       23.679
_cell_angle_alpha    90
_cell_angle_beta     90.47
_cell_angle_gamma    90

_symmetry_space_group_name_H-M    "P 1"
_symmetry_int_tables_number       1

loop_
  _symmetry_equiv_pos_as_xyz
  'x, y, z'

loop_
  _atom_site_label
  _atom_site_occupancy
  _atom_site_fract_x
  _atom_site_fract_y
  _atom_site_fract_z
  _atom_site_thermal_displace_type
  _atom_site_B_iso_or_equiv
  _atom_site_type_symbol
  C1       1.0000 0.46640  0.35093  0.49949  Biso   1.000  C
  N1       1.0000 0.45872  0.30431  0.44780  Biso   1.000  N
  N2       1.0000 0.40927  0.40405  0.53049  Biso   1.000  N
  S1       1.0000 0.55078  0.28505  0.53070  Biso   1.000  S
  N3       1.0000 0.39450  0.35450  0.41701  Biso   1.000  N
  N4       1.0000 0.34608  0.45002  0.50198  Biso   1.000  N
  C2       1.0000 0.54103  0.31804  0.60089  Biso   1.000  C
  C3       1.0000 0.34248  0.44104  0.44332  Biso   1.000  C
  C4       1.0000 0.54428  0.45900  0.62931  Biso   1.000  C
  C5       1.0000 0.52651  0.21106  0.63801  Biso   1.000  C
  S2       1.0000 0.26811  0.49654  0.40092  Biso   1.000  S
  C6       1.0000 0.54629  0.48702  0.68202  Biso   1.000  C
  H1       1.0000 0.54488  0.54100  0.60511  Biso   1.000  H
  C7       1.0000 0.52368  0.23615  0.69819  Biso   1.000  C
  H2       1.0000 0.51768  0.11608  0.62412  Biso   1.000  H
  C8       1.0000 0.21332  0.61510  0.44661  Biso   1.000  C
  C9       1.0000 0.53178  0.35504  0.72020  Biso   1.000  C
  H3       1.0000 0.55588  0.58081  0.69651  Biso   1.000  H
  C10      1.0000 0.52438  0.11597  0.74482  Biso   1.000  C
  C11      1.0000 0.15401  0.54500  0.48099  Biso   1.000  C
  C12      1.0000 0.22549  0.75216  0.44509  Biso   1.000  C
  C13      1.0000 0.53211  0.36175  0.77970  Biso   1.000  C
  C14      1.0000 0.52621  0.21149  0.79740  Biso   1.000  C
  C15      1.0000 0.43508  0.04998  0.74410  Biso   1.000  C
  C16      1.0000 0.59700  0.01796  0.73620  Biso   1.000  C
  H4       1.0000 0.14312  0.44450  0.47711  Biso   1.000  H
  C17      1.0000 0.11471  0.62808  0.51879  Biso   1.000  C
  C18      1.0000 0.17548  0.85006  0.48340  Biso   1.000  C
  H5       1.0000 0.26412  0.79219  0.42102  Biso   1.000  H
  C19      1.0000 0.54229  0.46701  0.82481  Biso   1.000  C
  C20      1.0000 0.52820  0.17698  0.85361  Biso   1.000  C
  C21      1.0000 0.36358  0.14604  0.74250  Biso   1.000  C
  H6       1.0000 0.43119  0.98550  0.71091  Biso   1.000  H
  H7       1.0000 0.43031  0.98832  0.77789  Biso   1.000  H
  H8       1.0000 0.64451  0.07443  0.74550  Biso   1.000  H
  H9       1.0000 0.59982  0.99199  0.69562  Biso   1.000  H
  C22      1.0000 0.59950  0.87733  0.77058  Biso   1.000  C
  H10      1.0000 0.08198  0.58438  0.54620  Biso   1.000  H
  C23      1.0000 0.12330  0.78505  0.51689  Biso   1.000  C
  C24      1.0000 0.17679  0.01439  0.49070  Biso   1.000  C
  H11      1.0000 0.54623  0.56653  0.81581  Biso   1.000  H
  C25      1.0000 0.54610  0.42601  0.87688  Biso   1.000  C
  C26      1.0000 0.53340  0.27997  0.89318  Biso   1.000  C
  H12      1.0000 0.52581  0.07800  0.86472  Biso   1.000  H
  H13      1.0000 0.36518  0.20608  0.70791  Biso   1.000  H
  H14      1.0000 0.36571  0.21257  0.77531  Biso   1.000  H
  C27      1.0000 0.28572  0.06404  0.74360  Biso   1.000  C
  H15      1.0000 0.60091  0.89582  0.81180  Biso   1.000  H
  H16      1.0000 0.55522  0.81209  0.76121  Biso   1.000  H
  C28      1.0000 0.67759  0.81999  0.74879  Biso   1.000  C
  C29      1.0000 0.08752  0.89182  0.54911  Biso   1.000  C
  C30      1.0000 0.11952  0.03797  0.53471  Biso   1.000  C
  C31      1.0000 0.14273  0.09098  0.43200  Biso   1.000  C
  C32      1.0000 0.26082  0.07605  0.50709  Biso   1.000  C
  H17      1.0000 0.55761  0.49611  0.90509  Biso   1.000  H
  S3       1.0000 0.54272  0.21668  0.96570  Biso   1.000  S
  H18      1.0000 0.28162  0.01060  0.77920  Biso   1.000  H
  H19      1.0000 0.24221  0.13284  0.74039  Biso   1.000  H
  H20      1.0000 0.28360  0.99600  0.71192  Biso   1.000  H
  H21      1.0000 0.71288  0.80084  0.78080  Biso   1.000  H
  H22      1.0000 0.70139  0.89204  0.72391  Biso   1.000  H
  H23      1.0000 0.66868  0.73010  0.72772  Biso   1.000  H
  C33      1.0000 0.02880  0.88706  0.58978  Biso   1.000  C
  C34      1.0000 0.09271  0.15902  0.56229  Biso   1.000  C
  H24      1.0000 0.09009  0.04911  0.42469  Biso   1.000  H
  H25      1.0000 0.13479  0.19461  0.44041  Biso   1.000  H
  C35      1.0000 0.18462  0.08297  0.38018  Biso   1.000  C
  C36      1.0000 0.28939  0.97003  0.56090  Biso   1.000  C
  H26      1.0000 0.25750  0.17860  0.51908  Biso   1.000  H
  H27      1.0000 0.29737  0.06848  0.47499  Biso   1.000  H
  C37      1.0000 0.45590  0.28884  0.99758  Biso   1.000  C
  H28      1.0000 0.00393  0.79738  0.59722  Biso   1.000  H
  C38      1.0000 0.00327  0.01698  0.62230  Biso   1.000  C
  C39      1.0000 0.03312  0.15102  0.60380  Biso   1.000  C
  H29      1.0000 0.11469  0.25032  0.55329  Biso   1.000  H
  H30      1.0000 0.18971  0.97999  0.36941  Biso   1.000  H
  H31      1.0000 0.23819  0.12094  0.38681  Biso   1.000  H
  C40      1.0000 0.14998  0.16097  0.33339  Biso   1.000  C
  H32      1.0000 0.24788  0.96289  0.58970  Biso   1.000  H
  H33      1.0000 0.30242  0.87159  0.54738  Biso   1.000  H
  C41      1.0000 0.36149  0.04500  0.58450  Biso   1.000  C
  N5       1.0000 0.40358  0.36499  0.96768  Biso   1.000  N
  N6       1.0000 0.45433  0.24794  0.05540  Biso   1.000  N
  H34      1.0000 0.96900  0.01028  0.65351  Biso   1.000  H
  S4       1.0000 0.99660  0.31545  0.62821  Biso   1.000  S
  H35      1.0000 0.17642  0.25389  0.32899  Biso   1.000  H
  H36      1.0000 0.09423  0.17666  0.34061  Biso   1.000  H
  H37      1.0000 0.15580  0.10374  0.29871  Biso   1.000  H
  H38      1.0000 0.36629  0.02488  0.62501  Biso   1.000  H
  H39      1.0000 0.35662  0.15004  0.57872  Biso   1.000  H
  H40      1.0000 0.40820  0.00995  0.56499  Biso   1.000  H
  N7       1.0000 0.34939  0.40621  0.99860  Biso   1.000  N
  N8       1.0000 0.39734  0.30928  0.08281  Biso   1.000  N
  C42      1.0000 0.02100  0.31934  0.70208  Biso   1.000  C
  C43      1.0000 0.34541  0.39204  0.05599  Biso   1.000  C
  N9       1.0000 0.98991  0.43098  0.72962  Biso   1.000  N
  N10      1.0000 0.05861  0.21387  0.72729  Biso   1.000  N
  S5       1.0000 0.27719  0.47804  0.10089  Biso   1.000  S
  N11      1.0000 0.99437  0.41097  0.78249  Biso   1.000  N
  N12      1.0000 0.06397  0.20900  0.78152  Biso   1.000  N
  C44      1.0000 0.21929  0.59520  0.05359  Biso   1.000  C
  C45      1.0000 0.02562  0.31307  0.80961  Biso   1.000  C
  C46      1.0000 0.24380  0.73994  0.05489  Biso   1.000  C
  C47      1.0000 0.16113  0.52402  0.02457  Biso   1.000  C
  S6       1.0000 0.01600  0.32324  0.88039  Biso   1.000  S
  C48      1.0000 0.19743  0.82724  0.02199  Biso   1.000  C
  H41      1.0000 0.28752  0.77358  0.07618  Biso   1.000  H
  C49      1.0000 0.11821  0.62408  0.98618  Biso   1.000  C
  H42      1.0000 0.14981  0.42352  0.02858  Biso   1.000  H
  C50      1.0000 0.05553  0.14799  0.90961  Biso   1.000  C
  C51      1.0000 0.20651  0.00400  0.00688  Biso   1.000  C
  C52      1.0000 0.12881  0.76698  0.98542  Biso   1.000  C
  H43      1.0000 0.08078  0.58351  0.96071  Biso   1.000  H
  C53      1.0000 0.01297  0.02196  0.89289  Biso   1.000  C
  C54      1.0000 0.11901  0.13003  0.94281  Biso   1.000  C
  C55      1.0000 0.13789  0.01698  0.97009  Biso   1.000  C
  C56      1.0000 0.28708  0.00303  0.97609  Biso   1.000  C
  C57      1.0000 0.21963  0.08903  0.06761  Biso   1.000  C
  C58      1.0000 0.09280  0.88306  0.95641  Biso   1.000  C
  C59      1.0000 0.03188  0.88457  0.91692  Biso   1.000  C
  H44      1.0000 0.97200  0.02899  0.86561  Biso   1.000  H
  H45      1.0000 0.15338  0.21030  0.94610  Biso   1.000  H
  C60      1.0000 0.30592  0.92200  0.92769  Biso   1.000  C
  H46      1.0000 0.32643  0.97512  0.00510  Biso   1.000  H
  H47      1.0000 0.29822  0.10515  0.96650  Biso   1.000  H
  H48      1.0000 0.26102  0.04208  0.09079  Biso   1.000  H
  H49      1.0000 0.23280  0.19191  0.06190  Biso   1.000  H
  C61      1.0000 0.13930  0.07096  0.09400  Biso   1.000  C
  H50      1.0000 0.00452  0.79890  0.90661  Biso   1.000  H
  H51      1.0000 0.26173  0.92839  0.90041  Biso   1.000  H
  H52      1.0000 0.31261  0.81977  0.93842  Biso   1.000  H
  C62      1.0000 0.37978  0.97404  0.89901  Biso   1.000  C
  H53      1.0000 0.12504  0.96755  0.09708  Biso   1.000  H
  H54      1.0000 0.09862  0.12192  0.07158  Biso   1.000  H
  C63      1.0000 0.15012  0.14096  0.15338  Biso   1.000  C
  H55      1.0000 0.42571  0.93585  0.91920  Biso   1.000  H
  H56      1.0000 0.38009  0.93985  0.85990  Biso   1.000  H
  H57      1.0000 0.38142  0.08005  0.89952  Biso   1.000  H
  H58      1.0000 0.10551  0.11564  0.17729  Biso   1.000  H
  H59      1.0000 0.15283  0.24665  0.14950  Biso   1.000  H
  H60      1.0000 0.19860  0.10558  0.17091  Biso   1.000  H
  C64      1.0000 0.63852  0.54500  0.41549  Biso   1.000  C
  C65      1.0000 0.71063  0.47003  0.43910  Biso   1.000  C
  H61      1.0000 0.63373  0.52488  0.37499  Biso   1.000  H
  H62      1.0000 0.64340  0.65004  0.42132  Biso   1.000  H
  H63      1.0000 0.59181  0.51006  0.43500  Biso   1.000  H
  C66      1.0000 0.73919  0.57605  0.49290  Biso   1.000  C
  H64      1.0000 0.75208  0.46289  0.41029  Biso   1.000  H
  H65      1.0000 0.69760  0.37159  0.45261  Biso   1.000  H
  C67      1.0000 0.82322  0.51439  0.50929  Biso   1.000  C
  H66      1.0000 0.74251  0.67860  0.48091  Biso   1.000  H
  H67      1.0000 0.70258  0.56848  0.52500  Biso   1.000  H
  C68      1.0000 0.88049  0.53797  0.46528  Biso   1.000  C
  C69      1.0000 0.82448  0.35006  0.51659  Biso   1.000  C
  C70      1.0000 0.85729  0.59098  0.56799  Biso   1.000  C
  C71      1.0000 0.90731  0.65902  0.43770  Biso   1.000  C
  C72      1.0000 0.91250  0.39182  0.45092  Biso   1.000  C
  C73      1.0000 0.87671  0.28505  0.48310  Biso   1.000  C
  C74      1.0000 0.77452  0.25216  0.55490  Biso   1.000  C
  H68      1.0000 0.90993  0.54911  0.57530  Biso   1.000  H
  H69      1.0000 0.86522  0.69461  0.55959  Biso   1.000  H
  C75      1.0000 0.81540  0.58297  0.61981  Biso   1.000  C
  C76      1.0000 0.96689  0.65102  0.39619  Biso   1.000  C
  H70      1.0000 0.88532  0.75032  0.44670  Biso   1.000  H
  C77      1.0000 0.97121  0.38706  0.41021  Biso   1.000  C
  C78      1.0000 0.88530  0.12808  0.48120  Biso   1.000  C
  C79      1.0000 0.78669  0.11510  0.55342  Biso   1.000  C
  H71      1.0000 0.73589  0.29219  0.57901  Biso   1.000  H
  H72      1.0000 0.81031  0.47988  0.63058  Biso   1.000  H
  H73      1.0000 0.76183  0.62094  0.61318  Biso   1.000  H
  C80      1.0000 0.84997  0.66108  0.66660  Biso   1.000  C
  S7       1.0000 0.00341  0.81545  0.37182  Biso   1.000  S
  C81      1.0000 0.99668  0.51698  0.37769  Biso   1.000  C
  H74      1.0000 0.99609  0.29738  0.40282  Biso   1.000  H
  C82      1.0000 0.84601  0.04500  0.51900  Biso   1.000  C
  H75      1.0000 0.91798  0.08438  0.45379  Biso   1.000  H
  S8       1.0000 0.73190  0.99654  0.59912  Biso   1.000  S
  H76      1.0000 0.82360  0.75389  0.67100  Biso   1.000  H
  H77      1.0000 0.90579  0.67676  0.65938  Biso   1.000  H
  H78      1.0000 0.84422  0.60374  0.70132  Biso   1.000  H
  C83      1.0000 0.97902  0.81934  0.29791  Biso   1.000  C
  H79      1.0000 0.03101  0.51028  0.34648  Biso   1.000  H
  H80      1.0000 0.85689  0.94450  0.52289  Biso   1.000  H
  C84      1.0000 0.65748  0.94104  0.55671  Biso   1.000  C
  N13      1.0000 0.94141  0.71398  0.27270  Biso   1.000  N
  N14      1.0000 0.01011  0.93109  0.27042  Biso   1.000  N
  N15      1.0000 0.60551  0.85450  0.58298  Biso   1.000  N
  N16      1.0000 0.65388  0.95002  0.49801  Biso   1.000  N
  N17      1.0000 0.93598  0.70900  0.21851  Biso   1.000  N
  N18      1.0000 0.00558  0.91108  0.21750  Biso   1.000  N
  N19      1.0000 0.54129  0.80431  0.55220  Biso   1.000  N
  N20      1.0000 0.59068  0.90405  0.46950  Biso   1.000  N
  C85      1.0000 0.97439  0.81318  0.19039  Biso   1.000  C
  C86      1.0000 0.53362  0.85093  0.50050  Biso   1.000  C
  S9       1.0000 0.98402  0.82324  0.11960  Biso   1.000  S
  S10      1.0000 0.44918  0.78505  0.46929  Biso   1.000  S
  C87      1.0000 0.94449  0.64799  0.09042  Biso   1.000  C
  C88      1.0000 0.45899  0.81804  0.39910  Biso   1.000  C
  C89      1.0000 0.88100  0.63003  0.05718  Biso   1.000  C
  C90      1.0000 0.98698  0.52207  0.10710  Biso   1.000  C
  C91      1.0000 0.47351  0.71106  0.36202  Biso   1.000  C
  C92      1.0000 0.45568  0.95900  0.37072  Biso   1.000  C
  C93      1.0000 0.86212  0.51698  0.02990  Biso   1.000  C
  H81      1.0000 0.84657  0.71030  0.05389  Biso   1.000  H
  C94      1.0000 0.96808  0.38447  0.08311  Biso   1.000  C
  H82      1.0000 0.02801  0.52899  0.13439  Biso   1.000  H
  C95      1.0000 0.47628  0.73615  0.30180  Biso   1.000  C
  H83      1.0000 0.48228  0.61608  0.37592  Biso   1.000  H
  C96      1.0000 0.45373  0.98702  0.31801  Biso   1.000  C
  H84      1.0000 0.45507  0.04100  0.39492  Biso   1.000  H
  C97      1.0000 0.79350  0.50400  0.99312  Biso   1.000  C
  C98      1.0000 0.90722  0.38306  0.04358  Biso   1.000  C
  H85      1.0000 0.99550  0.29890  0.09342  Biso   1.000  H
  C99      1.0000 0.47557  0.61608  0.25521  Biso   1.000  C
  C100     1.0000 0.46818  0.85504  0.27979  Biso   1.000  C
  H86      1.0000 0.44413  0.08081  0.30349  Biso   1.000  H
  C101     1.0000 0.71288  0.50303  0.02390  Biso   1.000  C
  C102     1.0000 0.80259  0.32724  0.97800  Biso   1.000  C
  C103     1.0000 0.78039  0.58903  0.93243  Biso   1.000  C
  C104     1.0000 0.87120  0.26698  0.01461  Biso   1.000  C
  C105     1.0000 0.47380  0.71149  0.20259  Biso   1.000  C
  C106     1.0000 0.56487  0.54998  0.25589  Biso   1.000  C
  C107     1.0000 0.40301  0.51807  0.26379  Biso   1.000  C
  C108     1.0000 0.46791  0.86175  0.22029  Biso   1.000  C
  C109     1.0000 0.69409  0.42200  0.07230  Biso   1.000  C
  H87      1.0000 0.70179  0.60515  0.03349  Biso   1.000  H
  H88      1.0000 0.67358  0.47512  0.99489  Biso   1.000  H
  C110     1.0000 0.75616  0.23994  0.94510  Biso   1.000  C
  H89      1.0000 0.73899  0.54208  0.90920  Biso   1.000  H
  H90      1.0000 0.76721  0.69191  0.93813  Biso   1.000  H
  C111     1.0000 0.86071  0.57107  0.90599  Biso   1.000  C
  C112     1.0000 0.88180  0.12397  0.01381  Biso   1.000  C
  C113     1.0000 0.47181  0.67698  0.14638  Biso   1.000  C
  H91      1.0000 0.56883  0.48550  0.28908  Biso   1.000  H
  H92      1.0000 0.56970  0.48832  0.22210  Biso   1.000  H
  C114     1.0000 0.63638  0.64604  0.25749  Biso   1.000  C
  H93      1.0000 0.40020  0.49189  0.30441  Biso   1.000  H
  H94      1.0000 0.35551  0.57443  0.25450  Biso   1.000  H
  C115     1.0000 0.40051  0.37733  0.22941  Biso   1.000  C
  C116     1.0000 0.45773  0.96701  0.17518  Biso   1.000  C
  C117     1.0000 0.62018  0.47404  0.10098  Biso   1.000  C
  H95      1.0000 0.73829  0.42828  0.09959  Biso   1.000  H
  H96      1.0000 0.68741  0.31967  0.06162  Biso   1.000  H
  C118     1.0000 0.78066  0.09520  0.94641  Biso   1.000  C
  H97      1.0000 0.71250  0.27358  0.92381  Biso   1.000  H
  H98      1.0000 0.87497  0.46755  0.90291  Biso   1.000  H
  H99      1.0000 0.90139  0.62192  0.92842  Biso   1.000  H
  C119     1.0000 0.84990  0.64106  0.84661  Biso   1.000  C
  H100     1.0000 0.91918  0.08351  0.03932  Biso   1.000  H
  C120     1.0000 0.83888  0.02402  0.97542  Biso   1.000  C
  C121     1.0000 0.46662  0.78007  0.10681  Biso   1.000  C
  H101     1.0000 0.47421  0.57800  0.13531  Biso   1.000  H
  H102     1.0000 0.63478  0.70608  0.29208  Biso   1.000  H
  H103     1.0000 0.63430  0.71268  0.22468  Biso   1.000  H
  C122     1.0000 0.71429  0.56404  0.25640  Biso   1.000  C
  H104     1.0000 0.39911  0.39582  0.18819  Biso   1.000  H
  H105     1.0000 0.44480  0.31209  0.23879  Biso   1.000  H
  C123     1.0000 0.32242  0.31999  0.25120  Biso   1.000  C
  C124     1.0000 0.45391  0.92601  0.12311  Biso   1.000  C
  H106     1.0000 0.45379  0.06653  0.18422  Biso   1.000  H
  H107     1.0000 0.57431  0.43585  0.08079  Biso   1.000  H
  H108     1.0000 0.61859  0.58005  0.10051  Biso   1.000  H
  H109     1.0000 0.61992  0.43985  0.14009  Biso   1.000  H
  S11      1.0000 0.72276  0.97804  0.89911  Biso   1.000  S
  H110     1.0000 0.89451  0.61564  0.82271  Biso   1.000  H
  H111     1.0000 0.84719  0.74665  0.85050  Biso   1.000  H
  H112     1.0000 0.80136  0.60558  0.82913  Biso   1.000  H
  H113     1.0000 0.85020  0.92352  0.97141  Biso   1.000  H
  S12      1.0000 0.45730  0.71668  0.03429  Biso   1.000  S
  H114     1.0000 0.71840  0.51060  0.22079  Biso   1.000  H
  H115     1.0000 0.71641  0.49600  0.28811  Biso   1.000  H
  H116     1.0000 0.75780  0.63284  0.25961  Biso   1.000  H
  H117     1.0000 0.28708  0.30084  0.21919  Biso   1.000  H
  H118     1.0000 0.29862  0.39204  0.27612  Biso   1.000  H
  H119     1.0000 0.33128  0.23010  0.27232  Biso   1.000  H
  H120     1.0000 0.44240  0.99611  0.09490  Biso   1.000  H
  C125     1.0000 0.65460  0.89204  0.94400  Biso   1.000  C
  C126     1.0000 0.54412  0.78884  0.00241  Biso   1.000  C
  N21      1.0000 0.60268  0.80928  0.91722  Biso   1.000  N
  N22      1.0000 0.65063  0.90621  0.00139  Biso   1.000  N
  N23      1.0000 0.54569  0.74794  0.94459  Biso   1.000  N
  N24      1.0000 0.59637  0.86499  0.03231  Biso   1.000  N
  Ne1      1.0000 0.28064  0.68575  0.74992  Biso   1.000  Ne
  He1      1.0000 0.25391  0.98770  0.74569  Biso   1.000  He
  He2      1.0000 0.24822  0.65616  0.73733  Biso   1.000  He
  Ar1      1.0000 0.22840  0.55585  0.69262  Biso   1.000  Ar
  Ne2      1.0000 0.71936  0.18576  0.25008  Biso   1.000  Ne
  He3      1.0000 0.73627  0.53218  0.25209  Biso   1.000  He
  He4      1.0000 0.85837  0.08443  0.24692  Biso   1.000  He
  Ar2      1.0000 0.81851  0.15669  0.24686  Biso   1.000  Ar
