data_image0
_cell_length_a       23.37
_cell_length_b       23.37
_cell_length_c       89.848
_cell_angle_alpha    90
_cell_angle_beta     90
_cell_angle_gamma    120

_symmetry_space_group_name_H-M    "P 1"
_symmetry_int_tables_number       1

loop_
  _symmetry_equiv_pos_as_xyz
  'x, y, z'

loop_
  _atom_site_label
  _atom_site_occupancy
  _atom_site_fract_x
  _atom_site_fract_y
  _atom_site_fract_z
  _atom_site_thermal_displace_type
  _atom_site_B_iso_or_equiv
  _atom_site_type_symbol
  C1       1.0000 0.45429  0.45561  0.51275  Biso   1.000  C
  N1       1.0000 0.41349  0.42878  0.50213  Biso   1.000  N
  C2       1.0000 0.43638  0.45778  0.52803  Biso   1.000  C
  H1       1.0000 0.49911  0.47532  0.51050  Biso   1.000  H
  C3       1.0000 0.43941  0.41909  0.48758  Biso   1.000  C
  C4       1.0000 0.47979  0.47759  0.53912  Biso   1.000  C
  C5       1.0000 0.36780  0.43248  0.53103  Biso   1.000  C
  C6       1.0000 0.43059  0.34908  0.48770  Biso   1.000  C
  C7       1.0000 0.40050  0.42650  0.47519  Biso   1.000  C
  H2       1.0000 0.48639  0.45220  0.48650  Biso   1.000  H
  C8       1.0000 0.46199  0.47641  0.55380  Biso   1.000  C
  H3       1.0000 0.52390  0.49281  0.53690  Biso   1.000  H
  C9       1.0000 0.34730  0.42922  0.54586  Biso   1.000  C
  H4       1.0000 0.33741  0.41860  0.52329  Biso   1.000  H
  C10      1.0000 0.45251  0.33668  0.47254  Biso   1.000  C
  N2       1.0000 0.47699  0.35081  0.49886  Biso   1.000  N
  H5       1.0000 0.38499  0.31538  0.49001  Biso   1.000  H
  C11      1.0000 0.41949  0.40911  0.45973  Biso   1.000  C
  H6       1.0000 0.40889  0.47152  0.47500  Biso   1.000  H
  H7       1.0000 0.35360  0.39740  0.47699  Biso   1.000  H
  C12      1.0000 0.39470  0.44879  0.55678  Biso   1.000  C
  C13      1.0000 0.49631  0.49770  0.56801  Biso   1.000  C
  H8       1.0000 0.30321  0.41420  0.54820  Biso   1.000  H
  C14      1.0000 0.41030  0.34058  0.46028  Biso   1.000  C
  H9       1.0000 0.49847  0.36939  0.47080  Biso   1.000  H
  H10      1.0000 0.44849  0.29339  0.47250  Biso   1.000  H
  C15      1.0000 0.45319  0.33060  0.51191  Biso   1.000  C
  H11      1.0000 0.39187  0.41138  0.45200  Biso   1.000  H
  H12      1.0000 0.46511  0.44078  0.45739  Biso   1.000  H
  N3       1.0000 0.38627  0.44889  0.57211  Biso   1.000  N
  C16      1.0000 0.44729  0.47601  0.57927  Biso   1.000  C
  C17      1.0000 0.56231  0.53130  0.57316  Biso   1.000  C
  H13      1.0000 0.42291  0.33020  0.45079  Biso   1.000  H
  H14      1.0000 0.36419  0.30861  0.46210  Biso   1.000  H
  H15      1.0000 0.40781  0.31079  0.51330  Biso   1.000  H
  C18      1.0000 0.49522  0.33781  0.52459  Biso   1.000  C
  C19      1.0000 0.32169  0.43629  0.57778  Biso   1.000  C
  C20      1.0000 0.46046  0.48327  0.59437  Biso   1.000  C
  C21      1.0000 0.57937  0.54128  0.58846  Biso   1.000  C
  N4       1.0000 0.62072  0.56322  0.56453  Biso   1.000  N
  C22      1.0000 0.46581  0.32289  0.53882  Biso   1.000  C
  C23      1.0000 0.56269  0.36099  0.52296  Biso   1.000  C
  H16      1.0000 0.30507  0.45738  0.57120  Biso   1.000  H
  H17      1.0000 0.32851  0.45719  0.58740  Biso   1.000  H
  C24      1.0000 0.26862  0.36351  0.57936  Biso   1.000  C
  C25      1.0000 0.52699  0.51850  0.59876  Biso   1.000  C
  C26      1.0000 0.42152  0.46341  0.60810  Biso   1.000  C
  C27      1.0000 0.65502  0.57612  0.58942  Biso   1.000  C
  C28      1.0000 0.63159  0.58951  0.54939  Biso   1.000  C
  C29      1.0000 0.67410  0.58679  0.57433  Biso   1.000  C
  H18      1.0000 0.42038  0.30589  0.53980  Biso   1.000  H
  C30      1.0000 0.50419  0.33332  0.55149  Biso   1.000  C
  C31      1.0000 0.60140  0.37388  0.53559  Biso   1.000  C
  H19      1.0000 0.58159  0.36780  0.51350  Biso   1.000  H
  C32      1.0000 0.20421  0.35511  0.58446  Biso   1.000  C
  H20      1.0000 0.26242  0.34162  0.56980  Biso   1.000  H
  H21      1.0000 0.28361  0.34241  0.58640  Biso   1.000  H
  N5       1.0000 0.53019  0.52611  0.61406  Biso   1.000  N
  C33      1.0000 0.35558  0.42191  0.61207  Biso   1.000  C
  C34      1.0000 0.46640  0.49232  0.62001  Biso   1.000  C
  C35      1.0000 0.69999  0.59262  0.60012  Biso   1.000  C
  C36      1.0000 0.65249  0.55848  0.53831  Biso   1.000  C
  H22      1.0000 0.59089  0.58649  0.54590  Biso   1.000  H
  H23      1.0000 0.66460  0.63600  0.54980  Biso   1.000  H
  C37      1.0000 0.74260  0.62221  0.57108  Biso   1.000  C
  C38      1.0000 0.49390  0.32670  0.56775  Biso   1.000  C
  C39      1.0000 0.57272  0.36222  0.54945  Biso   1.000  C
  H24      1.0000 0.64668  0.39048  0.53470  Biso   1.000  H
  H25      1.0000 0.17971  0.31261  0.58940  Biso   1.000  H
  H26      1.0000 0.21290  0.38900  0.59180  Biso   1.000  H
  C40      1.0000 0.16282  0.35842  0.57280  Biso   1.000  C
  H27      1.0000 0.19141  0.37581  0.57680  Biso   1.000  H
  H28      1.0000 0.21468  0.38297  0.59320  Biso   1.000  H
  C41      1.0000 0.13898  0.28969  0.58861  Biso   1.000  C
  C42      1.0000 0.58530  0.57068  0.62333  Biso   1.000  C
  C43      1.0000 0.33671  0.41479  0.62699  Biso   1.000  C
  H29      1.0000 0.32417  0.39888  0.60480  Biso   1.000  H
  C44      1.0000 0.44829  0.48708  0.63485  Biso   1.000  C
  H30      1.0000 0.68621  0.58328  0.61000  Biso   1.000  H
  C45      1.0000 0.76940  0.62429  0.59679  Biso   1.000  C
  H31      1.0000 0.62230  0.51109  0.53860  Biso   1.000  H
  H32      1.0000 0.69588  0.56608  0.54100  Biso   1.000  H
  C46      1.0000 0.65538  0.58170  0.52302  Biso   1.000  C
  C47      1.0000 0.78742  0.63971  0.58187  Biso   1.000  C
  H33      1.0000 0.75639  0.63328  0.56130  Biso   1.000  H
  C48      1.0000 0.43670  0.29710  0.57700  Biso   1.000  C
  C49      1.0000 0.55651  0.35590  0.57450  Biso   1.000  C
  N6       1.0000 0.60480  0.37759  0.56310  Biso   1.000  N
  H34      1.0000 0.15079  0.32289  0.56590  Biso   1.000  H
  H35      1.0000 0.18670  0.39992  0.56770  Biso   1.000  H
  H36      1.0000 0.12370  0.35481  0.57720  Biso   1.000  H
  H37      1.0000 0.14629  0.25278  0.58780  Biso   1.000  H
  H38      1.0000 0.10431  0.28351  0.58190  Biso   1.000  H
  H39      1.0000 0.12649  0.29260  0.59860  Biso   1.000  H
  H40      1.0000 0.57068  0.59390  0.62990  Biso   1.000  H
  H41      1.0000 0.61970  0.60329  0.61700  Biso   1.000  H
  C50      1.0000 0.61467  0.53718  0.63285  Biso   1.000  C
  C51      1.0000 0.26699  0.36899  0.63021  Biso   1.000  C
  C52      1.0000 0.38368  0.44790  0.63806  Biso   1.000  C
  H42      1.0000 0.47929  0.50971  0.64230  Biso   1.000  H
  C53      1.0000 0.81520  0.63570  0.60848  Biso   1.000  C
  H43      1.0000 0.61270  0.57740  0.52090  Biso   1.000  H
  H44      1.0000 0.68738  0.62859  0.52291  Biso   1.000  H
  C54      1.0000 0.67088  0.55289  0.51099  Biso   1.000  C
  H45      1.0000 0.61051  0.54820  0.52060  Biso   1.000  H
  H46      1.0000 0.68149  0.56297  0.51930  Biso   1.000  H
  C55      1.0000 0.66402  0.62202  0.50940  Biso   1.000  C
  H47      1.0000 0.83200  0.66288  0.57940  Biso   1.000  H
  N7       1.0000 0.37099  0.25999  0.57337  Biso   1.000  N
  C56      1.0000 0.44318  0.30288  0.59280  Biso   1.000  C
  C57      1.0000 0.56469  0.36360  0.58978  Biso   1.000  C
  C58      1.0000 0.67509  0.39399  0.56453  Biso   1.000  C
  C59      1.0000 0.66961  0.58269  0.64266  Biso   1.000  C
  H48      1.0000 0.57999  0.50358  0.63890  Biso   1.000  H
  H49      1.0000 0.63069  0.51529  0.62630  Biso   1.000  H
  H50      1.0000 0.23699  0.35451  0.62240  Biso   1.000  H
  N8       1.0000 0.24581  0.34819  0.64324  Biso   1.000  N
  H51      1.0000 0.37010  0.44281  0.64791  Biso   1.000  H
  N9       1.0000 0.87470  0.64791  0.60623  Biso   1.000  N
  H52      1.0000 0.80138  0.63417  0.61820  Biso   1.000  H
  H53      1.0000 0.71318  0.55670  0.51270  Biso   1.000  H
  H54      1.0000 0.67228  0.57537  0.50190  Biso   1.000  H
  H55      1.0000 0.63780  0.50709  0.51019  Biso   1.000  H
  H56      1.0000 0.66779  0.66327  0.51220  Biso   1.000  H
  H57      1.0000 0.62701  0.59840  0.50290  Biso   1.000  H
  H58      1.0000 0.70381  0.63022  0.50430  Biso   1.000  H
  C60      1.0000 0.33267  0.24438  0.58618  Biso   1.000  C
  C61      1.0000 0.33990  0.22649  0.55949  Biso   1.000  C
  C62      1.0000 0.37540  0.27180  0.59849  Biso   1.000  C
  C63      1.0000 0.50767  0.33267  0.59866  Biso   1.000  C
  C64      1.0000 0.62208  0.39350  0.60016  Biso   1.000  C
  C65      1.0000 0.72408  0.46519  0.56176  Biso   1.000  C
  H59      1.0000 0.68322  0.36721  0.55750  Biso   1.000  H
  H60      1.0000 0.68190  0.38238  0.57450  Biso   1.000  H
  H61      1.0000 0.69611  0.62389  0.63740  Biso   1.000  H
  H62      1.0000 0.65090  0.59217  0.65130  Biso   1.000  H
  C66      1.0000 0.71239  0.55828  0.64769  Biso   1.000  C
  H63      1.0000 0.69948  0.62300  0.63740  Biso   1.000  H
  H64      1.0000 0.69417  0.56198  0.64610  Biso   1.000  H
  C67      1.0000 0.63589  0.59800  0.65610  Biso   1.000  C
  C68      1.0000 0.17688  0.29848  0.64484  Biso   1.000  C
  C69      1.0000 0.91120  0.64781  0.61917  Biso   1.000  C
  C70      1.0000 0.26541  0.20732  0.58774  Biso   1.000  C
  C71      1.0000 0.30320  0.25510  0.55149  Biso   1.000  C
  H65      1.0000 0.30927  0.18030  0.56160  Biso   1.000  H
  H66      1.0000 0.37369  0.22842  0.55290  Biso   1.000  H
  C72      1.0000 0.34571  0.26592  0.61240  Biso   1.000  C
  N10      1.0000 0.52671  0.33900  0.61385  Biso   1.000  N
  C73      1.0000 0.59641  0.37571  0.61467  Biso   1.000  C
  C74      1.0000 0.68981  0.43559  0.59935  Biso   1.000  C
  H67      1.0000 0.71768  0.47730  0.55180  Biso   1.000  H
  H68      1.0000 0.71702  0.49242  0.56881  Biso   1.000  H
  C75      1.0000 0.79260  0.47779  0.56323  Biso   1.000  C
  H69      1.0000 0.73291  0.55072  0.63920  Biso   1.000  H
  H70      1.0000 0.68688  0.51771  0.65300  Biso   1.000  H
  H71      1.0000 0.74590  0.59039  0.65410  Biso   1.000  H
  H72      1.0000 0.66939  0.63061  0.66250  Biso   1.000  H
  H73      1.0000 0.60938  0.55818  0.66170  Biso   1.000  H
  H74      1.0000 0.60832  0.61441  0.65240  Biso   1.000  H
  C76      1.0000 0.17169  0.23178  0.64509  Biso   1.000  C
  C77      1.0000 0.15077  0.31138  0.65942  Biso   1.000  C
  H75      1.0000 0.15171  0.30110  0.63640  Biso   1.000  H
  C78      1.0000 0.90798  0.58387  0.61928  Biso   1.000  C
  H76      1.0000 0.89227  0.65438  0.62829  Biso   1.000  H
  C79      1.0000 0.98360  0.70438  0.61693  Biso   1.000  C
  H77      1.0000 0.23887  0.18548  0.57960  Biso   1.000  H
  C80      1.0000 0.23749  0.20258  0.60157  Biso   1.000  C
  H78      1.0000 0.27102  0.25560  0.55820  Biso   1.000  H
  H79      1.0000 0.33420  0.30041  0.54880  Biso   1.000  H
  C81      1.0000 0.26819  0.21760  0.53777  Biso   1.000  C
  C82      1.0000 0.27782  0.23292  0.61388  Biso   1.000  C
  H80      1.0000 0.37221  0.28460  0.62080  Biso   1.000  H
  C83      1.0000 0.48660  0.30337  0.62655  Biso   1.000  C
  C84      1.0000 0.63377  0.39009  0.62721  Biso   1.000  C
  C85      1.0000 0.72757  0.45378  0.61203  Biso   1.000  C
  H81      1.0000 0.70980  0.45170  0.59010  Biso   1.000  H
  H82      1.0000 0.82077  0.52379  0.56600  Biso   1.000  H
  H83      1.0000 0.79360  0.45121  0.57140  Biso   1.000  H
  C86      1.0000 0.82128  0.46420  0.54997  Biso   1.000  C
  H84      1.0000 0.79488  0.44128  0.55870  Biso   1.000  H
  H85      1.0000 0.80270  0.47858  0.57370  Biso   1.000  H
  C87      1.0000 0.84428  0.54128  0.55619  Biso   1.000  C
  N11      1.0000 0.18939  0.21780  0.63042  Biso   1.000  N
  H86      1.0000 0.20188  0.23148  0.65260  Biso   1.000  H
  C88      1.0000 0.10119  0.17550  0.64828  Biso   1.000  C
  C89      1.0000 0.07960  0.25881  0.66161  Biso   1.000  C
  H87      1.0000 0.17710  0.31098  0.66771  Biso   1.000  H
  H88      1.0000 0.15432  0.35451  0.65900  Biso   1.000  H
  N12      1.0000 0.83778  0.52829  0.62220  Biso   1.000  N
  H89      1.0000 0.92361  0.57671  0.60970  Biso   1.000  H
  C90      1.0000 0.94678  0.57537  0.63205  Biso   1.000  C
  H90      1.0000 0.98590  0.74697  0.61700  Biso   1.000  H
  H91      1.0000 0.00099  0.69919  0.60750  Biso   1.000  H
  C91      1.0000 0.02411  0.69880  0.63044  Biso   1.000  C
  H92      1.0000 0.19170  0.17921  0.60270  Biso   1.000  H
  C92      1.0000 0.23471  0.25110  0.53021  Biso   1.000  C
  H93      1.0000 0.23559  0.17269  0.54040  Biso   1.000  H
  H94      1.0000 0.29971  0.21602  0.53100  Biso   1.000  H
  H95      1.0000 0.29940  0.21078  0.53200  Biso   1.000  H
  H96      1.0000 0.25721  0.24561  0.53190  Biso   1.000  H
  C93      1.0000 0.20287  0.14798  0.53970  Biso   1.000  C
  C94      1.0000 0.24869  0.23302  0.62855  Biso   1.000  C
  H97      1.0000 0.50831  0.28371  0.63200  Biso   1.000  H
  H98      1.0000 0.44418  0.26790  0.62310  Biso   1.000  H
  C95      1.0000 0.47552  0.34769  0.63680  Biso   1.000  C
  C96      1.0000 0.70071  0.42991  0.62600  Biso   1.000  C
  H99      1.0000 0.61419  0.37319  0.63640  Biso   1.000  H
  C97      1.0000 0.80059  0.50131  0.61093  Biso   1.000  C
  H100     1.0000 0.79458  0.41860  0.54720  Biso   1.000  H
  H101     1.0000 0.86520  0.47349  0.55220  Biso   1.000  H
  H102     1.0000 0.82247  0.49158  0.54190  Biso   1.000  H
  H103     1.0000 0.83440  0.54138  0.54580  Biso   1.000  H
  H104     1.0000 0.88687  0.54499  0.55720  Biso   1.000  H
  H105     1.0000 0.84467  0.57809  0.56110  Biso   1.000  H
  H106     1.0000 0.10170  0.13459  0.64970  Biso   1.000  H
  H107     1.0000 0.07323  0.16982  0.63980  Biso   1.000  H
  C98      1.0000 0.07207  0.19028  0.66246  Biso   1.000  C
  H108     1.0000 0.05342  0.26019  0.65340  Biso   1.000  H
  H109     1.0000 0.06302  0.26750  0.67070  Biso   1.000  H
  H110     1.0000 0.94467  0.53298  0.63130  Biso   1.000  H
  H111     1.0000 0.92851  0.57760  0.64159  Biso   1.000  H
  C99      1.0000 0.01987  0.63289  0.63060  Biso   1.000  C
  H112     1.0000 0.06998  0.73329  0.62960  Biso   1.000  H
  H113     1.0000 0.00680  0.70517  0.63970  Biso   1.000  H
  H114     1.0000 0.20231  0.25100  0.53680  Biso   1.000  H
  H115     1.0000 0.21341  0.22758  0.52130  Biso   1.000  H
  H116     1.0000 0.26699  0.29581  0.52780  Biso   1.000  H
  H117     1.0000 0.21280  0.11888  0.54520  Biso   1.000  H
  H118     1.0000 0.18630  0.12930  0.53000  Biso   1.000  H
  H119     1.0000 0.17031  0.15371  0.54490  Biso   1.000  H
  H120     1.0000 0.27600  0.24512  0.63690  Biso   1.000  H
  C100     1.0000 0.43519  0.31069  0.65073  Biso   1.000  C
  H121     1.0000 0.45209  0.36588  0.63150  Biso   1.000  H
  H122     1.0000 0.51791  0.38421  0.63990  Biso   1.000  H
  H123     1.0000 0.72779  0.44078  0.63430  Biso   1.000  H
  H124     1.0000 0.81981  0.51159  0.60150  Biso   1.000  H
  H125     1.0000 0.02569  0.15742  0.66340  Biso   1.000  H
  H126     1.0000 0.09482  0.18751  0.67120  Biso   1.000  H
  H127     1.0000 0.04550  0.63101  0.63890  Biso   1.000  H
  H128     1.0000 0.03890  0.62740  0.62151  Biso   1.000  H
  H129     1.0000 0.41687  0.33559  0.65530  Biso   1.000  H
  H130     1.0000 0.39898  0.26780  0.64791  Biso   1.000  H
  C101     1.0000 0.47939  0.30239  0.66166  Biso   1.000  C
  H131     1.0000 0.49789  0.27827  0.65700  Biso   1.000  H
  H132     1.0000 0.45399  0.27837  0.67020  Biso   1.000  H
  H133     1.0000 0.51429  0.34498  0.66470  Biso   1.000  H
  Ne1      1.0000 0.50624  0.42084  0.58264  Biso   1.000  Ne
  He1      1.0000 0.54455  0.43602  0.62123  Biso   1.000  He
  He2      1.0000 0.34983  0.34152  0.56947  Biso   1.000  He
  Ar1      1.0000 0.50714  0.41949  0.58289  Biso   1.000  Ar
