data_image0
_cell_length_a       14.347
_cell_length_b       21.895
_cell_length_c       27.873
_cell_angle_alpha    90
_cell_angle_beta     104.45
_cell_angle_gamma    90

_symmetry_space_group_name_H-M    "P 1"
_symmetry_int_tables_number       1

loop_
  _symmetry_equiv_pos_as_xyz
  'x, y, z'

loop_
  _atom_site_label
  _atom_site_occupancy
  _atom_site_fract_x
  _atom_site_fract_y
  _atom_site_fract_z
  _atom_site_thermal_displace_type
  _atom_site_B_iso_or_equiv
  _atom_site_type_symbol
  C1       1.0000 0.53636  0.41973  0.43725  Biso   1.000  C
  N1       1.0000 0.44466  0.39050  0.41488  Biso   1.000  N
  N2       1.0000 0.61865  0.38196  0.43848  Biso   1.000  N
  H1       1.0000 0.53753  0.43640  0.47000  Biso   1.000  H
  C2       1.0000 0.54278  0.47038  0.40017  Biso   1.000  C
  C3       1.0000 0.40073  0.34528  0.44014  Biso   1.000  C
  C4       1.0000 0.39443  0.42160  0.37453  Biso   1.000  C
  C5       1.0000 0.65173  0.33419  0.47438  Biso   1.000  C
  C6       1.0000 0.67097  0.40311  0.40709  Biso   1.000  C
  N3       1.0000 0.45136  0.46641  0.36341  Biso   1.000  N
  N4       1.0000 0.62476  0.45188  0.38179  Biso   1.000  N
  H2       1.0000 0.55249  0.51071  0.41602  Biso   1.000  H
  N5       1.0000 0.43317  0.28372  0.43488  Biso   1.000  N
  H3       1.0000 0.33146  0.34697  0.42721  Biso   1.000  H
  H4       1.0000 0.41504  0.35538  0.47512  Biso   1.000  H
  O1       1.0000 0.31093  0.41146  0.35152  Biso   1.000  O
  N6       1.0000 0.60796  0.27595  0.45956  Biso   1.000  N
  H5       1.0000 0.63845  0.34588  0.50550  Biso   1.000  H
  H6       1.0000 0.72097  0.33008  0.47990  Biso   1.000  H
  O2       1.0000 0.74718  0.38127  0.40254  Biso   1.000  O
  C7       1.0000 0.41627  0.51478  0.32855  Biso   1.000  C
  C8       1.0000 0.66937  0.49121  0.35260  Biso   1.000  C
  C9       1.0000 0.38236  0.24280  0.40254  Biso   1.000  C
  C10      1.0000 0.51647  0.25659  0.46782  Biso   1.000  C
  C11      1.0000 0.65762  0.22859  0.44555  Biso   1.000  C
  H7       1.0000 0.43634  0.55360  0.34452  Biso   1.000  H
  H8       1.0000 0.34642  0.51391  0.31992  Biso   1.000  H
  N7       1.0000 0.44855  0.51130  0.28387  Biso   1.000  N
  H9       1.0000 0.67046  0.53259  0.36519  Biso   1.000  H
  H10      1.0000 0.73548  0.47828  0.35641  Biso   1.000  H
  N8       1.0000 0.62011  0.49125  0.29987  Biso   1.000  N
  N9       1.0000 0.42696  0.18739  0.40984  Biso   1.000  N
  O3       1.0000 0.30628  0.25339  0.37182  Biso   1.000  O
  C12      1.0000 0.51004  0.18858  0.45211  Biso   1.000  C
  H11      1.0000 0.51514  0.26138  0.50261  Biso   1.000  H
  N10      1.0000 0.60168  0.17789  0.44014  Biso   1.000  N
  O4       1.0000 0.73908  0.23115  0.44033  Biso   1.000  O
  C13      1.0000 0.54081  0.53190  0.27965  Biso   1.000  C
  C14      1.0000 0.38896  0.49340  0.23945  Biso   1.000  C
  C15      1.0000 0.66551  0.47171  0.26457  Biso   1.000  C
  C16      1.0000 0.37985  0.13131  0.38916  Biso   1.000  C
  H12      1.0000 0.50138  0.16182  0.47882  Biso   1.000  H
  C17      1.0000 0.63435  0.11852  0.42788  Biso   1.000  C
  H13      1.0000 0.55436  0.57351  0.29250  Biso   1.000  H
  C18      1.0000 0.53285  0.52916  0.22311  Biso   1.000  C
  N11      1.0000 0.43894  0.50126  0.20351  Biso   1.000  N
  O5       1.0000 0.30756  0.47422  0.23300  Biso   1.000  O
  N12      1.0000 0.61341  0.49194  0.21948  Biso   1.000  N
  O6       1.0000 0.73981  0.44252  0.27246  Biso   1.000  O
  N13      1.0000 0.41813  0.10514  0.35137  Biso   1.000  N
  H14      1.0000 0.31194  0.13948  0.37560  Biso   1.000  H
  H15      1.0000 0.38536  0.10171  0.41562  Biso   1.000  H
  N14      1.0000 0.59263  0.09989  0.37720  Biso   1.000  N
  H16      1.0000 0.61873  0.08819  0.45000  Biso   1.000  H
  H17      1.0000 0.70385  0.11948  0.43351  Biso   1.000  H
  H18      1.0000 0.53622  0.56999  0.20922  Biso   1.000  H
  C19      1.0000 0.39041  0.50285  0.15142  Biso   1.000  C
  C20      1.0000 0.64780  0.48760  0.17554  Biso   1.000  C
  C21      1.0000 0.36367  0.09637  0.30388  Biso   1.000  C
  C22      1.0000 0.50314  0.06682  0.36267  Biso   1.000  C
  C23      1.0000 0.64335  0.09934  0.34148  Biso   1.000  C
  N15      1.0000 0.42099  0.45577  0.12263  Biso   1.000  N
  H19      1.0000 0.40173  0.54241  0.13812  Biso   1.000  H
  H20      1.0000 0.32172  0.49888  0.14790  Biso   1.000  H
  N16      1.0000 0.59452  0.44531  0.13867  Biso   1.000  N
  H21      1.0000 0.64521  0.52779  0.16072  Biso   1.000  H
  H22      1.0000 0.71474  0.47499  0.18480  Biso   1.000  H
  O7       1.0000 0.28451  0.11747  0.28639  Biso   1.000  O
  N17      1.0000 0.41464  0.05933  0.27976  Biso   1.000  N
  C24      1.0000 0.50474  0.04001  0.31121  Biso   1.000  C
  H23      1.0000 0.49886  0.03471  0.38650  Biso   1.000  H
  N18      1.0000 0.58804  0.06929  0.30043  Biso   1.000  N
  O8       1.0000 0.72263  0.12080  0.34500  Biso   1.000  O
  C25      1.0000 0.36218  0.40950  0.09996  Biso   1.000  C
  C26      1.0000 0.50520  0.46211  0.10396  Biso   1.000  C
  C27      1.0000 0.63883  0.39790  0.12197  Biso   1.000  C
  C28      1.0000 0.37113  0.03179  0.23200  Biso   1.000  C
  H24      1.0000 0.51094  0.99539  0.31221  Biso   1.000  H
  C29      1.0000 0.63147  0.04617  0.26234  Biso   1.000  C
  N19      1.0000 0.40573  0.38137  0.06758  Biso   1.000  N
  O9       1.0000 0.28399  0.39543  0.10703  Biso   1.000  O
  C30      1.0000 0.49300  0.41178  0.06398  Biso   1.000  C
  H25      1.0000 0.50898  0.50281  0.08992  Biso   1.000  H
  N20      1.0000 0.57941  0.37534  0.07991  Biso   1.000  N
  O10      1.0000 0.72051  0.37876  0.14149  Biso   1.000  O
  N21      1.0000 0.40921  0.05641  0.19265  Biso   1.000  N
  N22      1.0000 0.58376  0.06709  0.21281  Biso   1.000  N
  C31      1.0000 0.36021  0.33441  0.03320  Biso   1.000  C
  H26      1.0000 0.48699  0.42909  0.03090  Biso   1.000  H
  C32      1.0000 0.61069  0.33213  0.04839  Biso   1.000  C
  C33      1.0000 0.49840  0.03672  0.18354  Biso   1.000  C
  C34      1.0000 0.35399  0.08879  0.15379  Biso   1.000  C
  C35      1.0000 0.63651  0.09299  0.18347  Biso   1.000  C
  N23      1.0000 0.40271  0.27445  0.04553  Biso   1.000  N
  H27      1.0000 0.29243  0.33250  0.03271  Biso   1.000  H
  H28      1.0000 0.36511  0.34538  0.00019  Biso   1.000  H
  N24      1.0000 0.57513  0.27070  0.05109  Biso   1.000  N
  H29      1.0000 0.58983  0.34629  0.01441  Biso   1.000  H
  H30      1.0000 0.68048  0.33108  0.05720  Biso   1.000  H
  C36      1.0000 0.49184  0.05956  0.13004  Biso   1.000  C
  H31      1.0000 0.50514  0.99219  0.18580  Biso   1.000  H
  N25      1.0000 0.40694  0.09769  0.11967  Biso   1.000  N
  O11      1.0000 0.27142  0.10532  0.14997  Biso   1.000  O
  N26      1.0000 0.58167  0.09144  0.13504  Biso   1.000  N
  O12      1.0000 0.71779  0.11277  0.19714  Biso   1.000  O
  C37      1.0000 0.35088  0.22855  0.06069  Biso   1.000  C
  C38      1.0000 0.47906  0.25042  0.02545  Biso   1.000  C
  C39      1.0000 0.62523  0.22690  0.08054  Biso   1.000  C
  H32      1.0000 0.48507  0.02562  0.10659  Biso   1.000  H
  C40      1.0000 0.36012  0.11628  0.06924  Biso   1.000  C
  C41      1.0000 0.61292  0.11633  0.09396  Biso   1.000  C
  N27      1.0000 0.39493  0.17433  0.05580  Biso   1.000  N
  O13      1.0000 0.27761  0.23508  0.07432  Biso   1.000  O
  C42      1.0000 0.48038  0.18164  0.03853  Biso   1.000  C
  H33      1.0000 0.46636  0.25700  0.98963  Biso   1.000  H
  N28      1.0000 0.57064  0.17529  0.07706  Biso   1.000  N
  O14      1.0000 0.70799  0.23220  0.10589  Biso   1.000  O
  H34      1.0000 0.29119  0.11921  0.06580  Biso   1.000  H
  H35      1.0000 0.37078  0.08518  0.04639  Biso   1.000  H
  H36      1.0000 0.68239  0.12048  0.10340  Biso   1.000  H
  H37      1.0000 0.59680  0.08769  0.06661  Biso   1.000  H
  H38      1.0000 0.47951  0.15570  0.00971  Biso   1.000  H
  C43      1.0000 0.46381  0.58027  0.56277  Biso   1.000  C
  H39      1.0000 0.46257  0.56360  0.53002  Biso   1.000  H
  C44      1.0000 0.45739  0.52962  0.59986  Biso   1.000  C
  N29      1.0000 0.38144  0.61804  0.56152  Biso   1.000  N
  N30      1.0000 0.55551  0.60950  0.58515  Biso   1.000  N
  H40      1.0000 0.44768  0.48929  0.58400  Biso   1.000  H
  N31      1.0000 0.37541  0.54807  0.61824  Biso   1.000  N
  N32      1.0000 0.54881  0.53359  0.63661  Biso   1.000  N
  C45      1.0000 0.34837  0.66577  0.52565  Biso   1.000  C
  C46      1.0000 0.32920  0.59689  0.59293  Biso   1.000  C
  C47      1.0000 0.59937  0.65467  0.55988  Biso   1.000  C
  C48      1.0000 0.60565  0.57840  0.62546  Biso   1.000  C
  C49      1.0000 0.33081  0.50879  0.64743  Biso   1.000  C
  C50      1.0000 0.58391  0.48518  0.67148  Biso   1.000  C
  H41      1.0000 0.36163  0.65408  0.49449  Biso   1.000  H
  H42      1.0000 0.27918  0.66988  0.52009  Biso   1.000  H
  N33      1.0000 0.39215  0.72400  0.54047  Biso   1.000  N
  O15      1.0000 0.25299  0.61873  0.59749  Biso   1.000  O
  H43      1.0000 0.66865  0.65298  0.57282  Biso   1.000  H
  H44      1.0000 0.58506  0.64458  0.52491  Biso   1.000  H
  N34      1.0000 0.56700  0.71624  0.56515  Biso   1.000  N
  O16      1.0000 0.68915  0.58854  0.64847  Biso   1.000  O
  H45      1.0000 0.32970  0.46741  0.63480  Biso   1.000  H
  H46      1.0000 0.26469  0.52167  0.64362  Biso   1.000  H
  N35      1.0000 0.37999  0.50875  0.70015  Biso   1.000  N
  H47      1.0000 0.56376  0.44640  0.65551  Biso   1.000  H
  H48      1.0000 0.65368  0.48609  0.68011  Biso   1.000  H
  N36      1.0000 0.55162  0.48870  0.71616  Biso   1.000  N
  C51      1.0000 0.34246  0.77141  0.55444  Biso   1.000  C
  C52      1.0000 0.48370  0.74341  0.53221  Biso   1.000  C
  C53      1.0000 0.61779  0.75720  0.59745  Biso   1.000  C
  C54      1.0000 0.33459  0.52825  0.73546  Biso   1.000  C
  C55      1.0000 0.45929  0.46810  0.72038  Biso   1.000  C
  C56      1.0000 0.61121  0.50660  0.76058  Biso   1.000  C
  N37      1.0000 0.39849  0.82211  0.55988  Biso   1.000  N
  O17      1.0000 0.26107  0.76885  0.55966  Biso   1.000  O
  C57      1.0000 0.49006  0.81137  0.54792  Biso   1.000  C
  H49      1.0000 0.48496  0.73857  0.49742  Biso   1.000  H
  N38      1.0000 0.57320  0.81261  0.59015  Biso   1.000  N
  O18      1.0000 0.69390  0.74661  0.62820  Biso   1.000  O
  N39      1.0000 0.38668  0.50806  0.78051  Biso   1.000  N
  O19      1.0000 0.26036  0.55748  0.72757  Biso   1.000  O
  H50      1.0000 0.44581  0.42649  0.70753  Biso   1.000  H
  C58      1.0000 0.46732  0.47084  0.77692  Biso   1.000  C
  N40      1.0000 0.56123  0.49874  0.79652  Biso   1.000  N
  O20      1.0000 0.69261  0.52578  0.76703  Biso   1.000  O
  C59      1.0000 0.36575  0.88148  0.57215  Biso   1.000  C
  H51      1.0000 0.49879  0.83818  0.52121  Biso   1.000  H
  C60      1.0000 0.62025  0.86869  0.61086  Biso   1.000  C
  C61      1.0000 0.35231  0.51240  0.82449  Biso   1.000  C
  H52      1.0000 0.46388  0.43001  0.79081  Biso   1.000  H
  C62      1.0000 0.60970  0.49710  0.84861  Biso   1.000  C
  H53      1.0000 0.38136  0.91181  0.54999  Biso   1.000  H
  H54      1.0000 0.29625  0.88047  0.56652  Biso   1.000  H
  N41      1.0000 0.40747  0.90011  0.62283  Biso   1.000  N
  H55      1.0000 0.68816  0.86047  0.62442  Biso   1.000  H
  H56      1.0000 0.61475  0.89829  0.58441  Biso   1.000  H
  N42      1.0000 0.58197  0.89482  0.64865  Biso   1.000  N
  H57      1.0000 0.35489  0.47221  0.83931  Biso   1.000  H
  H58      1.0000 0.28544  0.52501  0.81523  Biso   1.000  H
  N43      1.0000 0.40564  0.55469  0.86132  Biso   1.000  N
  H59      1.0000 0.59844  0.45759  0.86191  Biso   1.000  H
  H60      1.0000 0.67846  0.50107  0.85213  Biso   1.000  H
  N44      1.0000 0.57910  0.54419  0.87736  Biso   1.000  N
  C63      1.0000 0.35681  0.90062  0.65851  Biso   1.000  C
  C64      1.0000 0.49697  0.93318  0.63735  Biso   1.000  C
  C65      1.0000 0.63650  0.90363  0.69615  Biso   1.000  C
  C66      1.0000 0.36132  0.60210  0.87802  Biso   1.000  C
  C67      1.0000 0.49491  0.53789  0.89607  Biso   1.000  C
  C68      1.0000 0.63790  0.59050  0.90003  Biso   1.000  C
  N45      1.0000 0.41212  0.93071  0.69956  Biso   1.000  N
  O21      1.0000 0.27754  0.87920  0.65503  Biso   1.000  O
  C69      1.0000 0.49543  0.95999  0.68882  Biso   1.000  C
  H61      1.0000 0.50129  0.96529  0.61349  Biso   1.000  H
  N46      1.0000 0.58554  0.94067  0.72027  Biso   1.000  N
  O22      1.0000 0.71559  0.88248  0.71364  Biso   1.000  O
  N47      1.0000 0.42076  0.62466  0.92011  Biso   1.000  N
  O23      1.0000 0.27960  0.62124  0.85854  Biso   1.000  O
  H62      1.0000 0.49112  0.49719  0.91011  Biso   1.000  H
  C70      1.0000 0.50716  0.58817  0.93601  Biso   1.000  C
  N48      1.0000 0.59444  0.61863  0.93245  Biso   1.000  N
  O24      1.0000 0.71609  0.60452  0.89296  Biso   1.000  O
  C71      1.0000 0.36870  0.95383  0.73768  Biso   1.000  C
  H63      1.0000 0.48923  0.00457  0.68782  Biso   1.000  H
  C72      1.0000 0.62897  0.96817  0.76803  Biso   1.000  C
  C73      1.0000 0.38942  0.66782  0.95164  Biso   1.000  C
  H64      1.0000 0.51311  0.57091  0.96913  Biso   1.000  H
  C74      1.0000 0.63997  0.66559  0.96683  Biso   1.000  C
  N49      1.0000 0.41642  0.93286  0.78722  Biso   1.000  N
  N50      1.0000 0.59087  0.94359  0.80734  Biso   1.000  N
  H65      1.0000 0.41035  0.65371  0.98562  Biso   1.000  H
  H66      1.0000 0.31962  0.66887  0.94282  Biso   1.000  H
  N51      1.0000 0.42505  0.72930  0.94894  Biso   1.000  N
  H67      1.0000 0.70774  0.66750  0.96731  Biso   1.000  H
  H68      1.0000 0.63504  0.65458  0.99981  Biso   1.000  H
  N52      1.0000 0.59744  0.72551  0.95446  Biso   1.000  N
  C75      1.0000 0.36357  0.90697  0.81652  Biso   1.000  C
  C76      1.0000 0.50170  0.96323  0.81649  Biso   1.000  C
  C77      1.0000 0.64610  0.91117  0.84620  Biso   1.000  C
  C78      1.0000 0.37494  0.77310  0.91948  Biso   1.000  C
  C79      1.0000 0.52103  0.74958  0.97454  Biso   1.000  C
  C80      1.0000 0.64922  0.77141  0.93934  Biso   1.000  C
  N53      1.0000 0.41841  0.90856  0.86495  Biso   1.000  N
  O25      1.0000 0.28231  0.88723  0.80289  Biso   1.000  O
  C81      1.0000 0.50831  0.94040  0.86995  Biso   1.000  C
  H69      1.0000 0.49503  0.00776  0.81423  Biso   1.000  H
  N54      1.0000 0.59322  0.90226  0.88032  Biso   1.000  N
  O26      1.0000 0.72873  0.89468  0.85002  Biso   1.000  O
  N55      1.0000 0.42953  0.82471  0.92297  Biso   1.000  N
  O27      1.0000 0.29210  0.76776  0.89410  Biso   1.000  O
  C82      1.0000 0.51972  0.81836  0.96150  Biso   1.000  C
  H70      1.0000 0.53380  0.74300  0.01036  Biso   1.000  H
  N56      1.0000 0.60524  0.82567  0.94423  Biso   1.000  N
  O28      1.0000 0.72254  0.76492  0.92567  Biso   1.000  O
  C83      1.0000 0.38726  0.88367  0.90607  Biso   1.000  C
  H71      1.0000 0.51501  0.97438  0.89340  Biso   1.000  H
  C84      1.0000 0.64005  0.88367  0.93078  Biso   1.000  C
  H72      1.0000 0.52066  0.84430  0.99032  Biso   1.000  H
  H73      1.0000 0.31772  0.87947  0.89662  Biso   1.000  H
  H74      1.0000 0.40330  0.91231  0.93341  Biso   1.000  H
  H75      1.0000 0.70892  0.88079  0.93423  Biso   1.000  H
  H76      1.0000 0.62930  0.91478  0.95361  Biso   1.000  H
  C85      1.0000 0.88717  0.61631  0.40606  Biso   1.000  C
  N57      1.0000 0.91833  0.59141  0.36493  Biso   1.000  N
  H77      1.0000 0.81763  0.62051  0.39661  Biso   1.000  H
  H78      1.0000 0.90328  0.58771  0.43340  Biso   1.000  H
  N58      1.0000 0.92945  0.67527  0.42295  Biso   1.000  N
  C86      1.0000 0.86357  0.59301  0.31655  Biso   1.000  C
  C87      1.0000 0.00824  0.55958  0.36997  Biso   1.000  C
  C88      1.0000 0.87485  0.72688  0.41947  Biso   1.000  C
  C89      1.0000 0.01964  0.68162  0.46148  Biso   1.000  C
  O29      1.0000 0.78223  0.61274  0.30288  Biso   1.000  O
  N59      1.0000 0.91633  0.56712  0.28720  Biso   1.000  N
  C90      1.0000 0.00161  0.53674  0.31647  Biso   1.000  C
  H79      1.0000 0.01494  0.52560  0.39342  Biso   1.000  H
  N60      1.0000 0.09313  0.59772  0.38031  Biso   1.000  N
  N61      1.0000 0.92496  0.77068  0.44892  Biso   1.000  N
  O30      1.0000 0.79201  0.73222  0.39409  Biso   1.000  O
  C91      1.0000 0.02094  0.75040  0.47452  Biso   1.000  C
  H80      1.0000 0.02058  0.65567  0.49031  Biso   1.000  H
  N62      1.0000 0.10516  0.67431  0.44422  Biso   1.000  N
  C92      1.0000 0.86862  0.54615  0.23767  Biso   1.000  C
  H81      1.0000 0.99494  0.49221  0.31421  Biso   1.000  H
  N63      1.0000 0.09086  0.55638  0.30732  Biso   1.000  N
  C93      1.0000 0.13997  0.61631  0.43077  Biso   1.000  C
  C94      1.0000 0.14603  0.58881  0.34622  Biso   1.000  C
  C95      1.0000 0.88933  0.83215  0.45163  Biso   1.000  C
  H82      1.0000 0.03389  0.75698  0.51042  Biso   1.000  H
  N64      1.0000 0.09736  0.77447  0.45444  Biso   1.000  N
  C96      1.0000 0.14914  0.72857  0.43933  Biso   1.000  C
  N65      1.0000 0.91203  0.56926  0.19955  Biso   1.000  N
  C97      1.0000 0.12895  0.53181  0.26801  Biso   1.000  C
  H83      1.0000 0.20883  0.61918  0.43421  Biso   1.000  H
  H84      1.0000 0.12922  0.58520  0.45359  Biso   1.000  H
  O31      1.0000 0.22864  0.60530  0.35000  Biso   1.000  O
  H85      1.0000 0.91026  0.84627  0.48560  Biso   1.000  H
  H86      1.0000 0.81954  0.83110  0.44281  Biso   1.000  H
  N66      1.0000 0.92067  0.87531  0.42010  Biso   1.000  N
  C98      1.0000 0.13988  0.83439  0.46682  Biso   1.000  C
  O32      1.0000 0.22247  0.73505  0.42569  Biso   1.000  O
  C99      1.0000 0.85672  0.59936  0.15850  Biso   1.000  C
  C100     1.0000 0.99534  0.53999  0.18880  Biso   1.000  C
  N67      1.0000 0.08545  0.55931  0.22026  Biso   1.000  N
  C101     1.0000 0.86124  0.89788  0.37801  Biso   1.000  C
  C102     1.0000 0.00707  0.91181  0.43599  Biso   1.000  C
  H87      1.0000 0.20765  0.83247  0.46730  Biso   1.000  H
  H88      1.0000 0.13495  0.84540  0.49979  Biso   1.000  H
  N68      1.0000 0.09436  0.88134  0.43244  Biso   1.000  N
  N69      1.0000 0.90738  0.59986  0.12282  Biso   1.000  N
  O33      1.0000 0.77746  0.62078  0.15501  Biso   1.000  O
  H89      1.0000 0.98914  0.49541  0.18780  Biso   1.000  H
  C103     1.0000 0.99688  0.56680  0.13734  Biso   1.000  C
  C104     1.0000 0.13642  0.59635  0.19614  Biso   1.000  C
  N70      1.0000 0.90557  0.94528  0.36134  Biso   1.000  N
  O34      1.0000 0.77958  0.87874  0.35852  Biso   1.000  O
  C105     1.0000 0.99482  0.96214  0.39605  Biso   1.000  C
  H90      1.0000 0.01309  0.92907  0.46911  Biso   1.000  H
  C106     1.0000 0.13782  0.90948  0.40002  Biso   1.000  C
  C107     1.0000 0.86567  0.61850  0.07213  Biso   1.000  C
  H91      1.0000 0.00122  0.53469  0.11352  Biso   1.000  H
  N71      1.0000 0.08189  0.60516  0.14864  Biso   1.000  N
  O35      1.0000 0.21550  0.61749  0.21362  Biso   1.000  O
  C108     1.0000 0.85222  0.98758  0.32448  Biso   1.000  C
  H92      1.0000 0.99103  0.00279  0.41010  Biso   1.000  H
  N72      1.0000 0.07903  0.95579  0.37738  Biso   1.000  N
  O36      1.0000 0.21601  0.89546  0.39294  Biso   1.000  O
  H93      1.0000 0.88129  0.58817  0.05002  Biso   1.000  H
  H94      1.0000 0.79623  0.61950  0.06650  Biso   1.000  H
  N73      1.0000 0.89841  0.67787  0.05987  Biso   1.000  N
  C109     1.0000 0.12023  0.63129  0.11085  Biso   1.000  C
  H95      1.0000 0.78535  0.97497  0.31521  Biso   1.000  H
  N74      1.0000 0.88659  0.99192  0.28050  Biso   1.000  N
  H96      1.0000 0.85481  0.02777  0.33930  Biso   1.000  H
  C110     1.0000 0.10961  0.00288  0.34859  Biso   1.000  C
  C111     1.0000 0.84237  0.72857  0.05443  Biso   1.000  C
  C112     1.0000 0.98998  0.68860  0.04790  Biso   1.000  C
  H97      1.0000 0.18814  0.63951  0.12441  Biso   1.000  H
  H98      1.0000 0.11473  0.60169  0.08440  Biso   1.000  H
  N75      1.0000 0.07313  0.68737  0.09018  Biso   1.000  N
  C113     1.0000 0.83450  0.97173  0.23545  Biso   1.000  C
  C114     1.0000 0.96724  0.02914  0.27690  Biso   1.000  C
  H99      1.0000 0.17837  0.99890  0.35211  Biso   1.000  H
  H100     1.0000 0.09835  0.04238  0.36189  Biso   1.000  H
  N76      1.0000 0.06115  0.00128  0.29650  Biso   1.000  N
  N77      1.0000 0.89213  0.77598  0.04046  Biso   1.000  N
  O37      1.0000 0.76100  0.73117  0.05969  Biso   1.000  O
  H101     1.0000 0.99870  0.66179  0.02119  Biso   1.000  H
  C115     1.0000 0.98362  0.75661  0.03220  Biso   1.000  C
  C116     1.0000 0.11772  0.74277  0.09748  Biso   1.000  C
  N78      1.0000 0.87991  0.99123  0.20014  Biso   1.000  N
  O38      1.0000 0.76028  0.94250  0.22756  Biso   1.000  O
  C117     1.0000 0.95921  0.03188  0.22037  Biso   1.000  C
  H102     1.0000 0.96380  0.06997  0.29080  Biso   1.000  H
  C118     1.0000 0.11113  0.99338  0.26057  Biso   1.000  C
  C119     1.0000 0.84828  0.83421  0.02564  Biso   1.000  C
  H103     1.0000 0.98503  0.76141  0.99744  Biso   1.000  H
  N79      1.0000 0.06691  0.78374  0.06513  Biso   1.000  N
  O39      1.0000 0.19381  0.75337  0.12819  Biso   1.000  O
  C120     1.0000 0.83072  0.99119  0.14742  Biso   1.000  C
  H104     1.0000 0.94572  0.07349  0.20751  Biso   1.000  H
  N80      1.0000 0.05153  0.01133  0.21614  Biso   1.000  N
  O40      1.0000 0.19252  0.97420  0.26701  Biso   1.000  O
  H105     1.0000 0.77911  0.83010  0.02012  Biso   1.000  H
  N81      1.0000 0.88144  0.88194  0.06154  Biso   1.000  N
  H106     1.0000 0.86179  0.84590  0.99455  Biso   1.000  H
  C121     1.0000 0.09928  0.84531  0.05987  Biso   1.000  C
  N82      1.0000 0.87532  0.95191  0.11822  Biso   1.000  N
  H107     1.0000 0.76461  0.97831  0.14360  Biso   1.000  H
  H108     1.0000 0.82961  0.03256  0.13478  Biso   1.000  H
  C122     1.0000 0.08382  0.01480  0.17146  Biso   1.000  C
  C123     1.0000 0.82911  0.90308  0.09292  Biso   1.000  C
  C124     1.0000 0.96372  0.91971  0.06276  Biso   1.000  C
  H109     1.0000 0.16863  0.84700  0.07280  Biso   1.000  H
  H110     1.0000 0.08498  0.85540  0.02490  Biso   1.000  H
  N83      1.0000 0.05542  0.89048  0.08514  Biso   1.000  N
  C125     1.0000 0.95731  0.97036  0.09985  Biso   1.000  C
  N84      1.0000 0.04873  0.96639  0.13660  Biso   1.000  N
  H111     1.0000 0.06374  0.05357  0.15549  Biso   1.000  H
  H112     1.0000 0.15359  0.01388  0.18010  Biso   1.000  H
  O41      1.0000 0.75291  0.88125  0.09748  Biso   1.000  O
  H113     1.0000 0.96248  0.93638  0.03001  Biso   1.000  H
  C126     1.0000 0.10563  0.92158  0.12545  Biso   1.000  C
  H114     1.0000 0.94760  0.01069  0.08399  Biso   1.000  H
  O42      1.0000 0.18914  0.91144  0.14846  Biso   1.000  O
  C127     1.0000 0.11298  0.38369  0.59393  Biso   1.000  C
  N85      1.0000 0.07066  0.32469  0.57708  Biso   1.000  N
  H115     1.0000 0.18247  0.37949  0.60342  Biso   1.000  H
  H116     1.0000 0.09687  0.41229  0.56659  Biso   1.000  H
  N86      1.0000 0.08176  0.40859  0.63506  Biso   1.000  N
  C128     1.0000 0.12532  0.27308  0.58056  Biso   1.000  C
  C129     1.0000 0.98047  0.31838  0.53854  Biso   1.000  C
  C130     1.0000 0.13660  0.40699  0.68348  Biso   1.000  C
  C131     1.0000 0.99186  0.44042  0.63006  Biso   1.000  C
  N87      1.0000 0.07521  0.22928  0.55110  Biso   1.000  N
  O43      1.0000 0.20807  0.26778  0.60590  Biso   1.000  O
  C132     1.0000 0.97914  0.24955  0.52547  Biso   1.000  C
  H117     1.0000 0.97960  0.34428  0.50972  Biso   1.000  H
  N88      1.0000 0.89502  0.32565  0.55581  Biso   1.000  N
  N89      1.0000 0.08377  0.43288  0.71282  Biso   1.000  N
  O44      1.0000 0.21788  0.38726  0.69715  Biso   1.000  O
  N90      1.0000 0.90695  0.40228  0.61968  Biso   1.000  N
  H118     1.0000 0.98516  0.47440  0.60660  Biso   1.000  H
  C133     1.0000 0.99847  0.46326  0.68352  Biso   1.000  C
  C134     1.0000 0.11077  0.16785  0.54840  Biso   1.000  C
  H119     1.0000 0.96629  0.24298  0.48960  Biso   1.000  H
  N91      1.0000 0.90280  0.22553  0.54555  Biso   1.000  N
  C135     1.0000 0.85097  0.27143  0.56070  Biso   1.000  C
  C136     1.0000 0.86019  0.38369  0.56922  Biso   1.000  C
  C137     1.0000 0.13149  0.45380  0.76236  Biso   1.000  C
  C138     1.0000 0.85407  0.41119  0.65380  Biso   1.000  C
  H120     1.0000 0.00523  0.50779  0.68581  Biso   1.000  H
  N92      1.0000 0.90930  0.44357  0.69267  Biso   1.000  N
  H121     1.0000 0.08991  0.15369  0.51443  Biso   1.000  H
  H122     1.0000 0.18057  0.16890  0.55722  Biso   1.000  H
  N93      1.0000 0.07950  0.12464  0.57993  Biso   1.000  N
  C139     1.0000 0.86029  0.16556  0.53321  Biso   1.000  C
  O45      1.0000 0.77770  0.26495  0.57433  Biso   1.000  O
  H123     1.0000 0.79127  0.38082  0.56581  Biso   1.000  H
  H124     1.0000 0.87087  0.41480  0.54640  Biso   1.000  H
  N94      1.0000 0.08812  0.43074  0.80044  Biso   1.000  N
  O46      1.0000 0.77151  0.39466  0.64999  Biso   1.000  O
  C140     1.0000 0.87120  0.46819  0.73198  Biso   1.000  C
  C141     1.0000 0.13885  0.10208  0.62198  Biso   1.000  C
  C142     1.0000 0.99308  0.08819  0.56400  Biso   1.000  C
  N95      1.0000 0.90575  0.11866  0.56759  Biso   1.000  N
  H125     1.0000 0.79250  0.16748  0.53269  Biso   1.000  H
  H126     1.0000 0.86520  0.15460  0.50020  Biso   1.000  H
  C143     1.0000 0.14343  0.40064  0.84149  Biso   1.000  C
  C144     1.0000 0.00483  0.45997  0.81123  Biso   1.000  C
  N96      1.0000 0.91472  0.44069  0.77977  Biso   1.000  N
  N97      1.0000 0.09460  0.05467  0.63869  Biso   1.000  N
  O47      1.0000 0.22059  0.12126  0.64150  Biso   1.000  O
  C145     1.0000 0.00527  0.03786  0.60394  Biso   1.000  C
  H127     1.0000 0.98708  0.07088  0.53091  Biso   1.000  H
  C146     1.0000 0.86227  0.09048  0.59997  Biso   1.000  C
  N98      1.0000 0.09272  0.40014  0.87721  Biso   1.000  N
  O48      1.0000 0.22270  0.37922  0.84498  Biso   1.000  O
  H128     1.0000 0.01103  0.50459  0.81223  Biso   1.000  H
  C147     1.0000 0.00322  0.43320  0.86269  Biso   1.000  C
  C148     1.0000 0.86368  0.40365  0.80389  Biso   1.000  C
  C149     1.0000 0.14788  0.01238  0.67555  Biso   1.000  C
  N99      1.0000 0.92108  0.04421  0.62265  Biso   1.000  N
  H129     1.0000 0.00905  0.99721  0.58989  Biso   1.000  H
  O49      1.0000 0.78408  0.10454  0.60705  Biso   1.000  O
  C150     1.0000 0.13442  0.38150  0.92786  Biso   1.000  C
  H130     1.0000 0.99895  0.46531  0.88651  Biso   1.000  H
  N100     1.0000 0.91822  0.39484  0.85139  Biso   1.000  N
  O50      1.0000 0.78460  0.38251  0.78640  Biso   1.000  O
  H131     1.0000 0.21482  0.02498  0.68481  Biso   1.000  H
  N101     1.0000 0.11349  0.00804  0.71949  Biso   1.000  N
  H132     1.0000 0.14528  0.97219  0.66070  Biso   1.000  H
  C151     1.0000 0.89049  0.99712  0.65143  Biso   1.000  C
  H133     1.0000 0.11881  0.41178  0.95001  Biso   1.000  H
  H134     1.0000 0.20394  0.38050  0.93352  Biso   1.000  H
  N102     1.0000 0.10170  0.32208  0.94016  Biso   1.000  N
  C152     1.0000 0.87994  0.36871  0.88918  Biso   1.000  C
  C153     1.0000 0.16560  0.02827  0.76458  Biso   1.000  C
  C154     1.0000 0.03294  0.97086  0.72312  Biso   1.000  C
  H135     1.0000 0.90180  0.95762  0.63810  Biso   1.000  H
  N103     1.0000 0.93903  0.99872  0.70352  Biso   1.000  N
  H136     1.0000 0.82180  0.00110  0.64791  Biso   1.000  H
  C155     1.0000 0.15771  0.27139  0.94557  Biso   1.000  C
  C156     1.0000 0.01013  0.31140  0.95212  Biso   1.000  C
  H137     1.0000 0.81203  0.36049  0.87562  Biso   1.000  H
  H138     1.0000 0.88544  0.39831  0.91563  Biso   1.000  H
  N104     1.0000 0.92704  0.31263  0.90985  Biso   1.000  N
  N105     1.0000 0.12020  0.00877  0.79989  Biso   1.000  N
  O51      1.0000 0.23989  0.05750  0.77247  Biso   1.000  O
  C157     1.0000 0.04088  0.96807  0.77962  Biso   1.000  C
  H139     1.0000 0.03629  0.92998  0.70919  Biso   1.000  H
  C158     1.0000 0.88903  0.00662  0.73942  Biso   1.000  C
  N106     1.0000 0.10804  0.22402  0.95957  Biso   1.000  N
  O52      1.0000 0.23910  0.26883  0.94034  Biso   1.000  O
  C159     1.0000 0.01656  0.24339  0.96783  Biso   1.000  C
  H140     1.0000 0.00145  0.33821  0.97880  Biso   1.000  H
  C160     1.0000 0.88245  0.25718  0.90255  Biso   1.000  C
  C161     1.0000 0.16945  0.00881  0.85261  Biso   1.000  C
  N107     1.0000 0.94864  0.98867  0.78388  Biso   1.000  N
  H141     1.0000 0.05438  0.92651  0.79252  Biso   1.000  H
  O53      1.0000 0.80758  0.02576  0.73302  Biso   1.000  O
  C162     1.0000 0.15182  0.16579  0.97439  Biso   1.000  C
  N108     1.0000 0.93324  0.21626  0.93486  Biso   1.000  N
  H142     1.0000 0.01507  0.23859  0.00258  Biso   1.000  H
  O54      1.0000 0.80629  0.24659  0.87184  Biso   1.000  O
  H143     1.0000 0.23550  0.02169  0.85643  Biso   1.000  H
  N109     1.0000 0.12483  0.04809  0.88177  Biso   1.000  N
  H144     1.0000 0.17054  0.96739  0.86521  Biso   1.000  H
  C163     1.0000 0.91635  0.98520  0.82856  Biso   1.000  C
  N110     1.0000 0.11873  0.11802  0.93849  Biso   1.000  N
  H145     1.0000 0.22106  0.16990  0.97991  Biso   1.000  H
  H146     1.0000 0.13838  0.15410  0.00547  Biso   1.000  H
  C164     1.0000 0.90082  0.15469  0.94016  Biso   1.000  C
  C165     1.0000 0.17106  0.09692  0.90711  Biso   1.000  C
  C166     1.0000 0.04280  0.02960  0.90018  Biso   1.000  C
  H147     1.0000 0.93641  0.94638  0.84450  Biso   1.000  H
  H148     1.0000 0.84649  0.98612  0.81990  Biso   1.000  H
  N111     1.0000 0.95145  0.03357  0.86343  Biso   1.000  N
  C167     1.0000 0.03645  0.08029  0.93727  Biso   1.000  C
  N112     1.0000 0.94475  0.10948  0.91489  Biso   1.000  N
  H149     1.0000 0.83154  0.15300  0.92723  Biso   1.000  H
  H150     1.0000 0.91513  0.14460  0.97513  Biso   1.000  H
  O55      1.0000 0.24720  0.11875  0.90255  Biso   1.000  O
  H151     1.0000 0.05249  0.98931  0.91600  Biso   1.000  H
  C168     1.0000 0.89452  0.07842  0.87454  Biso   1.000  C
  H152     1.0000 0.03762  0.06362  0.97002  Biso   1.000  H
  O56      1.0000 0.81102  0.08856  0.85153  Biso   1.000  O
  Ne1      1.0000 0.50972  0.27959  0.24850  Biso   1.000  Ne
  He1      1.0000 0.74703  0.26570  0.26928  Biso   1.000  He
  He2      1.0000 0.27779  0.28690  0.22501  Biso   1.000  He
  Ar1      1.0000 0.49960  0.27498  0.24093  Biso   1.000  Ar
  Ne2      1.0000 0.00979  0.22040  0.74851  Biso   1.000  Ne
  He3      1.0000 0.22895  0.23387  0.76707  Biso   1.000  He
  He4      1.0000 0.79378  0.21359  0.72657  Biso   1.000  He
  Ar2      1.0000 0.99816  0.22475  0.74023  Biso   1.000  Ar
  Ne3      1.0000 0.99034  0.77958  0.25151  Biso   1.000  Ne
  He5      1.0000 0.21284  0.78662  0.27407  Biso   1.000  He
  He6      1.0000 0.76509  0.76597  0.23219  Biso   1.000  He
  Ar3      1.0000 0.00190  0.77526  0.25975  Biso   1.000  Ar
  Ne4      1.0000 0.49042  0.72040  0.75152  Biso   1.000  Ne
  He7      1.0000 0.72046  0.71312  0.77481  Biso   1.000  He
  He8      1.0000 0.25033  0.73436  0.73041  Biso   1.000  He
  Ar4      1.0000 0.50186  0.72477  0.75976  Biso   1.000  Ar
