data_image0
_cell_length_a       15.047
_cell_length_b       17.63
_cell_length_c       26.271
_cell_angle_alpha    90
_cell_angle_beta     96.42
_cell_angle_gamma    90

_symmetry_space_group_name_H-M    "P 1"
_symmetry_int_tables_number       1

loop_
  _symmetry_equiv_pos_as_xyz
  'x, y, z'

loop_
  _atom_site_label
  _atom_site_occupancy
  _atom_site_fract_x
  _atom_site_fract_y
  _atom_site_fract_z
  _atom_site_thermal_displace_type
  _atom_site_B_iso_or_equiv
  _atom_site_type_symbol
  C1       1.0000 0.57292  0.62275  0.41182  Biso   1.000  C
  C2       1.0000 0.63653  0.57589  0.39213  Biso   1.000  C
  H1       1.0000 0.51103  0.61531  0.40151  Biso   1.000  H
  C3       1.0000 0.60019  0.67924  0.44599  Biso   1.000  C
  C4       1.0000 0.60775  0.51424  0.35566  Biso   1.000  C
  C5       1.0000 0.72648  0.58786  0.40795  Biso   1.000  C
  H2       1.0000 0.55629  0.70981  0.45939  Biso   1.000  H
  C6       1.0000 0.69091  0.69314  0.46165  Biso   1.000  C
  N1       1.0000 0.52445  0.51645  0.33241  Biso   1.000  N
  N2       1.0000 0.66758  0.45950  0.34930  Biso   1.000  N
  C7       1.0000 0.75300  0.64549  0.44200  Biso   1.000  C
  H3       1.0000 0.77020  0.55621  0.39531  Biso   1.000  H
  B1       1.0000 0.71932  0.76432  0.49452  Biso   1.000  B
  C8       1.0000 0.50410  0.45927  0.30100  Biso   1.000  C
  C9       1.0000 0.63518  0.40465  0.31847  Biso   1.000  C
  H4       1.0000 0.81502  0.65292  0.45231  Biso   1.000  H
  O1       1.0000 0.80432  0.79053  0.50099  Biso   1.000  O
  O2       1.0000 0.65965  0.80817  0.51601  Biso   1.000  O
  O3       1.0000 0.41948  0.46188  0.27641  Biso   1.000  O
  N3       1.0000 0.55448  0.40006  0.29250  Biso   1.000  N
  O4       1.0000 0.69237  0.34645  0.31391  Biso   1.000  O
  C10      1.0000 0.80003  0.86960  0.52018  Biso   1.000  C
  C11      1.0000 0.71057  0.86852  0.54535  Biso   1.000  C
  C12      1.0000 0.39930  0.40908  0.23634  Biso   1.000  C
  C13      1.0000 0.65936  0.28622  0.28200  Biso   1.000  C
  C14      1.0000 0.88361  0.88338  0.55650  Biso   1.000  C
  C15      1.0000 0.79689  0.92099  0.47314  Biso   1.000  C
  C16      1.0000 0.72137  0.84197  0.60101  Biso   1.000  C
  C17      1.0000 0.65748  0.94169  0.53895  Biso   1.000  C
  C18      1.0000 0.34920  0.34606  0.24661  Biso   1.000  C
  C19      1.0000 0.42798  0.42377  0.18957  Biso   1.000  C
  C20      1.0000 0.61124  0.22915  0.30276  Biso   1.000  C
  C21      1.0000 0.67822  0.28605  0.23190  Biso   1.000  C
  H5       1.0000 0.93580  0.88361  0.53719  Biso   1.000  H
  H6       1.0000 0.89031  0.84299  0.58231  Biso   1.000  H
  H7       1.0000 0.87902  0.93250  0.57350  Biso   1.000  H
  H8       1.0000 0.85458  0.91912  0.45920  Biso   1.000  H
  H9       1.0000 0.78453  0.97328  0.48299  Biso   1.000  H
  H10      1.0000 0.74947  0.90369  0.44710  Biso   1.000  H
  H11      1.0000 0.66309  0.84271  0.61430  Biso   1.000  H
  H12      1.0000 0.76261  0.87601  0.62161  Biso   1.000  H
  H13      1.0000 0.74540  0.79030  0.60288  Biso   1.000  H
  H14      1.0000 0.60299  0.93693  0.55600  Biso   1.000  H
  H15      1.0000 0.64131  0.95179  0.50241  Biso   1.000  H
  H16      1.0000 0.69393  0.98361  0.55439  Biso   1.000  H
  C22      1.0000 0.32899  0.29660  0.20574  Biso   1.000  C
  H17      1.0000 0.32993  0.33732  0.27928  Biso   1.000  H
  C23      1.0000 0.40509  0.37136  0.15096  Biso   1.000  C
  H18      1.0000 0.46203  0.46778  0.18390  Biso   1.000  H
  C24      1.0000 0.58055  0.17090  0.26944  Biso   1.000  C
  H19      1.0000 0.59990  0.22978  0.33758  Biso   1.000  H
  C25      1.0000 0.64662  0.22558  0.20141  Biso   1.000  C
  H20      1.0000 0.71162  0.32581  0.21880  Biso   1.000  H
  O5       1.0000 0.27678  0.23114  0.21370  Biso   1.000  O
  C26      1.0000 0.35519  0.30760  0.15816  Biso   1.000  C
  O6       1.0000 0.43544  0.38525  0.10250  Biso   1.000  O
  O7       1.0000 0.52945  0.11276  0.28924  Biso   1.000  O
  C27      1.0000 0.59776  0.16710  0.21907  Biso   1.000  C
  O8       1.0000 0.66774  0.22246  0.15031  Biso   1.000  O
  C28      1.0000 0.31851  0.17147  0.23784  Biso   1.000  C
  H21      1.0000 0.33961  0.27260  0.13112  Biso   1.000  H
  C29      1.0000 0.51290  0.35060  0.09381  Biso   1.000  C
  C30      1.0000 0.44033  0.11566  0.27530  Biso   1.000  C
  H22      1.0000 0.57703  0.12598  0.19762  Biso   1.000  H
  C31      1.0000 0.62210  0.27085  0.11668  Biso   1.000  C
  N4       1.0000 0.40703  0.17657  0.25006  Biso   1.000  N
  N5       1.0000 0.26570  0.11390  0.24680  Biso   1.000  N
  N6       1.0000 0.55014  0.30391  0.13005  Biso   1.000  N
  N7       1.0000 0.54197  0.36795  0.05003  Biso   1.000  N
  N8       1.0000 0.39626  0.05564  0.28955  Biso   1.000  N
  N9       1.0000 0.65719  0.27674  0.07240  Biso   1.000  N
  C32      1.0000 0.30797  0.05825  0.27403  Biso   1.000  C
  C33      1.0000 0.61525  0.32955  0.04072  Biso   1.000  C
  C34      1.0000 0.25288  0.99597  0.29077  Biso   1.000  C
  C35      1.0000 0.65761  0.34657  0.99387  Biso   1.000  C
  C36      1.0000 0.27541  0.96427  0.33911  Biso   1.000  C
  C37      1.0000 0.17660  0.96982  0.26021  Biso   1.000  C
  C38      1.0000 0.74410  0.32138  0.99031  Biso   1.000  C
  C39      1.0000 0.61479  0.38962  0.95499  Biso   1.000  C
  C40      1.0000 0.21989  0.90993  0.35765  Biso   1.000  C
  H23      1.0000 0.32849  0.97969  0.35942  Biso   1.000  H
  H24      1.0000 0.16031  0.99058  0.22711  Biso   1.000  H
  C41      1.0000 0.12520  0.91293  0.27913  Biso   1.000  C
  H25      1.0000 0.77419  0.29172  0.01708  Biso   1.000  H
  C42      1.0000 0.78641  0.33948  0.94794  Biso   1.000  C
  C43      1.0000 0.65777  0.40669  0.91201  Biso   1.000  C
  H26      1.0000 0.55598  0.40783  0.95740  Biso   1.000  H
  C44      1.0000 0.14459  0.88310  0.32770  Biso   1.000  C
  H27      1.0000 0.23381  0.89092  0.39152  Biso   1.000  H
  H28      1.0000 0.07498  0.89399  0.25779  Biso   1.000  H
  H29      1.0000 0.84603  0.32269  0.94630  Biso   1.000  H
  C45      1.0000 0.74413  0.38157  0.90772  Biso   1.000  C
  H30      1.0000 0.62740  0.43602  0.88509  Biso   1.000  H
  B2       1.0000 0.08820  0.81912  0.35034  Biso   1.000  B
  B3       1.0000 0.79541  0.40040  0.86061  Biso   1.000  B
  O9       1.0000 0.02250  0.77873  0.32222  Biso   1.000  O
  O10      1.0000 0.10279  0.79784  0.40025  Biso   1.000  O
  O11      1.0000 0.76028  0.43897  0.81820  Biso   1.000  O
  O12      1.0000 0.88310  0.37896  0.85908  Biso   1.000  O
  C46      1.0000 0.97797  0.73437  0.35899  Biso   1.000  C
  C47      1.0000 0.05261  0.72700  0.40431  Biso   1.000  C
  C48      1.0000 0.83583  0.45678  0.78882  Biso   1.000  C
  C49      1.0000 0.90352  0.39370  0.80671  Biso   1.000  C
  C50      1.0000 0.94593  0.65984  0.33479  Biso   1.000  C
  C51      1.0000 0.89929  0.78270  0.37160  Biso   1.000  C
  C52      1.0000 0.11831  0.66262  0.39837  Biso   1.000  C
  C53      1.0000 0.02041  0.72490  0.45759  Biso   1.000  C
  C54      1.0000 0.86792  0.53471  0.80614  Biso   1.000  C
  C55      1.0000 0.80232  0.45661  0.73225  Biso   1.000  C
  C56      1.0000 0.88692  0.31843  0.77787  Biso   1.000  C
  C57      1.0000 0.00130  0.41571  0.80817  Biso   1.000  C
  H31      1.0000 0.89908  0.66971  0.30652  Biso   1.000  H
  H32      1.0000 0.92158  0.62802  0.36049  Biso   1.000  H
  H33      1.0000 0.99608  0.63369  0.32169  Biso   1.000  H
  H34      1.0000 0.85473  0.78571  0.34149  Biso   1.000  H
  H35      1.0000 0.92039  0.83381  0.38129  Biso   1.000  H
  H36      1.0000 0.87222  0.75961  0.40010  Biso   1.000  H
  H37      1.0000 0.13730  0.66410  0.36390  Biso   1.000  H
  H38      1.0000 0.08929  0.61390  0.40358  Biso   1.000  H
  H39      1.0000 0.17073  0.66852  0.42381  Biso   1.000  H
  H40      1.0000 0.97991  0.68179  0.45981  Biso   1.000  H
  H41      1.0000 0.98867  0.77209  0.46349  Biso   1.000  H
  H42      1.0000 0.07188  0.71963  0.48360  Biso   1.000  H
  H43      1.0000 0.88903  0.53352  0.84280  Biso   1.000  H
  H44      1.0000 0.81847  0.57102  0.80001  Biso   1.000  H
  H45      1.0000 0.91700  0.55031  0.78691  Biso   1.000  H
  H46      1.0000 0.78220  0.40550  0.72179  Biso   1.000  H
  H47      1.0000 0.85070  0.47209  0.71248  Biso   1.000  H
  H48      1.0000 0.75221  0.49217  0.72581  Biso   1.000  H
  H49      1.0000 0.82373  0.30448  0.77691  Biso   1.000  H
  H50      1.0000 0.92399  0.27862  0.79549  Biso   1.000  H
  H51      1.0000 0.90240  0.32411  0.74278  Biso   1.000  H
  H52      1.0000 0.01148  0.46398  0.82629  Biso   1.000  H
  H53      1.0000 0.01678  0.42099  0.77308  Biso   1.000  H
  H54      1.0000 0.03861  0.37618  0.82602  Biso   1.000  H
  C58      1.0000 0.42711  0.37725  0.58817  Biso   1.000  C
  C59      1.0000 0.39978  0.32076  0.55404  Biso   1.000  C
  C60      1.0000 0.36351  0.42411  0.60790  Biso   1.000  C
  H55      1.0000 0.48901  0.38469  0.59852  Biso   1.000  H
  C61      1.0000 0.30912  0.30686  0.53834  Biso   1.000  C
  H56      1.0000 0.44368  0.29019  0.54060  Biso   1.000  H
  C62      1.0000 0.27349  0.41214  0.59204  Biso   1.000  C
  C63      1.0000 0.39223  0.48576  0.64437  Biso   1.000  C
  B4       1.0000 0.28071  0.23568  0.50547  Biso   1.000  B
  C64      1.0000 0.24703  0.35451  0.55799  Biso   1.000  C
  H57      1.0000 0.22976  0.44379  0.60468  Biso   1.000  H
  N10      1.0000 0.47558  0.48355  0.66758  Biso   1.000  N
  N11      1.0000 0.33239  0.54050  0.65069  Biso   1.000  N
  O13      1.0000 0.34031  0.19183  0.48398  Biso   1.000  O
  O14      1.0000 0.19564  0.20947  0.49900  Biso   1.000  O
  H58      1.0000 0.18501  0.34708  0.54768  Biso   1.000  H
  C65      1.0000 0.49593  0.54073  0.69899  Biso   1.000  C
  C66      1.0000 0.36479  0.59535  0.68152  Biso   1.000  C
  C67      1.0000 0.28939  0.13148  0.45464  Biso   1.000  C
  C68      1.0000 0.20000  0.13040  0.47981  Biso   1.000  C
  O15      1.0000 0.58048  0.53812  0.72358  Biso   1.000  O
  N12      1.0000 0.44556  0.59994  0.70753  Biso   1.000  N
  O16      1.0000 0.30767  0.65355  0.68612  Biso   1.000  O
  C69      1.0000 0.27860  0.15803  0.39898  Biso   1.000  C
  C70      1.0000 0.34248  0.05831  0.46104  Biso   1.000  C
  C71      1.0000 0.11642  0.11662  0.44350  Biso   1.000  C
  C72      1.0000 0.20308  0.07901  0.52689  Biso   1.000  C
  C73      1.0000 0.60073  0.59092  0.76365  Biso   1.000  C
  C74      1.0000 0.34061  0.71378  0.71803  Biso   1.000  C
  H59      1.0000 0.33688  0.15729  0.38569  Biso   1.000  H
  H60      1.0000 0.23743  0.12399  0.37842  Biso   1.000  H
  H61      1.0000 0.25457  0.20970  0.39711  Biso   1.000  H
  H62      1.0000 0.39697  0.06307  0.44399  Biso   1.000  H
  H63      1.0000 0.35872  0.04821  0.49758  Biso   1.000  H
  H64      1.0000 0.30611  0.01639  0.44560  Biso   1.000  H
  H65      1.0000 0.06423  0.11639  0.46280  Biso   1.000  H
  H66      1.0000 0.10973  0.15701  0.41772  Biso   1.000  H
  H67      1.0000 0.12101  0.06750  0.42649  Biso   1.000  H
  H68      1.0000 0.14538  0.08088  0.54079  Biso   1.000  H
  H69      1.0000 0.21550  0.02672  0.51700  Biso   1.000  H
  H70      1.0000 0.25049  0.09631  0.55289  Biso   1.000  H
  C75      1.0000 0.65083  0.65394  0.75338  Biso   1.000  C
  C76      1.0000 0.57198  0.57623  0.81042  Biso   1.000  C
  C77      1.0000 0.38879  0.77085  0.69723  Biso   1.000  C
  C78      1.0000 0.32181  0.71395  0.76809  Biso   1.000  C
  C79      1.0000 0.67097  0.70340  0.79425  Biso   1.000  C
  H71      1.0000 0.67011  0.66268  0.72071  Biso   1.000  H
  H72      1.0000 0.53800  0.53222  0.81609  Biso   1.000  H
  C80      1.0000 0.59487  0.62864  0.84903  Biso   1.000  C
  C81      1.0000 0.41949  0.82910  0.73055  Biso   1.000  C
  H73      1.0000 0.40007  0.77022  0.66241  Biso   1.000  H
  H74      1.0000 0.28841  0.67419  0.78119  Biso   1.000  H
  C82      1.0000 0.35335  0.77442  0.79858  Biso   1.000  C
  O17      1.0000 0.72325  0.76886  0.78629  Biso   1.000  O
  C83      1.0000 0.64477  0.69240  0.84183  Biso   1.000  C
  O18      1.0000 0.56453  0.61475  0.89752  Biso   1.000  O
  O19      1.0000 0.47051  0.88724  0.71075  Biso   1.000  O
  C84      1.0000 0.40220  0.83290  0.78092  Biso   1.000  C
  O20      1.0000 0.33222  0.77754  0.84968  Biso   1.000  O
  C85      1.0000 0.68145  0.82853  0.76215  Biso   1.000  C
  H75      1.0000 0.66043  0.72740  0.86891  Biso   1.000  H
  C86      1.0000 0.48707  0.64940  0.90618  Biso   1.000  C
  C87      1.0000 0.55970  0.88434  0.72469  Biso   1.000  C
  H76      1.0000 0.42301  0.87402  0.80241  Biso   1.000  H
  C88      1.0000 0.37793  0.72915  0.88331  Biso   1.000  C
  N13      1.0000 0.59294  0.82343  0.74994  Biso   1.000  N
  N14      1.0000 0.73427  0.88610  0.75319  Biso   1.000  N
  N15      1.0000 0.44989  0.69609  0.86994  Biso   1.000  N
  N16      1.0000 0.45807  0.63205  0.94996  Biso   1.000  N
  N17      1.0000 0.60370  0.94436  0.71044  Biso   1.000  N
  N18      1.0000 0.34278  0.72326  0.92759  Biso   1.000  N
  C89      1.0000 0.69207  0.94175  0.72596  Biso   1.000  C
  C90      1.0000 0.38479  0.67045  0.95927  Biso   1.000  C
  C91      1.0000 0.74708  0.00403  0.70922  Biso   1.000  C
  C92      1.0000 0.34243  0.65343  0.00616  Biso   1.000  C
  C93      1.0000 0.72462  0.03573  0.66088  Biso   1.000  C
  C94      1.0000 0.82336  0.03018  0.73978  Biso   1.000  C
  C95      1.0000 0.25593  0.67862  0.00968  Biso   1.000  C
  C96      1.0000 0.38517  0.61038  0.04500  Biso   1.000  C
  C97      1.0000 0.78015  0.09007  0.64234  Biso   1.000  C
  H77      1.0000 0.67148  0.02031  0.64061  Biso   1.000  H
  H78      1.0000 0.83973  0.00942  0.77292  Biso   1.000  H
  C98      1.0000 0.87477  0.08707  0.72090  Biso   1.000  C
  H79      1.0000 0.22578  0.70828  0.98291  Biso   1.000  H
  C99      1.0000 0.21362  0.66052  0.05205  Biso   1.000  C
  C100     1.0000 0.34220  0.59331  0.08802  Biso   1.000  C
  H80      1.0000 0.44398  0.59217  0.04259  Biso   1.000  H
  C101     1.0000 0.85538  0.11690  0.67229  Biso   1.000  C
  H81      1.0000 0.76623  0.10908  0.60851  Biso   1.000  H
  H82      1.0000 0.92498  0.10601  0.74220  Biso   1.000  H
  H83      1.0000 0.15400  0.67731  0.05369  Biso   1.000  H
  C102     1.0000 0.25584  0.61843  0.09231  Biso   1.000  C
  H84      1.0000 0.37257  0.56398  0.11491  Biso   1.000  H
  B5       1.0000 0.91177  0.18088  0.64969  Biso   1.000  B
  B6       1.0000 0.20462  0.59960  0.13938  Biso   1.000  B
  O21      1.0000 0.97747  0.22127  0.67777  Biso   1.000  O
  O22      1.0000 0.89724  0.20216  0.59974  Biso   1.000  O
  O23      1.0000 0.23975  0.56103  0.18179  Biso   1.000  O
  O24      1.0000 0.11693  0.62104  0.14091  Biso   1.000  O
  C103     1.0000 0.02199  0.26563  0.64100  Biso   1.000  C
  C104     1.0000 0.94742  0.27300  0.59568  Biso   1.000  C
  C105     1.0000 0.16415  0.54322  0.21120  Biso   1.000  C
  C106     1.0000 0.09645  0.60630  0.19328  Biso   1.000  C
  C107     1.0000 0.05410  0.34016  0.66520  Biso   1.000  C
  C108     1.0000 0.10068  0.21730  0.62839  Biso   1.000  C
  C109     1.0000 0.88172  0.33738  0.60162  Biso   1.000  C
  C110     1.0000 0.97962  0.27510  0.54240  Biso   1.000  C
  C111     1.0000 0.13212  0.46529  0.19385  Biso   1.000  C
  C112     1.0000 0.19771  0.54339  0.26774  Biso   1.000  C
  C113     1.0000 0.99868  0.58429  0.19186  Biso   1.000  C
  C114     1.0000 0.11311  0.68157  0.22212  Biso   1.000  C
  H85      1.0000 0.10090  0.33029  0.69351  Biso   1.000  H
  H86      1.0000 0.07839  0.37198  0.63950  Biso   1.000  H
  H87      1.0000 0.00389  0.36631  0.67830  Biso   1.000  H
  H88      1.0000 0.14530  0.21429  0.65850  Biso   1.000  H
  H89      1.0000 0.07958  0.16619  0.61870  Biso   1.000  H
  H90      1.0000 0.12781  0.24039  0.59989  Biso   1.000  H
  H91      1.0000 0.86267  0.33590  0.63609  Biso   1.000  H
  H92      1.0000 0.91068  0.38610  0.59641  Biso   1.000  H
  H93      1.0000 0.82930  0.33148  0.57618  Biso   1.000  H
  H94      1.0000 0.92809  0.28037  0.51639  Biso   1.000  H
  H95      1.0000 0.02013  0.31821  0.54022  Biso   1.000  H
  H96      1.0000 0.01130  0.22791  0.53650  Biso   1.000  H
  H97      1.0000 0.11100  0.46648  0.15719  Biso   1.000  H
  H98      1.0000 0.18150  0.42898  0.20002  Biso   1.000  H
  H99      1.0000 0.08297  0.44969  0.21308  Biso   1.000  H
  H100     1.0000 0.21783  0.59450  0.27820  Biso   1.000  H
  H101     1.0000 0.14927  0.52791  0.28751  Biso   1.000  H
  H102     1.0000 0.24783  0.50783  0.27422  Biso   1.000  H
  H103     1.0000 0.98849  0.53602  0.17370  Biso   1.000  H
  H104     1.0000 0.98319  0.57901  0.22691  Biso   1.000  H
  H105     1.0000 0.96143  0.62382  0.17401  Biso   1.000  H
  H106     1.0000 0.17631  0.69552  0.22312  Biso   1.000  H
  H107     1.0000 0.07598  0.72138  0.20450  Biso   1.000  H
  H108     1.0000 0.09763  0.67589  0.25721  Biso   1.000  H
  N19      1.0000 0.65717  0.22326  0.57239  Biso   1.000  N
  C115     1.0000 0.61523  0.17045  0.54071  Biso   1.000  C
  C116     1.0000 0.62208  0.22915  0.61667  Biso   1.000  C
  C117     1.0000 0.65759  0.15343  0.49387  Biso   1.000  C
  N20      1.0000 0.54195  0.13205  0.55002  Biso   1.000  N
  O25      1.0000 0.66773  0.27754  0.65030  Biso   1.000  O
  N21      1.0000 0.55013  0.19609  0.63004  Biso   1.000  N
  C118     1.0000 0.61478  0.11038  0.45499  Biso   1.000  C
  C119     1.0000 0.74409  0.17862  0.49030  Biso   1.000  C
  C120     1.0000 0.51288  0.14940  0.59380  Biso   1.000  C
  C121     1.0000 0.64660  0.27442  0.70140  Biso   1.000  C
  C122     1.0000 0.65782  0.09331  0.41201  Biso   1.000  C
  H109     1.0000 0.55603  0.09217  0.45740  Biso   1.000  H
  C123     1.0000 0.78639  0.16052  0.44794  Biso   1.000  C
  H110     1.0000 0.77418  0.20828  0.51712  Biso   1.000  H
  O26      1.0000 0.43543  0.11475  0.60250  Biso   1.000  O
  C124     1.0000 0.67820  0.21395  0.73189  Biso   1.000  C
  C125     1.0000 0.59774  0.33290  0.71906  Biso   1.000  C
  C126     1.0000 0.74411  0.11843  0.40772  Biso   1.000  C
  H111     1.0000 0.62739  0.06398  0.38512  Biso   1.000  H
  H112     1.0000 0.84601  0.17731  0.44629  Biso   1.000  H
  C127     1.0000 0.40514  0.12864  0.65096  Biso   1.000  C
  C128     1.0000 0.65934  0.21378  0.78200  Biso   1.000  C
  H113     1.0000 0.71160  0.17419  0.71879  Biso   1.000  H
  C129     1.0000 0.58053  0.32910  0.76943  Biso   1.000  C
  H114     1.0000 0.57701  0.37402  0.69761  Biso   1.000  H
  B7       1.0000 0.79539  0.09960  0.36060  Biso   1.000  B
  C130     1.0000 0.42804  0.07623  0.68960  Biso   1.000  C
  C131     1.0000 0.35518  0.19240  0.65819  Biso   1.000  C
  O27      1.0000 0.69235  0.15355  0.81390  Biso   1.000  O
  C132     1.0000 0.61123  0.27085  0.80276  Biso   1.000  C
  O28      1.0000 0.52943  0.38724  0.78924  Biso   1.000  O
  O29      1.0000 0.76027  0.06103  0.31824  Biso   1.000  O
  O30      1.0000 0.88308  0.12104  0.35907  Biso   1.000  O
  C133     1.0000 0.39929  0.09092  0.73638  Biso   1.000  C
  H115     1.0000 0.46202  0.03222  0.68390  Biso   1.000  H
  C134     1.0000 0.32904  0.20340  0.70573  Biso   1.000  C
  H116     1.0000 0.33960  0.22740  0.63111  Biso   1.000  H
  C135     1.0000 0.63516  0.09535  0.81846  Biso   1.000  C
  H117     1.0000 0.59989  0.27022  0.83762  Biso   1.000  H
  C136     1.0000 0.44032  0.38434  0.77529  Biso   1.000  C
  C137     1.0000 0.83581  0.04322  0.28882  Biso   1.000  C
  C138     1.0000 0.90350  0.10630  0.30671  Biso   1.000  C
  O31      1.0000 0.41953  0.03812  0.77640  Biso   1.000  O
  C139     1.0000 0.34918  0.15394  0.74660  Biso   1.000  C
  O32      1.0000 0.27677  0.26886  0.71370  Biso   1.000  O
  N22      1.0000 0.55446  0.09994  0.79249  Biso   1.000  N
  N23      1.0000 0.66757  0.04050  0.84934  Biso   1.000  N
  N24      1.0000 0.39631  0.44436  0.78954  Biso   1.000  N
  N25      1.0000 0.40701  0.32343  0.75005  Biso   1.000  N
  C140     1.0000 0.80230  0.04339  0.23224  Biso   1.000  C
  C141     1.0000 0.86790  0.96529  0.30613  Biso   1.000  C
  C142     1.0000 0.88690  0.18157  0.27786  Biso   1.000  C
  C143     1.0000 0.00128  0.08429  0.30816  Biso   1.000  C
  C144     1.0000 0.50408  0.04073  0.80100  Biso   1.000  C
  H118     1.0000 0.32992  0.16268  0.77932  Biso   1.000  H
  C145     1.0000 0.31856  0.32853  0.73783  Biso   1.000  C
  C146     1.0000 0.60773  0.98576  0.85566  Biso   1.000  C
  C147     1.0000 0.30796  0.44175  0.77407  Biso   1.000  C
  H119     1.0000 0.78218  0.09450  0.22179  Biso   1.000  H
  H120     1.0000 0.85069  0.02791  0.21252  Biso   1.000  H
  H121     1.0000 0.75220  0.00783  0.22581  Biso   1.000  H
  H122     1.0000 0.88901  0.96648  0.34279  Biso   1.000  H
  H123     1.0000 0.81852  0.92898  0.30000  Biso   1.000  H
  H124     1.0000 0.91698  0.94969  0.28690  Biso   1.000  H
  H125     1.0000 0.82371  0.19552  0.27691  Biso   1.000  H
  H126     1.0000 0.92397  0.22138  0.29548  Biso   1.000  H
  H127     1.0000 0.90239  0.17589  0.24282  Biso   1.000  H
  H128     1.0000 0.01153  0.03602  0.32628  Biso   1.000  H
  H129     1.0000 0.01683  0.07901  0.27311  Biso   1.000  H
  H130     1.0000 0.03859  0.12382  0.32601  Biso   1.000  H
  N26      1.0000 0.52444  0.98355  0.83241  Biso   1.000  N
  N27      1.0000 0.26568  0.38610  0.74679  Biso   1.000  N
  C148     1.0000 0.63651  0.92411  0.89212  Biso   1.000  C
  C149     1.0000 0.25287  0.50403  0.79081  Biso   1.000  C
  C150     1.0000 0.57290  0.87725  0.91181  Biso   1.000  C
  C151     1.0000 0.72653  0.91214  0.90794  Biso   1.000  C
  C152     1.0000 0.27540  0.53573  0.83915  Biso   1.000  C
  C153     1.0000 0.17665  0.53018  0.76020  Biso   1.000  C
  H131     1.0000 0.51101  0.88469  0.90151  Biso   1.000  H
  C154     1.0000 0.60017  0.82076  0.94598  Biso   1.000  C
  C155     1.0000 0.75299  0.85451  0.94203  Biso   1.000  C
  H132     1.0000 0.77018  0.94379  0.89530  Biso   1.000  H
  C156     1.0000 0.21988  0.59007  0.85769  Biso   1.000  C
  H133     1.0000 0.32847  0.52031  0.85941  Biso   1.000  H
  H134     1.0000 0.16029  0.50942  0.72711  Biso   1.000  H
  C157     1.0000 0.12525  0.58707  0.77912  Biso   1.000  C
  H135     1.0000 0.55627  0.79019  0.95939  Biso   1.000  H
  C158     1.0000 0.69090  0.80686  0.96169  Biso   1.000  C
  H136     1.0000 0.81501  0.84708  0.95230  Biso   1.000  H
  C159     1.0000 0.14464  0.61690  0.82769  Biso   1.000  C
  H137     1.0000 0.23379  0.60908  0.89151  Biso   1.000  H
  H138     1.0000 0.07497  0.60601  0.75779  Biso   1.000  H
  B8       1.0000 0.71931  0.73568  0.99451  Biso   1.000  B
  B9       1.0000 0.08818  0.68088  0.85033  Biso   1.000  B
  O33      1.0000 0.80431  0.70947  0.00102  Biso   1.000  O
  O34      1.0000 0.65963  0.69183  0.01600  Biso   1.000  O
  O35      1.0000 0.02255  0.72127  0.82222  Biso   1.000  O
  O36      1.0000 0.10278  0.70216  0.90024  Biso   1.000  O
  C160     1.0000 0.80002  0.63040  0.02022  Biso   1.000  C
  C161     1.0000 0.71062  0.63148  0.04534  Biso   1.000  C
  C162     1.0000 0.97796  0.76563  0.85903  Biso   1.000  C
  C163     1.0000 0.05260  0.77300  0.90430  Biso   1.000  C
  C164     1.0000 0.79688  0.57901  0.97314  Biso   1.000  C
  C165     1.0000 0.88359  0.61662  0.05649  Biso   1.000  C
  C166     1.0000 0.72143  0.65803  0.10104  Biso   1.000  C
  C167     1.0000 0.65747  0.55831  0.03895  Biso   1.000  C
  C168     1.0000 0.94591  0.84016  0.83478  Biso   1.000  C
  C169     1.0000 0.89927  0.71730  0.87159  Biso   1.000  C
  C170     1.0000 0.11829  0.83738  0.89837  Biso   1.000  C
  C171     1.0000 0.02041  0.77510  0.95762  Biso   1.000  C
  H139     1.0000 0.85463  0.58088  0.95920  Biso   1.000  H
  H140     1.0000 0.78451  0.52672  0.98298  Biso   1.000  H
  H141     1.0000 0.74952  0.59631  0.94709  Biso   1.000  H
  H142     1.0000 0.93578  0.61639  0.03718  Biso   1.000  H
  H143     1.0000 0.89030  0.65701  0.08231  Biso   1.000  H
  H144     1.0000 0.87901  0.56750  0.07350  Biso   1.000  H
  H145     1.0000 0.66307  0.65729  0.11429  Biso   1.000  H
  H146     1.0000 0.76259  0.62399  0.12161  Biso   1.000  H
  H147     1.0000 0.74539  0.70970  0.10292  Biso   1.000  H
  H148     1.0000 0.60298  0.56307  0.05599  Biso   1.000  H
  H149     1.0000 0.64130  0.54821  0.00240  Biso   1.000  H
  H150     1.0000 0.69391  0.51639  0.05438  Biso   1.000  H
  H151     1.0000 0.89913  0.83029  0.80651  Biso   1.000  H
  H152     1.0000 0.92162  0.87198  0.86048  Biso   1.000  H
  H153     1.0000 0.99613  0.86631  0.82172  Biso   1.000  H
  H154     1.0000 0.85471  0.71429  0.84148  Biso   1.000  H
  H155     1.0000 0.92037  0.66619  0.88128  Biso   1.000  H
  H156     1.0000 0.87220  0.74039  0.90009  Biso   1.000  H
  H157     1.0000 0.13728  0.83590  0.86389  Biso   1.000  H
  H158     1.0000 0.08928  0.88610  0.90361  Biso   1.000  H
  H159     1.0000 0.17071  0.83148  0.92380  Biso   1.000  H
  H160     1.0000 0.07193  0.78037  0.98360  Biso   1.000  H
  H161     1.0000 0.97989  0.81821  0.95981  Biso   1.000  H
  H162     1.0000 0.98872  0.72791  0.96349  Biso   1.000  H
  N28      1.0000 0.34280  0.77674  0.42760  Biso   1.000  N
  C172     1.0000 0.37788  0.77085  0.38332  Biso   1.000  C
  C173     1.0000 0.38480  0.82955  0.45928  Biso   1.000  C
  O37      1.0000 0.33224  0.72246  0.34969  Biso   1.000  O
  N29      1.0000 0.44991  0.80391  0.36995  Biso   1.000  N
  N30      1.0000 0.45808  0.86795  0.44997  Biso   1.000  N
  C174     1.0000 0.34238  0.84657  0.50612  Biso   1.000  C
  C175     1.0000 0.35337  0.72558  0.29859  Biso   1.000  C
  C176     1.0000 0.48709  0.85060  0.40619  Biso   1.000  C
  C177     1.0000 0.25588  0.82138  0.50969  Biso   1.000  C
  C178     1.0000 0.38519  0.88962  0.54500  Biso   1.000  C
  C179     1.0000 0.40222  0.66710  0.28093  Biso   1.000  C
  C180     1.0000 0.32183  0.78605  0.26810  Biso   1.000  C
  O38      1.0000 0.56454  0.88525  0.39749  Biso   1.000  O
  H163     1.0000 0.22580  0.79172  0.48291  Biso   1.000  H
  C181     1.0000 0.21357  0.83948  0.55205  Biso   1.000  C
  C182     1.0000 0.34221  0.90669  0.58798  Biso   1.000  C
  H164     1.0000 0.44400  0.90783  0.54259  Biso   1.000  H
  C183     1.0000 0.41944  0.67090  0.23056  Biso   1.000  C
  H165     1.0000 0.42303  0.62598  0.30242  Biso   1.000  H
  C184     1.0000 0.34062  0.78622  0.21799  Biso   1.000  C
  H166     1.0000 0.28843  0.82581  0.28120  Biso   1.000  H
  C185     1.0000 0.59489  0.87136  0.34904  Biso   1.000  C
  H167     1.0000 0.15402  0.82269  0.55370  Biso   1.000  H
  C186     1.0000 0.25585  0.88157  0.59227  Biso   1.000  C
  H168     1.0000 0.37259  0.93602  0.61491  Biso   1.000  H
  O39      1.0000 0.47053  0.61276  0.21075  Biso   1.000  O
  C187     1.0000 0.38874  0.72915  0.19723  Biso   1.000  C
  O40      1.0000 0.30768  0.84645  0.18609  Biso   1.000  O
  C188     1.0000 0.64479  0.80760  0.34183  Biso   1.000  C
  C189     1.0000 0.57200  0.92377  0.31042  Biso   1.000  C
  B10      1.0000 0.20457  0.90040  0.63939  Biso   1.000  B
  C190     1.0000 0.55965  0.61566  0.22470  Biso   1.000  C
  H169     1.0000 0.40009  0.72978  0.16241  Biso   1.000  H
  C191     1.0000 0.36481  0.90465  0.18153  Biso   1.000  C
  C192     1.0000 0.67099  0.79660  0.29426  Biso   1.000  C
  H170     1.0000 0.66038  0.77260  0.36892  Biso   1.000  H
  C193     1.0000 0.60075  0.90908  0.26365  Biso   1.000  C
  H171     1.0000 0.53802  0.96778  0.31609  Biso   1.000  H
  O41      1.0000 0.23970  0.93897  0.68179  Biso   1.000  O
  O42      1.0000 0.11695  0.87896  0.64092  Biso   1.000  O
  N31      1.0000 0.60372  0.55564  0.21045  Biso   1.000  N
  N32      1.0000 0.59296  0.67657  0.24994  Biso   1.000  N
  N33      1.0000 0.44551  0.90006  0.20754  Biso   1.000  N
  N34      1.0000 0.33240  0.95950  0.15069  Biso   1.000  N
  O43      1.0000 0.72327  0.73114  0.28629  Biso   1.000  O
  C194     1.0000 0.65085  0.84606  0.25339  Biso   1.000  C
  O44      1.0000 0.58050  0.96188  0.22359  Biso   1.000  O
  C195     1.0000 0.16416  0.95678  0.71121  Biso   1.000  C
  C196     1.0000 0.09647  0.89370  0.69328  Biso   1.000  C
  C197     1.0000 0.69208  0.55825  0.22596  Biso   1.000  C
  C198     1.0000 0.68147  0.67147  0.26216  Biso   1.000  C
  C199     1.0000 0.49588  0.95927  0.19899  Biso   1.000  C
  C200     1.0000 0.39224  0.01424  0.14433  Biso   1.000  C
  H172     1.0000 0.67012  0.83732  0.22071  Biso   1.000  H
  C201     1.0000 0.19767  0.95661  0.76775  Biso   1.000  C
  C202     1.0000 0.13207  0.03471  0.69386  Biso   1.000  C
  C203     1.0000 0.11313  0.81843  0.72213  Biso   1.000  C
  C204     1.0000 0.99869  0.91571  0.69186  Biso   1.000  C
  N35      1.0000 0.73428  0.61390  0.25320  Biso   1.000  N
  C205     1.0000 0.74710  0.49597  0.20922  Biso   1.000  C
  N36      1.0000 0.47553  0.01645  0.16758  Biso   1.000  N
  C206     1.0000 0.36353  0.07589  0.10791  Biso   1.000  C
  H173     1.0000 0.21778  0.90550  0.77820  Biso   1.000  H
  H174     1.0000 0.14929  0.97209  0.78751  Biso   1.000  H
  H175     1.0000 0.24777  0.99217  0.77418  Biso   1.000  H
  H176     1.0000 0.11102  0.03352  0.65720  Biso   1.000  H
  H177     1.0000 0.18151  0.07102  0.69999  Biso   1.000  H
  H178     1.0000 0.08299  0.05031  0.71309  Biso   1.000  H
  H179     1.0000 0.17632  0.80448  0.72308  Biso   1.000  H
  H180     1.0000 0.07599  0.77862  0.70451  Biso   1.000  H
  H181     1.0000 0.09758  0.82411  0.75721  Biso   1.000  H
  H182     1.0000 0.98850  0.96398  0.67371  Biso   1.000  H
  H183     1.0000 0.98321  0.92099  0.72691  Biso   1.000  H
  H184     1.0000 0.96138  0.87618  0.67401  Biso   1.000  H
  C207     1.0000 0.72464  0.46427  0.16088  Biso   1.000  C
  C208     1.0000 0.82338  0.46982  0.23979  Biso   1.000  C
  C209     1.0000 0.42713  0.12275  0.08818  Biso   1.000  C
  C210     1.0000 0.27350  0.08786  0.09205  Biso   1.000  C
  C211     1.0000 0.78016  0.40993  0.14234  Biso   1.000  C
  H185     1.0000 0.67150  0.47969  0.14062  Biso   1.000  H
  H186     1.0000 0.83968  0.49058  0.27288  Biso   1.000  H
  C212     1.0000 0.87479  0.41293  0.22090  Biso   1.000  C
  H187     1.0000 0.48902  0.11531  0.09848  Biso   1.000  H
  C213     1.0000 0.39980  0.17924  0.05405  Biso   1.000  C
  C214     1.0000 0.24698  0.14549  0.05799  Biso   1.000  C
  H188     1.0000 0.22978  0.05621  0.10469  Biso   1.000  H
  C215     1.0000 0.85539  0.38310  0.17230  Biso   1.000  C
  H189     1.0000 0.76618  0.39092  0.10852  Biso   1.000  H
  H190     1.0000 0.92500  0.39399  0.24220  Biso   1.000  H
  H191     1.0000 0.44369  0.20981  0.04060  Biso   1.000  H
  C216     1.0000 0.30907  0.19314  0.03834  Biso   1.000  C
  H192     1.0000 0.18503  0.15292  0.04769  Biso   1.000  H
  B11      1.0000 0.91179  0.31912  0.14970  Biso   1.000  B
  B12      1.0000 0.28073  0.26432  0.00548  Biso   1.000  B
  O45      1.0000 0.97748  0.27873  0.17777  Biso   1.000  O
  O46      1.0000 0.89726  0.29784  0.09975  Biso   1.000  O
  O47      1.0000 0.19566  0.29053  0.99900  Biso   1.000  O
  O48      1.0000 0.34033  0.30817  0.98399  Biso   1.000  O
  C217     1.0000 0.02201  0.23437  0.14100  Biso   1.000  C
  C218     1.0000 0.94737  0.22700  0.09569  Biso   1.000  C
  C219     1.0000 0.20002  0.36960  0.97981  Biso   1.000  C
  C220     1.0000 0.28941  0.36852  0.95465  Biso   1.000  C
  C221     1.0000 0.05412  0.15984  0.16521  Biso   1.000  C
  C222     1.0000 0.10070  0.28270  0.12840  Biso   1.000  C
  C223     1.0000 0.88167  0.16262  0.10162  Biso   1.000  C
  C224     1.0000 0.97963  0.22490  0.04240  Biso   1.000  C
  C225     1.0000 0.11637  0.38338  0.94350  Biso   1.000  C
  C226     1.0000 0.20309  0.42099  0.02685  Biso   1.000  C
  C227     1.0000 0.27861  0.34197  0.89899  Biso   1.000  C
  C228     1.0000 0.34250  0.44169  0.96104  Biso   1.000  C
  H193     1.0000 0.10091  0.16971  0.19352  Biso   1.000  H
  H194     1.0000 0.07841  0.12802  0.13951  Biso   1.000  H
  H195     1.0000 0.00391  0.13369  0.17831  Biso   1.000  H
  H196     1.0000 0.14532  0.28571  0.15851  Biso   1.000  H
  H197     1.0000 0.07960  0.33381  0.11871  Biso   1.000  H
  H198     1.0000 0.12783  0.25961  0.09990  Biso   1.000  H
  H199     1.0000 0.86268  0.16410  0.13610  Biso   1.000  H
  H200     1.0000 0.91069  0.11390  0.09641  Biso   1.000  H
  H201     1.0000 0.82932  0.16852  0.07619  Biso   1.000  H
  H202     1.0000 0.92810  0.21963  0.01639  Biso   1.000  H
  H203     1.0000 0.02007  0.18179  0.04018  Biso   1.000  H
  H204     1.0000 0.01131  0.27209  0.03650  Biso   1.000  H
  H205     1.0000 0.06418  0.38361  0.96281  Biso   1.000  H
  H206     1.0000 0.10967  0.34299  0.91768  Biso   1.000  H
  H207     1.0000 0.12103  0.43250  0.92649  Biso   1.000  H
  H208     1.0000 0.14540  0.41912  0.04079  Biso   1.000  H
  H209     1.0000 0.21552  0.47328  0.01701  Biso   1.000  H
  H210     1.0000 0.25051  0.40369  0.05290  Biso   1.000  H
  H211     1.0000 0.33689  0.34271  0.88570  Biso   1.000  H
  H212     1.0000 0.23737  0.37601  0.87838  Biso   1.000  H
  H213     1.0000 0.25459  0.29030  0.89711  Biso   1.000  H
  H214     1.0000 0.39699  0.43693  0.94400  Biso   1.000  H
  H215     1.0000 0.35867  0.45179  0.99759  Biso   1.000  H
  H216     1.0000 0.30612  0.48361  0.94561  Biso   1.000  H
