data_image0
_cell_length_a       15.431
_cell_length_b       21.027
_cell_length_c       19.043
_cell_angle_alpha    90
_cell_angle_beta     94.54
_cell_angle_gamma    90

_symmetry_space_group_name_H-M    "P 1"
_symmetry_int_tables_number       1

loop_
  _symmetry_equiv_pos_as_xyz
  'x, y, z'

loop_
  _atom_site_label
  _atom_site_occupancy
  _atom_site_fract_x
  _atom_site_fract_y
  _atom_site_fract_z
  _atom_site_thermal_displace_type
  _atom_site_B_iso_or_equiv
  _atom_site_type_symbol
  C1       1.0000 0.57203  0.41276  0.37744  Biso   1.000  C
  C2       1.0000 0.56844  0.34774  0.37791  Biso   1.000  C
  C3       1.0000 0.62030  0.44158  0.32697  Biso   1.000  C
  H1       1.0000 0.54281  0.43739  0.41010  Biso   1.000  H
  O1       1.0000 0.51976  0.31607  0.42690  Biso   1.000  O
  C4       1.0000 0.61429  0.31122  0.33314  Biso   1.000  C
  O2       1.0000 0.62497  0.50901  0.32434  Biso   1.000  O
  C5       1.0000 0.66585  0.40700  0.28109  Biso   1.000  C
  C6       1.0000 0.44245  0.29315  0.40235  Biso   1.000  C
  C7       1.0000 0.66183  0.34218  0.28578  Biso   1.000  C
  H2       1.0000 0.61287  0.26609  0.33519  Biso   1.000  H
  C8       1.0000 0.56103  0.53945  0.28409  Biso   1.000  C
  H3       1.0000 0.69891  0.42721  0.24738  Biso   1.000  H
  N1       1.0000 0.40854  0.31250  0.33983  Biso   1.000  N
  N2       1.0000 0.40747  0.25139  0.44429  Biso   1.000  N
  O3       1.0000 0.71058  0.30375  0.24079  Biso   1.000  O
  N3       1.0000 0.50002  0.50345  0.25001  Biso   1.000  N
  N4       1.0000 0.56748  0.60204  0.28509  Biso   1.000  N
  C9       1.0000 0.33155  0.28734  0.32118  Biso   1.000  C
  C10      1.0000 0.32888  0.22828  0.41921  Biso   1.000  C
  C11      1.0000 0.66843  0.28734  0.17879  Biso   1.000  C
  C12      1.0000 0.43895  0.53945  0.21593  Biso   1.000  C
  C13      1.0000 0.50002  0.63067  0.25001  Biso   1.000  C
  O4       1.0000 0.28946  0.30375  0.25918  Biso   1.000  O
  N5       1.0000 0.28767  0.24497  0.35763  Biso   1.000  N
  C14      1.0000 0.28691  0.18167  0.46262  Biso   1.000  C
  N6       1.0000 0.59144  0.31250  0.16019  Biso   1.000  N
  N7       1.0000 0.71230  0.24497  0.14234  Biso   1.000  N
  O5       1.0000 0.37501  0.50901  0.17563  Biso   1.000  O
  N8       1.0000 0.43250  0.60204  0.21493  Biso   1.000  N
  C15      1.0000 0.50002  0.70210  0.25001  Biso   1.000  C
  C16      1.0000 0.33814  0.34218  0.21419  Biso   1.000  C
  C17      1.0000 0.20833  0.15323  0.43638  Biso   1.000  C
  C18      1.0000 0.32415  0.16251  0.52868  Biso   1.000  C
  C19      1.0000 0.55759  0.29315  0.09761  Biso   1.000  C
  C20      1.0000 0.67110  0.22828  0.08081  Biso   1.000  C
  C21      1.0000 0.37968  0.44158  0.17305  Biso   1.000  C
  C22      1.0000 0.42326  0.73558  0.23047  Biso   1.000  C
  C23      1.0000 0.57672  0.73558  0.26955  Biso   1.000  C
  C24      1.0000 0.33413  0.40700  0.21893  Biso   1.000  C
  C25      1.0000 0.38568  0.31122  0.16683  Biso   1.000  C
  H4       1.0000 0.18072  0.16669  0.39250  Biso   1.000  H
  C26      1.0000 0.17031  0.10477  0.47505  Biso   1.000  C
  C27      1.0000 0.28672  0.11561  0.56618  Biso   1.000  C
  H5       1.0000 0.37611  0.18229  0.54780  Biso   1.000  H
  O6       1.0000 0.48022  0.31607  0.07312  Biso   1.000  O
  N9       1.0000 0.59250  0.25139  0.05568  Biso   1.000  N
  C28      1.0000 0.71313  0.18167  0.03740  Biso   1.000  C
  C29      1.0000 0.42795  0.41276  0.12258  Biso   1.000  C
  H6       1.0000 0.37110  0.71308  0.21719  Biso   1.000  H
  C30      1.0000 0.42353  0.80206  0.23052  Biso   1.000  C
  H7       1.0000 0.62888  0.71308  0.28278  Biso   1.000  H
  C31      1.0000 0.57645  0.80206  0.26950  Biso   1.000  C
  H8       1.0000 0.30113  0.42721  0.25259  Biso   1.000  H
  C32      1.0000 0.43153  0.34774  0.12205  Biso   1.000  C
  H9       1.0000 0.38710  0.26609  0.16478  Biso   1.000  H
  H10      1.0000 0.11812  0.08470  0.45688  Biso   1.000  H
  C33      1.0000 0.20978  0.08689  0.53942  Biso   1.000  C
  H11      1.0000 0.31329  0.10268  0.61059  Biso   1.000  H
  C34      1.0000 0.79171  0.15323  0.06358  Biso   1.000  C
  C35      1.0000 0.67583  0.16251  0.97134  Biso   1.000  C
  H12      1.0000 0.45723  0.43739  0.08992  Biso   1.000  H
  H13      1.0000 0.37169  0.82499  0.21730  Biso   1.000  H
  C36      1.0000 0.50002  0.83431  0.25001  Biso   1.000  C
  H14      1.0000 0.62829  0.82499  0.28272  Biso   1.000  H
  C37      1.0000 0.17146  0.03334  0.57898  Biso   1.000  C
  H15      1.0000 0.81933  0.16669  0.10752  Biso   1.000  H
  C38      1.0000 0.82966  0.10477  0.02492  Biso   1.000  C
  C39      1.0000 0.71332  0.11561  0.93378  Biso   1.000  C
  H16      1.0000 0.62387  0.18229  0.95222  Biso   1.000  H
  C40      1.0000 0.50002  0.90631  0.25001  Biso   1.000  C
  O7       1.0000 0.10024  0.00875  0.54785  Biso   1.000  O
  O8       1.0000 0.20728  0.01389  0.63593  Biso   1.000  O
  H17      1.0000 0.88192  0.08470  0.04309  Biso   1.000  H
  C41      1.0000 0.79027  0.08689  0.96060  Biso   1.000  C
  H18      1.0000 0.68669  0.10268  0.88938  Biso   1.000  H
  O9       1.0000 0.42998  0.93347  0.22957  Biso   1.000  O
  O10      1.0000 0.57006  0.93347  0.27045  Biso   1.000  O
  H19      1.0000 0.08242  0.97351  0.56181  Biso   1.000  H
  C42      1.0000 0.82858  0.03334  0.92098  Biso   1.000  C
  H20      1.0000 0.42758  0.97318  0.22488  Biso   1.000  H
  H21      1.0000 0.57240  0.97318  0.27508  Biso   1.000  H
  O11      1.0000 0.89974  0.00875  0.95217  Biso   1.000  O
  O12      1.0000 0.79269  0.01389  0.86404  Biso   1.000  O
  H22      1.0000 0.91762  0.97351  0.93821  Biso   1.000  H
  C43      1.0000 0.42800  0.58724  0.62260  Biso   1.000  C
  C44      1.0000 0.37966  0.55842  0.67301  Biso   1.000  C
  H23      1.0000 0.45721  0.56261  0.58989  Biso   1.000  H
  C45      1.0000 0.43151  0.65226  0.62207  Biso   1.000  C
  O13      1.0000 0.37499  0.49099  0.67565  Biso   1.000  O
  C46      1.0000 0.33411  0.59300  0.71890  Biso   1.000  C
  C47      1.0000 0.38573  0.68878  0.66685  Biso   1.000  C
  O14      1.0000 0.48020  0.68393  0.57314  Biso   1.000  O
  C48      1.0000 0.43893  0.46055  0.71589  Biso   1.000  C
  C49      1.0000 0.33812  0.65782  0.71421  Biso   1.000  C
  H24      1.0000 0.30111  0.57279  0.75261  Biso   1.000  H
  H25      1.0000 0.38708  0.73391  0.66480  Biso   1.000  H
  C50      1.0000 0.55757  0.70685  0.59763  Biso   1.000  C
  N10      1.0000 0.43255  0.39796  0.71495  Biso   1.000  N
  N11      1.0000 0.50000  0.49655  0.74998  Biso   1.000  N
  O15      1.0000 0.28944  0.69625  0.75920  Biso   1.000  O
  N12      1.0000 0.59141  0.68750  0.66016  Biso   1.000  N
  N13      1.0000 0.59248  0.74861  0.55570  Biso   1.000  N
  C51      1.0000 0.50000  0.36933  0.74998  Biso   1.000  C
  C52      1.0000 0.56107  0.46055  0.78406  Biso   1.000  C
  C53      1.0000 0.33159  0.71266  0.82120  Biso   1.000  C
  C54      1.0000 0.66841  0.71266  0.67881  Biso   1.000  C
  C55      1.0000 0.67115  0.77172  0.58083  Biso   1.000  C
  C56      1.0000 0.50000  0.29790  0.74998  Biso   1.000  C
  N14      1.0000 0.56745  0.39796  0.78506  Biso   1.000  N
  O16      1.0000 0.62495  0.49099  0.82436  Biso   1.000  O
  N15      1.0000 0.40859  0.68750  0.83985  Biso   1.000  N
  N16      1.0000 0.28772  0.75503  0.85765  Biso   1.000  N
  O17      1.0000 0.71056  0.69625  0.74081  Biso   1.000  O
  N17      1.0000 0.71228  0.75503  0.64236  Biso   1.000  N
  C57      1.0000 0.71311  0.81833  0.53737  Biso   1.000  C
  C58      1.0000 0.42325  0.26442  0.73049  Biso   1.000  C
  C59      1.0000 0.57676  0.26442  0.76952  Biso   1.000  C
  C60      1.0000 0.62035  0.55842  0.82699  Biso   1.000  C
  C61      1.0000 0.44243  0.70685  0.90237  Biso   1.000  C
  C62      1.0000 0.32885  0.77172  0.91918  Biso   1.000  C
  C63      1.0000 0.66188  0.65782  0.78580  Biso   1.000  C
  C64      1.0000 0.79169  0.84677  0.56360  Biso   1.000  C
  C65      1.0000 0.67581  0.83749  0.47131  Biso   1.000  C
  H26      1.0000 0.37108  0.28692  0.71721  Biso   1.000  H
  C66      1.0000 0.42357  0.19794  0.73049  Biso   1.000  C
  H27      1.0000 0.62893  0.28692  0.78280  Biso   1.000  H
  C67      1.0000 0.57643  0.19794  0.76952  Biso   1.000  C
  C68      1.0000 0.66589  0.59300  0.78111  Biso   1.000  C
  C69      1.0000 0.57200  0.58724  0.87741  Biso   1.000  C
  O18      1.0000 0.51981  0.68393  0.92687  Biso   1.000  O
  N18      1.0000 0.40752  0.74861  0.94431  Biso   1.000  N
  C70      1.0000 0.28689  0.81833  0.96264  Biso   1.000  C
  C71      1.0000 0.61427  0.68878  0.83316  Biso   1.000  C
  H28      1.0000 0.81930  0.83331  0.60748  Biso   1.000  H
  C72      1.0000 0.82965  0.89523  0.52494  Biso   1.000  C
  C73      1.0000 0.71330  0.88439  0.43380  Biso   1.000  C
  H29      1.0000 0.62391  0.81771  0.45219  Biso   1.000  H
  C74      1.0000 0.50000  0.16569  0.74998  Biso   1.000  C
  H30      1.0000 0.37167  0.17501  0.71732  Biso   1.000  H
  H31      1.0000 0.62827  0.17501  0.78269  Biso   1.000  H
  H32      1.0000 0.69889  0.57279  0.74740  Biso   1.000  H
  H33      1.0000 0.54279  0.56261  0.91012  Biso   1.000  H
  C75      1.0000 0.56849  0.65226  0.87793  Biso   1.000  C
  C76      1.0000 0.20831  0.84677  0.93640  Biso   1.000  C
  C77      1.0000 0.32419  0.83749  0.02864  Biso   1.000  C
  H34      1.0000 0.61292  0.73391  0.83521  Biso   1.000  H
  H35      1.0000 0.88190  0.91530  0.54311  Biso   1.000  H
  C78      1.0000 0.79025  0.91311  0.46062  Biso   1.000  C
  H36      1.0000 0.68673  0.89732  0.38940  Biso   1.000  H
  C79      1.0000 0.50000  0.09369  0.74998  Biso   1.000  C
  H37      1.0000 0.18070  0.83331  0.89252  Biso   1.000  H
  C80      1.0000 0.17036  0.89523  0.97507  Biso   1.000  C
  C81      1.0000 0.28670  0.88439  0.06620  Biso   1.000  C
  H38      1.0000 0.37609  0.81771  0.04782  Biso   1.000  H
  C82      1.0000 0.82857  0.96666  0.42100  Biso   1.000  C
  O19      1.0000 0.57004  0.06653  0.77042  Biso   1.000  O
  O20      1.0000 0.42996  0.06653  0.72959  Biso   1.000  O
  H39      1.0000 0.11810  0.91530  0.95690  Biso   1.000  H
  C83      1.0000 0.20975  0.91311  0.03939  Biso   1.000  C
  H40      1.0000 0.31327  0.89732  0.11061  Biso   1.000  H
  O21      1.0000 0.89978  0.99125  0.45214  Biso   1.000  O
  O22      1.0000 0.79274  0.98611  0.36406  Biso   1.000  O
  H41      1.0000 0.57238  0.02682  0.77510  Biso   1.000  H
  H42      1.0000 0.42762  0.02682  0.72490  Biso   1.000  H
  C84      1.0000 0.17144  0.96666  0.07900  Biso   1.000  C
  H43      1.0000 0.91760  0.02649  0.43818  Biso   1.000  H
  O23      1.0000 0.10022  0.99125  0.04782  Biso   1.000  O
  O24      1.0000 0.20726  0.98611  0.13595  Biso   1.000  O
  H44      1.0000 0.08240  0.02649  0.06178  Biso   1.000  H
  O25      1.0000 0.78941  0.19627  0.75920  Biso   1.000  O
  C85      1.0000 0.83815  0.15784  0.71421  Biso   1.000  C
  C86      1.0000 0.83156  0.21268  0.82120  Biso   1.000  C
  C87      1.0000 0.88570  0.18876  0.66685  Biso   1.000  C
  C88      1.0000 0.83414  0.09302  0.71890  Biso   1.000  C
  N19      1.0000 0.90856  0.18752  0.83985  Biso   1.000  N
  N20      1.0000 0.78769  0.25501  0.85765  Biso   1.000  N
  C89      1.0000 0.93155  0.15228  0.62207  Biso   1.000  C
  H45      1.0000 0.88712  0.23389  0.66480  Biso   1.000  H
  H46      1.0000 0.80108  0.07281  0.75261  Biso   1.000  H
  C90      1.0000 0.87969  0.05845  0.67301  Biso   1.000  C
  C91      1.0000 0.94247  0.20683  0.90237  Biso   1.000  C
  C92      1.0000 0.82888  0.27170  0.91918  Biso   1.000  C
  O26      1.0000 0.98023  0.18395  0.57314  Biso   1.000  O
  C93      1.0000 0.92797  0.08727  0.62260  Biso   1.000  C
  O27      1.0000 0.87502  0.99101  0.67565  Biso   1.000  O
  N21      1.0000 0.90748  0.24863  0.94431  Biso   1.000  N
  O28      1.0000 0.01977  0.18395  0.92687  Biso   1.000  O
  C94      1.0000 0.78686  0.31835  0.96264  Biso   1.000  C
  C95      1.0000 0.05754  0.20683  0.59763  Biso   1.000  C
  H47      1.0000 0.95718  0.06259  0.58989  Biso   1.000  H
  C96      1.0000 0.93896  0.96057  0.71589  Biso   1.000  C
  C97      1.0000 0.06846  0.15228  0.87793  Biso   1.000  C
  C98      1.0000 0.70828  0.34679  0.93640  Biso   1.000  C
  C99      1.0000 0.82415  0.33747  0.02864  Biso   1.000  C
  N22      1.0000 0.09145  0.18752  0.66016  Biso   1.000  N
  N23      1.0000 0.09252  0.24863  0.55570  Biso   1.000  N
  N24      1.0000 0.99997  0.99653  0.74998  Biso   1.000  N
  N25      1.0000 0.93252  0.89799  0.71495  Biso   1.000  N
  C100     1.0000 0.07203  0.08727  0.87741  Biso   1.000  C
  C101     1.0000 0.11431  0.18876  0.83316  Biso   1.000  C
  H48      1.0000 0.68073  0.33329  0.89252  Biso   1.000  H
  C102     1.0000 0.67032  0.39525  0.97507  Biso   1.000  C
  C103     1.0000 0.78674  0.38436  0.06620  Biso   1.000  C
  H49      1.0000 0.87612  0.31769  0.04782  Biso   1.000  H
  C104     1.0000 0.16844  0.21268  0.67881  Biso   1.000  C
  C105     1.0000 0.17112  0.27170  0.58083  Biso   1.000  C
  C106     1.0000 0.06104  0.96057  0.78406  Biso   1.000  C
  C107     1.0000 0.99997  0.86936  0.74998  Biso   1.000  C
  C108     1.0000 0.12031  0.05845  0.82699  Biso   1.000  C
  H50      1.0000 0.04283  0.06259  0.91012  Biso   1.000  H
  C109     1.0000 0.16185  0.15784  0.78580  Biso   1.000  C
  H51      1.0000 0.11289  0.23389  0.83521  Biso   1.000  H
  H52      1.0000 0.61813  0.41532  0.95690  Biso   1.000  H
  C110     1.0000 0.70979  0.41314  0.03939  Biso   1.000  C
  H53      1.0000 0.81330  0.39730  0.11061  Biso   1.000  H
  O29      1.0000 0.21059  0.19627  0.74081  Biso   1.000  O
  N26      1.0000 0.21232  0.25501  0.64236  Biso   1.000  N
  C111     1.0000 0.21308  0.31835  0.53737  Biso   1.000  C
  O30      1.0000 0.12498  0.99101  0.82436  Biso   1.000  O
  N27      1.0000 0.06748  0.89799  0.78506  Biso   1.000  N
  C112     1.0000 0.99997  0.79788  0.74998  Biso   1.000  C
  C113     1.0000 0.16586  0.09302  0.78111  Biso   1.000  C
  C114     1.0000 0.67140  0.46669  0.07900  Biso   1.000  C
  C115     1.0000 0.29172  0.34679  0.56360  Biso   1.000  C
  C116     1.0000 0.17584  0.33747  0.47131  Biso   1.000  C
  C117     1.0000 0.92328  0.76445  0.73049  Biso   1.000  C
  C118     1.0000 0.07672  0.76445  0.76952  Biso   1.000  C
  H54      1.0000 0.19892  0.07281  0.74740  Biso   1.000  H
  O31      1.0000 0.60025  0.49127  0.04782  Biso   1.000  O
  O32      1.0000 0.70730  0.48614  0.13595  Biso   1.000  O
  H55      1.0000 0.31927  0.33329  0.60748  Biso   1.000  H
  C119     1.0000 0.32968  0.39525  0.52494  Biso   1.000  C
  C120     1.0000 0.21327  0.38436  0.43380  Biso   1.000  C
  H56      1.0000 0.12388  0.31769  0.45219  Biso   1.000  H
  H57      1.0000 0.87111  0.78689  0.71721  Biso   1.000  H
  C121     1.0000 0.92354  0.69791  0.73049  Biso   1.000  C
  H58      1.0000 0.12889  0.78689  0.78280  Biso   1.000  H
  C122     1.0000 0.07647  0.69791  0.76952  Biso   1.000  C
  H59      1.0000 0.58243  0.52651  0.06178  Biso   1.000  H
  H60      1.0000 0.38187  0.41532  0.54311  Biso   1.000  H
  C123     1.0000 0.29022  0.41314  0.46062  Biso   1.000  C
  H61      1.0000 0.18670  0.39730  0.38940  Biso   1.000  H
  C124     1.0000 0.99997  0.66567  0.74998  Biso   1.000  C
  H62      1.0000 0.87170  0.67499  0.71732  Biso   1.000  H
  H63      1.0000 0.12830  0.67499  0.78269  Biso   1.000  H
  C125     1.0000 0.32860  0.46669  0.42100  Biso   1.000  C
  C126     1.0000 0.99997  0.59371  0.74998  Biso   1.000  C
  O33      1.0000 0.39975  0.49127  0.45214  Biso   1.000  O
  O34      1.0000 0.29271  0.48614  0.36406  Biso   1.000  O
  O35      1.0000 0.92999  0.56656  0.72959  Biso   1.000  O
  O36      1.0000 0.07001  0.56656  0.77042  Biso   1.000  O
  H64      1.0000 0.41757  0.52651  0.43818  Biso   1.000  H
  H65      1.0000 0.92759  0.52680  0.72490  Biso   1.000  H
  H66      1.0000 0.07241  0.52680  0.77510  Biso   1.000  H
  O37      1.0000 0.78941  0.19627  0.75920  Biso   1.000  O
  C127     1.0000 0.83815  0.15784  0.71421  Biso   1.000  C
  C128     1.0000 0.83156  0.21268  0.82120  Biso   1.000  C
  C129     1.0000 0.88570  0.18876  0.66685  Biso   1.000  C
  C130     1.0000 0.83414  0.09302  0.71890  Biso   1.000  C
  N28      1.0000 0.90856  0.18752  0.83985  Biso   1.000  N
  N29      1.0000 0.78769  0.25501  0.85765  Biso   1.000  N
  C131     1.0000 0.93155  0.15228  0.62207  Biso   1.000  C
  H67      1.0000 0.88712  0.23389  0.66480  Biso   1.000  H
  H68      1.0000 0.80108  0.07281  0.75261  Biso   1.000  H
  C132     1.0000 0.87969  0.05845  0.67301  Biso   1.000  C
  C133     1.0000 0.94247  0.20683  0.90237  Biso   1.000  C
  C134     1.0000 0.82888  0.27170  0.91918  Biso   1.000  C
  O38      1.0000 0.98023  0.18395  0.57314  Biso   1.000  O
  C135     1.0000 0.92797  0.08727  0.62260  Biso   1.000  C
  O39      1.0000 0.87502  0.99101  0.67565  Biso   1.000  O
  N30      1.0000 0.90748  0.24863  0.94431  Biso   1.000  N
  O40      1.0000 0.01977  0.18395  0.92687  Biso   1.000  O
  C136     1.0000 0.78686  0.31835  0.96264  Biso   1.000  C
  C137     1.0000 0.05754  0.20683  0.59763  Biso   1.000  C
  H69      1.0000 0.95718  0.06259  0.58989  Biso   1.000  H
  C138     1.0000 0.93896  0.96057  0.71589  Biso   1.000  C
  C139     1.0000 0.06846  0.15228  0.87793  Biso   1.000  C
  C140     1.0000 0.70828  0.34679  0.93640  Biso   1.000  C
  C141     1.0000 0.82415  0.33747  0.02864  Biso   1.000  C
  N31      1.0000 0.09145  0.18752  0.66016  Biso   1.000  N
  N32      1.0000 0.09252  0.24863  0.55570  Biso   1.000  N
  N33      1.0000 0.99997  0.99653  0.74998  Biso   1.000  N
  N34      1.0000 0.93252  0.89799  0.71495  Biso   1.000  N
  C142     1.0000 0.07203  0.08727  0.87741  Biso   1.000  C
  C143     1.0000 0.11431  0.18876  0.83316  Biso   1.000  C
  H70      1.0000 0.68073  0.33329  0.89252  Biso   1.000  H
  C144     1.0000 0.67032  0.39525  0.97507  Biso   1.000  C
  C145     1.0000 0.78674  0.38436  0.06620  Biso   1.000  C
  H71      1.0000 0.87612  0.31769  0.04782  Biso   1.000  H
  C146     1.0000 0.16844  0.21268  0.67881  Biso   1.000  C
  C147     1.0000 0.17112  0.27170  0.58083  Biso   1.000  C
  C148     1.0000 0.06104  0.96057  0.78406  Biso   1.000  C
  C149     1.0000 0.99997  0.86936  0.74998  Biso   1.000  C
  C150     1.0000 0.12031  0.05845  0.82699  Biso   1.000  C
  H72      1.0000 0.04283  0.06259  0.91012  Biso   1.000  H
  C151     1.0000 0.16185  0.15784  0.78580  Biso   1.000  C
  H73      1.0000 0.11289  0.23389  0.83521  Biso   1.000  H
  H74      1.0000 0.61813  0.41532  0.95690  Biso   1.000  H
  C152     1.0000 0.70979  0.41314  0.03939  Biso   1.000  C
  H75      1.0000 0.81330  0.39730  0.11061  Biso   1.000  H
  O41      1.0000 0.21059  0.19627  0.74081  Biso   1.000  O
  N35      1.0000 0.21232  0.25501  0.64236  Biso   1.000  N
  C153     1.0000 0.21308  0.31835  0.53737  Biso   1.000  C
  O42      1.0000 0.12498  0.99101  0.82436  Biso   1.000  O
  N36      1.0000 0.06748  0.89799  0.78506  Biso   1.000  N
  C154     1.0000 0.99997  0.79788  0.74998  Biso   1.000  C
  C155     1.0000 0.16586  0.09302  0.78111  Biso   1.000  C
  C156     1.0000 0.67140  0.46669  0.07900  Biso   1.000  C
  C157     1.0000 0.29172  0.34679  0.56360  Biso   1.000  C
  C158     1.0000 0.17584  0.33747  0.47131  Biso   1.000  C
  C159     1.0000 0.92328  0.76445  0.73049  Biso   1.000  C
  C160     1.0000 0.07672  0.76445  0.76952  Biso   1.000  C
  H76      1.0000 0.19892  0.07281  0.74740  Biso   1.000  H
  O43      1.0000 0.60025  0.49127  0.04782  Biso   1.000  O
  O44      1.0000 0.70730  0.48614  0.13595  Biso   1.000  O
  H77      1.0000 0.31927  0.33329  0.60748  Biso   1.000  H
  C161     1.0000 0.32968  0.39525  0.52494  Biso   1.000  C
  C162     1.0000 0.21327  0.38436  0.43380  Biso   1.000  C
  H78      1.0000 0.12388  0.31769  0.45219  Biso   1.000  H
  H79      1.0000 0.87111  0.78689  0.71721  Biso   1.000  H
  C163     1.0000 0.92354  0.69791  0.73049  Biso   1.000  C
  H80      1.0000 0.12889  0.78689  0.78280  Biso   1.000  H
  C164     1.0000 0.07647  0.69791  0.76952  Biso   1.000  C
  H81      1.0000 0.58243  0.52651  0.06178  Biso   1.000  H
  H82      1.0000 0.38187  0.41532  0.54311  Biso   1.000  H
  C165     1.0000 0.29022  0.41314  0.46062  Biso   1.000  C
  H83      1.0000 0.18670  0.39730  0.38940  Biso   1.000  H
  C166     1.0000 0.99997  0.66567  0.74998  Biso   1.000  C
  H84      1.0000 0.87170  0.67499  0.71732  Biso   1.000  H
  H85      1.0000 0.12830  0.67499  0.78269  Biso   1.000  H
  C167     1.0000 0.32860  0.46669  0.42100  Biso   1.000  C
  C168     1.0000 0.99997  0.59371  0.74998  Biso   1.000  C
  O45      1.0000 0.39975  0.49127  0.45214  Biso   1.000  O
  O46      1.0000 0.29271  0.48614  0.36406  Biso   1.000  O
  O47      1.0000 0.92999  0.56656  0.72959  Biso   1.000  O
  O48      1.0000 0.07001  0.56656  0.77042  Biso   1.000  O
  H86      1.0000 0.41757  0.52651  0.43818  Biso   1.000  H
  H87      1.0000 0.92759  0.52680  0.72490  Biso   1.000  H
  H88      1.0000 0.07241  0.52680  0.77510  Biso   1.000  H
  O49      1.0000 0.21055  0.80373  0.24079  Biso   1.000  O
  C169     1.0000 0.16846  0.78732  0.17879  Biso   1.000  C
  C170     1.0000 0.16187  0.84216  0.28578  Biso   1.000  C
  N37      1.0000 0.21227  0.74499  0.14234  Biso   1.000  N
  N38      1.0000 0.09147  0.81248  0.16019  Biso   1.000  N
  C171     1.0000 0.16588  0.90698  0.28109  Biso   1.000  C
  C172     1.0000 0.11433  0.81124  0.33314  Biso   1.000  C
  C173     1.0000 0.17114  0.72830  0.08081  Biso   1.000  C
  C174     1.0000 0.05756  0.79317  0.09761  Biso   1.000  C
  H89      1.0000 0.19888  0.92719  0.24738  Biso   1.000  H
  C175     1.0000 0.12033  0.94155  0.32697  Biso   1.000  C
  C176     1.0000 0.06848  0.84772  0.37791  Biso   1.000  C
  H90      1.0000 0.11291  0.76611  0.33519  Biso   1.000  H
  C177     1.0000 0.21310  0.68165  0.03740  Biso   1.000  C
  N39      1.0000 0.09254  0.75137  0.05568  Biso   1.000  N
  O50      1.0000 0.98025  0.81605  0.07312  Biso   1.000  O
  C178     1.0000 0.07199  0.91273  0.37744  Biso   1.000  C
  O51      1.0000 0.12500  0.00899  0.32434  Biso   1.000  O
  O52      1.0000 0.01980  0.81605  0.42690  Biso   1.000  O
  C179     1.0000 0.29168  0.65321  0.06358  Biso   1.000  C
  C180     1.0000 0.17587  0.66253  0.97134  Biso   1.000  C
  C181     1.0000 0.93150  0.84772  0.12205  Biso   1.000  C
  H91      1.0000 0.04278  0.93741  0.41010  Biso   1.000  H
  C182     1.0000 0.06106  0.03943  0.28409  Biso   1.000  C
  C183     1.0000 0.94242  0.79317  0.40235  Biso   1.000  C
  C184     1.0000 0.32970  0.60475  0.02492  Biso   1.000  C
  H92      1.0000 0.31930  0.66671  0.10752  Biso   1.000  H
  C185     1.0000 0.21328  0.61564  0.93378  Biso   1.000  C
  H93      1.0000 0.12391  0.68231  0.95222  Biso   1.000  H
  C186     1.0000 0.92799  0.91273  0.12258  Biso   1.000  C
  C187     1.0000 0.88572  0.81124  0.16683  Biso   1.000  C
  N40      1.0000 0.99999  0.00347  0.25001  Biso   1.000  N
  N41      1.0000 0.06744  0.10201  0.28509  Biso   1.000  N
  N42      1.0000 0.90858  0.81248  0.33983  Biso   1.000  N
  N43      1.0000 0.90750  0.75137  0.44429  Biso   1.000  N
  H94      1.0000 0.38189  0.58468  0.04309  Biso   1.000  H
  C188     1.0000 0.29023  0.58686  0.96060  Biso   1.000  C
  H95      1.0000 0.18672  0.60270  0.88938  Biso   1.000  H
  C189     1.0000 0.87971  0.94155  0.17305  Biso   1.000  C
  H96      1.0000 0.95720  0.93741  0.08992  Biso   1.000  H
  C190     1.0000 0.83817  0.84216  0.21419  Biso   1.000  C
  H97      1.0000 0.88707  0.76611  0.16478  Biso   1.000  H
  C191     1.0000 0.93892  0.03943  0.21593  Biso   1.000  C
  C192     1.0000 0.99999  0.13064  0.25001  Biso   1.000  C
  C193     1.0000 0.83158  0.78732  0.32118  Biso   1.000  C
  C194     1.0000 0.82884  0.72830  0.41921  Biso   1.000  C
  C195     1.0000 0.32855  0.53331  0.92098  Biso   1.000  C
  C196     1.0000 0.83410  0.90698  0.21893  Biso   1.000  C
  O53      1.0000 0.87504  0.00899  0.17563  Biso   1.000  O
  O54      1.0000 0.78943  0.80373  0.25918  Biso   1.000  O
  N44      1.0000 0.93254  0.10201  0.21493  Biso   1.000  N
  C197     1.0000 0.99999  0.20212  0.25001  Biso   1.000  C
  N45      1.0000 0.78770  0.74499  0.35763  Biso   1.000  N
  C198     1.0000 0.78688  0.68165  0.46262  Biso   1.000  C
  O55      1.0000 0.39977  0.50873  0.95217  Biso   1.000  O
  O56      1.0000 0.29273  0.51386  0.86404  Biso   1.000  O
  H98      1.0000 0.80110  0.92719  0.25259  Biso   1.000  H
  C199     1.0000 0.92323  0.23555  0.23047  Biso   1.000  C
  C200     1.0000 0.07675  0.23555  0.26955  Biso   1.000  C
  C201     1.0000 0.70830  0.65321  0.43638  Biso   1.000  C
  C202     1.0000 0.82418  0.66253  0.52868  Biso   1.000  C
  H99      1.0000 0.41759  0.47349  0.93821  Biso   1.000  H
  H100     1.0000 0.87113  0.21311  0.21719  Biso   1.000  H
  C203     1.0000 0.92356  0.30209  0.23052  Biso   1.000  C
  H101     1.0000 0.12891  0.21311  0.28278  Biso   1.000  H
  C204     1.0000 0.07648  0.30209  0.26950  Biso   1.000  C
  H102     1.0000 0.68068  0.66671  0.39250  Biso   1.000  H
  C205     1.0000 0.67034  0.60475  0.47505  Biso   1.000  C
  C206     1.0000 0.78669  0.61564  0.56618  Biso   1.000  C
  H103     1.0000 0.87608  0.68231  0.54780  Biso   1.000  H
  H104     1.0000 0.87172  0.32501  0.21730  Biso   1.000  H
  C207     1.0000 0.99999  0.33433  0.25001  Biso   1.000  C
  H105     1.0000 0.12832  0.32501  0.28272  Biso   1.000  H
  H106     1.0000 0.61809  0.58468  0.45688  Biso   1.000  H
  C208     1.0000 0.70975  0.58686  0.53942  Biso   1.000  C
  H107     1.0000 0.81332  0.60270  0.61059  Biso   1.000  H
  C209     1.0000 0.99999  0.40629  0.25001  Biso   1.000  C
  C210     1.0000 0.67142  0.53331  0.57898  Biso   1.000  C
  O57      1.0000 0.92995  0.43344  0.22957  Biso   1.000  O
  O58      1.0000 0.07003  0.43344  0.27045  Biso   1.000  O
  O59      1.0000 0.60027  0.50873  0.54785  Biso   1.000  O
  O60      1.0000 0.70731  0.51386  0.63593  Biso   1.000  O
  H108     1.0000 0.92761  0.47320  0.22488  Biso   1.000  H
  H109     1.0000 0.07243  0.47320  0.27508  Biso   1.000  H
  H110     1.0000 0.58239  0.47349  0.56181  Biso   1.000  H
  O61      1.0000 0.21055  0.80373  0.24079  Biso   1.000  O
  C211     1.0000 0.16846  0.78732  0.17879  Biso   1.000  C
  C212     1.0000 0.16187  0.84216  0.28578  Biso   1.000  C
  N46      1.0000 0.21227  0.74499  0.14234  Biso   1.000  N
  N47      1.0000 0.09147  0.81248  0.16019  Biso   1.000  N
  C213     1.0000 0.16588  0.90698  0.28109  Biso   1.000  C
  C214     1.0000 0.11433  0.81124  0.33314  Biso   1.000  C
  C215     1.0000 0.17114  0.72830  0.08081  Biso   1.000  C
  C216     1.0000 0.05756  0.79317  0.09761  Biso   1.000  C
  H111     1.0000 0.19888  0.92719  0.24738  Biso   1.000  H
  C217     1.0000 0.12033  0.94155  0.32697  Biso   1.000  C
  C218     1.0000 0.06848  0.84772  0.37791  Biso   1.000  C
  H112     1.0000 0.11291  0.76611  0.33519  Biso   1.000  H
  C219     1.0000 0.21310  0.68165  0.03740  Biso   1.000  C
  N48      1.0000 0.09254  0.75137  0.05568  Biso   1.000  N
  O62      1.0000 0.98025  0.81605  0.07312  Biso   1.000  O
  C220     1.0000 0.07199  0.91273  0.37744  Biso   1.000  C
  O63      1.0000 0.12500  0.00899  0.32434  Biso   1.000  O
  O64      1.0000 0.01980  0.81605  0.42690  Biso   1.000  O
  C221     1.0000 0.29168  0.65321  0.06358  Biso   1.000  C
  C222     1.0000 0.17587  0.66253  0.97134  Biso   1.000  C
  C223     1.0000 0.93150  0.84772  0.12205  Biso   1.000  C
  H113     1.0000 0.04278  0.93741  0.41010  Biso   1.000  H
  C224     1.0000 0.06106  0.03943  0.28409  Biso   1.000  C
  C225     1.0000 0.94242  0.79317  0.40235  Biso   1.000  C
  C226     1.0000 0.32970  0.60475  0.02492  Biso   1.000  C
  H114     1.0000 0.31930  0.66671  0.10752  Biso   1.000  H
  C227     1.0000 0.21328  0.61564  0.93378  Biso   1.000  C
  H115     1.0000 0.12391  0.68231  0.95222  Biso   1.000  H
  C228     1.0000 0.92799  0.91273  0.12258  Biso   1.000  C
  C229     1.0000 0.88572  0.81124  0.16683  Biso   1.000  C
  N49      1.0000 0.99999  0.00347  0.25001  Biso   1.000  N
  N50      1.0000 0.06744  0.10201  0.28509  Biso   1.000  N
  N51      1.0000 0.90858  0.81248  0.33983  Biso   1.000  N
  N52      1.0000 0.90750  0.75137  0.44429  Biso   1.000  N
  H116     1.0000 0.38189  0.58468  0.04309  Biso   1.000  H
  C230     1.0000 0.29023  0.58686  0.96060  Biso   1.000  C
  H117     1.0000 0.18672  0.60270  0.88938  Biso   1.000  H
  C231     1.0000 0.87971  0.94155  0.17305  Biso   1.000  C
  H118     1.0000 0.95720  0.93741  0.08992  Biso   1.000  H
  C232     1.0000 0.83817  0.84216  0.21419  Biso   1.000  C
  H119     1.0000 0.88707  0.76611  0.16478  Biso   1.000  H
  C233     1.0000 0.93892  0.03943  0.21593  Biso   1.000  C
  C234     1.0000 0.99999  0.13064  0.25001  Biso   1.000  C
  C235     1.0000 0.83158  0.78732  0.32118  Biso   1.000  C
  C236     1.0000 0.82884  0.72830  0.41921  Biso   1.000  C
  C237     1.0000 0.32855  0.53331  0.92098  Biso   1.000  C
  C238     1.0000 0.83410  0.90698  0.21893  Biso   1.000  C
  O65      1.0000 0.87504  0.00899  0.17563  Biso   1.000  O
  O66      1.0000 0.78943  0.80373  0.25918  Biso   1.000  O
  N53      1.0000 0.93254  0.10201  0.21493  Biso   1.000  N
  C239     1.0000 0.99999  0.20212  0.25001  Biso   1.000  C
  N54      1.0000 0.78770  0.74499  0.35763  Biso   1.000  N
  C240     1.0000 0.78688  0.68165  0.46262  Biso   1.000  C
  O67      1.0000 0.39977  0.50873  0.95217  Biso   1.000  O
  O68      1.0000 0.29273  0.51386  0.86404  Biso   1.000  O
  H120     1.0000 0.80110  0.92719  0.25259  Biso   1.000  H
  C241     1.0000 0.92323  0.23555  0.23047  Biso   1.000  C
  C242     1.0000 0.07675  0.23555  0.26955  Biso   1.000  C
  C243     1.0000 0.70830  0.65321  0.43638  Biso   1.000  C
  C244     1.0000 0.82418  0.66253  0.52868  Biso   1.000  C
  H121     1.0000 0.41759  0.47349  0.93821  Biso   1.000  H
  H122     1.0000 0.87113  0.21311  0.21719  Biso   1.000  H
  C245     1.0000 0.92356  0.30209  0.23052  Biso   1.000  C
  H123     1.0000 0.12891  0.21311  0.28278  Biso   1.000  H
  C246     1.0000 0.07648  0.30209  0.26950  Biso   1.000  C
  H124     1.0000 0.68068  0.66671  0.39250  Biso   1.000  H
  C247     1.0000 0.67034  0.60475  0.47505  Biso   1.000  C
  C248     1.0000 0.78669  0.61564  0.56618  Biso   1.000  C
  H125     1.0000 0.87608  0.68231  0.54780  Biso   1.000  H
  H126     1.0000 0.87172  0.32501  0.21730  Biso   1.000  H
  C249     1.0000 0.99999  0.33433  0.25001  Biso   1.000  C
  H127     1.0000 0.12832  0.32501  0.28272  Biso   1.000  H
  H128     1.0000 0.61809  0.58468  0.45688  Biso   1.000  H
  C250     1.0000 0.70975  0.58686  0.53942  Biso   1.000  C
  H129     1.0000 0.81332  0.60270  0.61059  Biso   1.000  H
  C251     1.0000 0.99999  0.40629  0.25001  Biso   1.000  C
  C252     1.0000 0.67142  0.53331  0.57898  Biso   1.000  C
  O69      1.0000 0.92995  0.43344  0.22957  Biso   1.000  O
  O70      1.0000 0.07003  0.43344  0.27045  Biso   1.000  O
  O71      1.0000 0.60027  0.50873  0.54785  Biso   1.000  O
  O72      1.0000 0.70731  0.51386  0.63593  Biso   1.000  O
  H130     1.0000 0.92761  0.47320  0.22488  Biso   1.000  H
  H131     1.0000 0.07243  0.47320  0.27508  Biso   1.000  H
  H132     1.0000 0.58239  0.47349  0.56181  Biso   1.000  H
