data_image0
_cell_length_a       11.974
_cell_length_b       13.656
_cell_length_c       24.053
_cell_angle_alpha    89.32
_cell_angle_beta     79.33
_cell_angle_gamma    84.98

_symmetry_space_group_name_H-M    "P 1"
_symmetry_int_tables_number       1

loop_
  _symmetry_equiv_pos_as_xyz
  'x, y, z'

loop_
  _atom_site_label
  _atom_site_occupancy
  _atom_site_fract_x
  _atom_site_fract_y
  _atom_site_fract_z
  _atom_site_thermal_displace_type
  _atom_site_B_iso_or_equiv
  _atom_site_type_symbol
  C1       1.0000 0.53266  0.57465  0.55671  Biso   1.000  C
  C2       1.0000 0.43254  0.61967  0.54233  Biso   1.000  C
  H1       1.0000 0.60380  0.59775  0.54021  Biso   1.000  H
  C3       1.0000 0.53065  0.49804  0.59411  Biso   1.000  C
  C4       1.0000 0.33075  0.58406  0.56712  Biso   1.000  C
  C5       1.0000 0.43787  0.70507  0.50172  Biso   1.000  C
  C6       1.0000 0.42693  0.46007  0.61776  Biso   1.000  C
  O1       1.0000 0.62541  0.45164  0.61112  Biso   1.000  O
  O2       1.0000 0.23188  0.62981  0.55189  Biso   1.000  O
  C7       1.0000 0.32786  0.50481  0.60380  Biso   1.000  C
  H2       1.0000 0.50265  0.69093  0.46990  Biso   1.000  H
  H3       1.0000 0.36678  0.71274  0.48602  Biso   1.000  H
  C8       1.0000 0.45261  0.80005  0.53048  Biso   1.000  C
  C9       1.0000 0.42554  0.37001  0.65465  Biso   1.000  C
  C10      1.0000 0.73297  0.48556  0.58612  Biso   1.000  C
  C11      1.0000 0.13193  0.63108  0.59170  Biso   1.000  C
  H4       1.0000 0.25667  0.48096  0.61950  Biso   1.000  H
  C12      1.0000 0.55503  0.84261  0.52143  Biso   1.000  C
  C13      1.0000 0.36172  0.84518  0.56852  Biso   1.000  C
  C14      1.0000 0.44128  0.38481  0.71545  Biso   1.000  C
  H5       1.0000 0.35188  0.34150  0.65580  Biso   1.000  H
  H6       1.0000 0.48654  0.32091  0.63629  Biso   1.000  H
  H7       1.0000 0.75134  0.46870  0.54529  Biso   1.000  H
  H8       1.0000 0.73046  0.55777  0.59009  Biso   1.000  H
  C15      1.0000 0.82034  0.43631  0.61590  Biso   1.000  C
  H9       1.0000 0.10251  0.56523  0.59462  Biso   1.000  H
  H10      1.0000 0.14579  0.64967  0.62940  Biso   1.000  H
  C16      1.0000 0.04786  0.70546  0.57211  Biso   1.000  C
  O3       1.0000 0.64368  0.79366  0.48416  Biso   1.000  O
  C17      1.0000 0.56553  0.93022  0.54783  Biso   1.000  C
  C18      1.0000 0.37337  0.93177  0.59636  Biso   1.000  C
  H11      1.0000 0.29073  0.81671  0.57571  Biso   1.000  H
  C19      1.0000 0.54125  0.35202  0.73301  Biso   1.000  C
  C20      1.0000 0.35139  0.42835  0.75573  Biso   1.000  C
  Br1      1.0000 0.83386  0.29406  0.60469  Biso   1.000  Br
  H12      1.0000 0.89507  0.46215  0.60160  Biso   1.000  H
  H13      1.0000 0.79924  0.45140  0.65690  Biso   1.000  H
  H14      1.0000 0.08054  0.76974  0.56670  Biso   1.000  H
  H15      1.0000 0.03155  0.68445  0.53539  Biso   1.000  H
  H16      1.0000 0.08383  0.75355  0.54491  Biso   1.000  H
  Br2      1.0000 0.00387  0.75456  0.64759  Biso   1.000  Br
  Br3      1.0000 0.90916  0.71758  0.62766  Biso   1.000  Br
  H17      1.0000 0.98610  0.67602  0.55769  Biso   1.000  H
  C21      1.0000 0.75268  0.82992  0.47642  Biso   1.000  C
  C22      1.0000 0.47420  0.97615  0.58527  Biso   1.000  C
  H18      1.0000 0.63597  0.95912  0.54021  Biso   1.000  H
  O4       1.0000 0.28577  0.97794  0.63536  Biso   1.000  O
  H19      1.0000 0.60406  0.32527  0.70580  Biso   1.000  H
  C23      1.0000 0.55245  0.35700  0.78889  Biso   1.000  C
  O5       1.0000 0.25490  0.46142  0.73525  Biso   1.000  O
  C24      1.0000 0.36293  0.43356  0.81199  Biso   1.000  C
  H20      1.0000 0.74999  0.89594  0.45899  Biso   1.000  H
  H21      1.0000 0.77692  0.83534  0.51331  Biso   1.000  H
  C25      1.0000 0.83495  0.76031  0.43872  Biso   1.000  C
  C26      1.0000 0.48306  0.07567  0.61154  Biso   1.000  C
  C27      1.0000 0.18682  0.92845  0.65220  Biso   1.000  C
  O6       1.0000 0.64783  0.32202  0.80950  Biso   1.000  O
  C28      1.0000 0.46130  0.39687  0.82972  Biso   1.000  C
  C29      1.0000 0.15259  0.48282  0.77510  Biso   1.000  C
  H22      1.0000 0.30145  0.46317  0.83890  Biso   1.000  H
  Br4      1.0000 0.85611  0.63170  0.47269  Biso   1.000  Br
  H23      1.0000 0.80713  0.75253  0.40289  Biso   1.000  H
  H24      1.0000 0.90955  0.78854  0.42950  Biso   1.000  H
  C30      1.0000 0.50306  0.07474  0.67230  Biso   1.000  C
  H25      1.0000 0.41177  0.11748  0.61011  Biso   1.000  H
  H26      1.0000 0.54626  0.10739  0.58760  Biso   1.000  H
  C31      1.0000 0.11837  0.97619  0.70420  Biso   1.000  C
  H27      1.0000 0.14136  0.93145  0.62161  Biso   1.000  H
  H28      1.0000 0.20798  0.85845  0.65969  Biso   1.000  H
  C32      1.0000 0.74853  0.29027  0.77091  Biso   1.000  C
  C33      1.0000 0.46803  0.39566  0.89233  Biso   1.000  C
  C34      1.0000 0.05711  0.50411  0.74320  Biso   1.000  C
  H29      1.0000 0.13745  0.42605  0.80053  Biso   1.000  H
  H30      1.0000 0.15954  0.54056  0.79841  Biso   1.000  H
  C35      1.0000 0.41785  0.11146  0.71596  Biso   1.000  C
  C36      1.0000 0.60908  0.04469  0.68431  Biso   1.000  C
  H31      1.0000 0.05224  0.93807  0.71820  Biso   1.000  H
  H32      1.0000 0.16578  0.97539  0.73390  Biso   1.000  H
  Br5      1.0000 0.06419  0.11031  0.69083  Biso   1.000  Br
  H33      1.0000 0.73262  0.23854  0.74561  Biso   1.000  H
  H34      1.0000 0.77688  0.34603  0.74731  Biso   1.000  H
  C37      1.0000 0.83470  0.25112  0.80370  Biso   1.000  C
  C38      1.0000 0.46746  0.49663  0.91776  Biso   1.000  C
  H35      1.0000 0.53866  0.35607  0.89741  Biso   1.000  H
  H36      1.0000 0.40254  0.36281  0.91332  Biso   1.000  H
  Br6      1.0000 0.04116  0.38954  0.69848  Biso   1.000  Br
  H37      1.0000 0.07270  0.56096  0.71790  Biso   1.000  H
  H38      1.0000 0.98515  0.52115  0.77019  Biso   1.000  H
  C39      1.0000 0.43947  0.12048  0.77062  Biso   1.000  C
  H39      1.0000 0.34376  0.13067  0.70860  Biso   1.000  H
  O7       1.0000 0.69199  0.00958  0.63921  Biso   1.000  O
  C40      1.0000 0.63146  0.05136  0.73821  Biso   1.000  C
  Br7      1.0000 0.87340  0.34986  0.85345  Biso   1.000  Br
  H40      1.0000 0.80538  0.19521  0.82680  Biso   1.000  H
  H41      1.0000 0.90456  0.22607  0.77730  Biso   1.000  H
  C41      1.0000 0.56127  0.55078  0.90473  Biso   1.000  C
  C42      1.0000 0.37270  0.53707  0.95601  Biso   1.000  C
  O8       1.0000 0.36175  0.16097  0.81580  Biso   1.000  O
  C43      1.0000 0.54576  0.09029  0.78280  Biso   1.000  C
  C44      1.0000 0.80737  0.01454  0.64382  Biso   1.000  C
  H42      1.0000 0.70494  0.02973  0.74540  Biso   1.000  H
  C45      1.0000 0.56383  0.64059  0.92990  Biso   1.000  C
  H43      1.0000 0.62539  0.52544  0.87791  Biso   1.000  H
  O9       1.0000 0.28033  0.48171  0.96569  Biso   1.000  O
  C46      1.0000 0.37653  0.62657  0.98097  Biso   1.000  C
  C47      1.0000 0.24814  0.18584  0.80899  Biso   1.000  C
  C48      1.0000 0.57207  0.10206  0.84140  Biso   1.000  C
  H44      1.0000 0.82724  0.96882  0.67340  Biso   1.000  H
  C49      1.0000 0.88229  0.98616  0.58629  Biso   1.000  C
  H45      1.0000 0.81976  0.08195  0.65440  Biso   1.000  H
  O10      1.0000 0.65997  0.69277  0.91899  Biso   1.000  O
  C50      1.0000 0.47161  0.67933  0.96895  Biso   1.000  C
  C51      1.0000 0.19499  0.50576  0.01490  Biso   1.000  C
  H46      1.0000 0.31195  0.65287  0.00720  Biso   1.000  H
  H47      1.0000 0.24662  0.23035  0.77620  Biso   1.000  H
  H48      1.0000 0.21166  0.12595  0.80209  Biso   1.000  H
  C52      1.0000 0.18566  0.23608  0.86221  Biso   1.000  C
  H49      1.0000 0.65416  0.11159  0.83750  Biso   1.000  H
  H50      1.0000 0.52866  0.16277  0.85853  Biso   1.000  H
  C53      1.0000 0.54532  0.01769  0.88205  Biso   1.000  C
  H51      1.0000 0.96351  0.98853  0.58912  Biso   1.000  H
  H52      1.0000 0.87092  0.91787  0.57681  Biso   1.000  H
  Br8      1.0000 0.84725  0.07259  0.52663  Biso   1.000  Br
  C54      1.0000 0.72366  0.68668  0.86323  Biso   1.000  C
  C55      1.0000 0.47356  0.77725  0.99806  Biso   1.000  C
  H53      1.0000 0.23052  0.51558  0.04832  Biso   1.000  H
  H54      1.0000 0.14711  0.56636  0.00880  Biso   1.000  H
  C56      1.0000 0.12515  0.41850  0.02310  Biso   1.000  C
  Br9      1.0000 0.18667  0.15316  0.92846  Biso   1.000  Br
  H55      1.0000 0.22132  0.29707  0.86763  Biso   1.000  H
  H56      1.0000 0.10571  0.25465  0.85819  Biso   1.000  H
  C57      1.0000 0.61607  0.98983  0.92026  Biso   1.000  C
  C58      1.0000 0.44743  0.96824  0.88413  Biso   1.000  C
  H57      1.0000 0.77032  0.62283  0.85730  Biso   1.000  H
  H58      1.0000 0.67180  0.69205  0.83552  Biso   1.000  H
  C59      1.0000 0.79902  0.76917  0.85561  Biso   1.000  C
  C60      1.0000 0.49635  0.86288  0.95850  Biso   1.000  C
  H59      1.0000 0.53315  0.77038  0.02179  Biso   1.000  H
  H60      1.0000 0.39933  0.79230  0.02361  Biso   1.000  H
  H61      1.0000 0.09049  0.40927  0.98943  Biso   1.000  H
  Br10     1.0000 0.00579  0.44415  0.09016  Biso   1.000  Br
  H62      1.0000 0.17417  0.35819  0.02852  Biso   1.000  H
  C61      1.0000 0.59147  0.91367  0.95812  Biso   1.000  C
  O11      1.0000 0.71187  0.04170  0.91666  Biso   1.000  O
  C62      1.0000 0.42367  0.89296  0.92153  Biso   1.000  C
  H63      1.0000 0.39650  0.98686  0.85912  Biso   1.000  H
  Br11     1.0000 0.89358  0.76147  0.78128  Biso   1.000  Br
  H64      1.0000 0.75179  0.83279  0.86022  Biso   1.000  H
  H65      1.0000 0.84784  0.76528  0.88480  Biso   1.000  H
  H66      1.0000 0.64067  0.89623  0.98410  Biso   1.000  H
  C63      1.0000 0.79666  0.00666  0.94822  Biso   1.000  C
  O12      1.0000 0.32680  0.84197  0.92597  Biso   1.000  O
  H67      1.0000 0.81023  0.93423  0.94509  Biso   1.000  H
  H68      1.0000 0.77134  0.02447  0.98862  Biso   1.000  H
  C64      1.0000 0.90408  0.05367  0.92432  Biso   1.000  C
  C65      1.0000 0.26106  0.85539  0.88290  Biso   1.000  C
  Br12     1.0000 0.96627  0.00699  0.84757  Biso   1.000  Br
  H69      1.0000 0.88754  0.12600  0.92402  Biso   1.000  H
  H70      1.0000 0.96126  0.03798  0.94881  Biso   1.000  H
  C66      1.0000 0.17630  0.78003  0.89051  Biso   1.000  C
  H71      1.0000 0.22118  0.92216  0.88552  Biso   1.000  H
  H72      1.0000 0.31107  0.84753  0.84529  Biso   1.000  H
  Br13     1.0000 0.06411  0.80107  0.96041  Biso   1.000  Br
  H73      1.0000 0.13639  0.78264  0.85790  Biso   1.000  H
  H74      1.0000 0.21689  0.71387  0.89119  Biso   1.000  H
  C67      1.0000 0.46722  0.42543  0.44329  Biso   1.000  C
  C68      1.0000 0.46922  0.50203  0.40589  Biso   1.000  C
  C69      1.0000 0.56733  0.38041  0.45767  Biso   1.000  C
  H75      1.0000 0.39607  0.40233  0.45979  Biso   1.000  H
  C70      1.0000 0.57294  0.54000  0.38224  Biso   1.000  C
  O13      1.0000 0.37446  0.54843  0.38888  Biso   1.000  O
  C71      1.0000 0.66911  0.41601  0.43292  Biso   1.000  C
  C72      1.0000 0.56200  0.29501  0.49829  Biso   1.000  C
  C73      1.0000 0.57434  0.63006  0.34535  Biso   1.000  C
  C74      1.0000 0.67202  0.49520  0.39620  Biso   1.000  C
  C75      1.0000 0.26691  0.51452  0.41389  Biso   1.000  C
  O14      1.0000 0.76797  0.37026  0.44816  Biso   1.000  O
  H76      1.0000 0.49723  0.30914  0.53010  Biso   1.000  H
  H77      1.0000 0.63308  0.28733  0.51403  Biso   1.000  H
  C76      1.0000 0.54725  0.20003  0.46956  Biso   1.000  C
  C77      1.0000 0.55867  0.61526  0.28456  Biso   1.000  C
  H78      1.0000 0.64800  0.65850  0.34421  Biso   1.000  H
  H79      1.0000 0.51333  0.67916  0.36371  Biso   1.000  H
  H80      1.0000 0.74329  0.51911  0.38051  Biso   1.000  H
  H81      1.0000 0.24855  0.53130  0.45471  Biso   1.000  H
  H82      1.0000 0.26941  0.44230  0.40991  Biso   1.000  H
  C78      1.0000 0.17953  0.56376  0.38410  Biso   1.000  C
  C79      1.0000 0.86794  0.36900  0.40830  Biso   1.000  C
  C80      1.0000 0.63816  0.15490  0.43149  Biso   1.000  C
  C81      1.0000 0.44485  0.15739  0.47857  Biso   1.000  C
  C82      1.0000 0.64847  0.57173  0.24432  Biso   1.000  C
  C83      1.0000 0.45861  0.64806  0.26704  Biso   1.000  C
  Br14     1.0000 0.16601  0.70602  0.39531  Biso   1.000  Br
  H83      1.0000 0.10481  0.53792  0.39840  Biso   1.000  H
  H84      1.0000 0.20064  0.54860  0.34311  Biso   1.000  H
  H85      1.0000 0.89735  0.43484  0.40543  Biso   1.000  H
  H86      1.0000 0.85408  0.35041  0.37061  Biso   1.000  H
  C84      1.0000 0.95201  0.29461  0.42789  Biso   1.000  C
  C85      1.0000 0.62650  0.06831  0.40365  Biso   1.000  C
  H87      1.0000 0.70915  0.18329  0.42429  Biso   1.000  H
  C86      1.0000 0.43435  0.06978  0.45217  Biso   1.000  C
  O15      1.0000 0.35619  0.20641  0.51585  Biso   1.000  O
  C87      1.0000 0.63694  0.56652  0.18801  Biso   1.000  C
  O16      1.0000 0.74497  0.53866  0.26476  Biso   1.000  O
  C88      1.0000 0.44743  0.64300  0.21111  Biso   1.000  C
  H88      1.0000 0.39581  0.67480  0.29420  Biso   1.000  H
  H89      1.0000 0.91941  0.23033  0.43331  Biso   1.000  H
  H90      1.0000 0.96832  0.31562  0.46461  Biso   1.000  H
  H91      1.0000 0.91604  0.24652  0.45509  Biso   1.000  H
  Br15     1.0000 0.99600  0.24551  0.35242  Biso   1.000  Br
  Br16     1.0000 0.09072  0.28250  0.37234  Biso   1.000  Br
  H92      1.0000 0.01377  0.32405  0.44232  Biso   1.000  H
  C89      1.0000 0.52567  0.02392  0.41473  Biso   1.000  C
  O17      1.0000 0.71410  0.02214  0.36464  Biso   1.000  O
  H93      1.0000 0.36391  0.04088  0.45979  Biso   1.000  H
  C90      1.0000 0.24720  0.17009  0.52359  Biso   1.000  C
  C91      1.0000 0.53855  0.60321  0.17033  Biso   1.000  C
  H94      1.0000 0.69843  0.53691  0.16110  Biso   1.000  H
  C92      1.0000 0.84728  0.51725  0.22490  Biso   1.000  C
  O18      1.0000 0.35203  0.67805  0.19055  Biso   1.000  O
  C93      1.0000 0.51680  0.92441  0.38850  Biso   1.000  C
  C94      1.0000 0.81305  0.07163  0.34780  Biso   1.000  C
  H95      1.0000 0.24989  0.10413  0.54102  Biso   1.000  H
  H96      1.0000 0.22296  0.16473  0.48670  Biso   1.000  H
  C95      1.0000 0.16492  0.23970  0.56133  Biso   1.000  C
  C96      1.0000 0.53184  0.60442  0.10767  Biso   1.000  C
  C97      1.0000 0.94277  0.49596  0.25680  Biso   1.000  C
  H97      1.0000 0.86241  0.57403  0.19952  Biso   1.000  H
  H98      1.0000 0.84033  0.45952  0.20159  Biso   1.000  H
  C98      1.0000 0.25134  0.70981  0.22909  Biso   1.000  C
  C99      1.0000 0.49681  0.92534  0.32771  Biso   1.000  C
  H99      1.0000 0.58810  0.88259  0.38990  Biso   1.000  H
  H100     1.0000 0.45362  0.89269  0.41241  Biso   1.000  H
  C100     1.0000 0.88150  0.02389  0.29581  Biso   1.000  C
  H101     1.0000 0.85851  0.06863  0.37839  Biso   1.000  H
  H102     1.0000 0.79190  0.14162  0.34032  Biso   1.000  H
  Br17     1.0000 0.14377  0.36830  0.52731  Biso   1.000  Br
  H103     1.0000 0.19275  0.24754  0.59712  Biso   1.000  H
  H104     1.0000 0.09032  0.21154  0.57051  Biso   1.000  H
  C101     1.0000 0.53242  0.50344  0.08224  Biso   1.000  C
  H105     1.0000 0.46121  0.64400  0.10259  Biso   1.000  H
  H106     1.0000 0.59733  0.63726  0.08669  Biso   1.000  H
  Br18     1.0000 0.95871  0.61054  0.30152  Biso   1.000  Br
  H107     1.0000 0.92717  0.43911  0.28210  Biso   1.000  H
  H108     1.0000 0.01472  0.47892  0.22981  Biso   1.000  H
  H109     1.0000 0.26725  0.76153  0.25439  Biso   1.000  H
  H110     1.0000 0.22299  0.65405  0.25270  Biso   1.000  H
  C102     1.0000 0.16526  0.74896  0.19630  Biso   1.000  C
  C103     1.0000 0.58202  0.88861  0.28405  Biso   1.000  C
  C104     1.0000 0.39080  0.95538  0.31569  Biso   1.000  C
  H111     1.0000 0.94763  0.06200  0.28181  Biso   1.000  H
  H112     1.0000 0.83409  0.02469  0.26611  Biso   1.000  H
  Br19     1.0000 0.93566  0.88976  0.30922  Biso   1.000  Br
  C105     1.0000 0.43859  0.44929  0.09532  Biso   1.000  C
  C106     1.0000 0.62717  0.46301  0.04400  Biso   1.000  C
  Br20     1.0000 0.12647  0.65022  0.14655  Biso   1.000  Br
  H113     1.0000 0.19449  0.80487  0.17320  Biso   1.000  H
  H114     1.0000 0.09532  0.77401  0.22270  Biso   1.000  H
  C107     1.0000 0.56041  0.87959  0.22939  Biso   1.000  C
  H115     1.0000 0.65611  0.86941  0.29141  Biso   1.000  H
  C108     1.0000 0.36841  0.94872  0.26179  Biso   1.000  C
  O19      1.0000 0.30788  0.99050  0.36079  Biso   1.000  O
  C109     1.0000 0.43605  0.35949  0.07010  Biso   1.000  C
  H116     1.0000 0.37448  0.47464  0.12210  Biso   1.000  H
  C110     1.0000 0.62334  0.37350  0.01904  Biso   1.000  C
  O20      1.0000 0.71955  0.51829  0.03431  Biso   1.000  O
  C111     1.0000 0.45411  0.90978  0.21720  Biso   1.000  C
  O21      1.0000 0.63813  0.83911  0.18420  Biso   1.000  O
  H117     1.0000 0.29494  0.97028  0.25460  Biso   1.000  H
  C112     1.0000 0.19249  0.98554  0.35622  Biso   1.000  C
  O22      1.0000 0.33989  0.30731  0.08106  Biso   1.000  O
  C113     1.0000 0.52826  0.32074  0.03105  Biso   1.000  C
  H118     1.0000 0.68800  0.34721  0.99281  Biso   1.000  H
  C114     1.0000 0.80488  0.49431  0.98511  Biso   1.000  C
  C115     1.0000 0.42780  0.89801  0.15861  Biso   1.000  C
  C116     1.0000 0.75174  0.81417  0.19101  Biso   1.000  C
  H119     1.0000 0.17272  0.03118  0.32661  Biso   1.000  H
  C117     1.0000 0.11758  0.01391  0.41372  Biso   1.000  C
  H120     1.0000 0.18012  0.91812  0.34560  Biso   1.000  H
  C118     1.0000 0.27620  0.31340  0.13682  Biso   1.000  C
  C119     1.0000 0.52631  0.22282  0.00195  Biso   1.000  C
  H121     1.0000 0.76935  0.48450  0.95169  Biso   1.000  H
  H122     1.0000 0.85276  0.43371  0.99120  Biso   1.000  H
  C120     1.0000 0.87472  0.58158  0.97690  Biso   1.000  C
  C121     1.0000 0.45455  0.98238  0.11795  Biso   1.000  C
  H123     1.0000 0.34571  0.88849  0.16250  Biso   1.000  H
  H124     1.0000 0.47120  0.83731  0.14152  Biso   1.000  H
  H125     1.0000 0.75325  0.76972  0.22380  Biso   1.000  H
  H126     1.0000 0.78821  0.87413  0.19791  Biso   1.000  H
  C122     1.0000 0.81421  0.76399  0.13779  Biso   1.000  C
  H127     1.0000 0.03634  0.01154  0.41093  Biso   1.000  H
  H128     1.0000 0.12895  0.08220  0.42319  Biso   1.000  H
  Br21     1.0000 0.15262  0.92748  0.47337  Biso   1.000  Br
  C123     1.0000 0.20085  0.23090  0.14439  Biso   1.000  C
  H129     1.0000 0.22956  0.37725  0.14270  Biso   1.000  H
  H130     1.0000 0.32808  0.30802  0.16449  Biso   1.000  H
  C124     1.0000 0.50353  0.13719  0.04150  Biso   1.000  C
  H131     1.0000 0.46681  0.22970  0.97821  Biso   1.000  H
  H132     1.0000 0.60062  0.20778  0.97639  Biso   1.000  H
  H133     1.0000 0.90936  0.59081  0.01062  Biso   1.000  H
  Br22     1.0000 0.99409  0.55592  0.90984  Biso   1.000  Br
  H134     1.0000 0.82579  0.64189  0.97149  Biso   1.000  H
  C125     1.0000 0.38381  0.01017  0.07975  Biso   1.000  C
  C126     1.0000 0.55242  0.03184  0.11592  Biso   1.000  C
  Br23     1.0000 0.81321  0.84691  0.07154  Biso   1.000  Br
  H135     1.0000 0.77853  0.70301  0.13242  Biso   1.000  H
  H136     1.0000 0.89416  0.74542  0.14181  Biso   1.000  H
  Br24     1.0000 0.10628  0.23860  0.21877  Biso   1.000  Br
  H137     1.0000 0.24809  0.16728  0.13978  Biso   1.000  H
  H138     1.0000 0.15211  0.23479  0.11520  Biso   1.000  H
  C127     1.0000 0.40840  0.08640  0.04188  Biso   1.000  C
  C128     1.0000 0.57619  0.10712  0.07852  Biso   1.000  C
  O23      1.0000 0.28799  0.95837  0.08339  Biso   1.000  O
  H139     1.0000 0.60337  0.01321  0.14088  Biso   1.000  H
  H140     1.0000 0.35921  0.10377  0.01591  Biso   1.000  H
  O24      1.0000 0.67307  0.15810  0.07404  Biso   1.000  O
  C129     1.0000 0.20321  0.99341  0.05178  Biso   1.000  C
  C130     1.0000 0.73882  0.14469  0.11711  Biso   1.000  C
  H141     1.0000 0.18973  0.06577  0.05491  Biso   1.000  H
  H142     1.0000 0.22853  0.97561  0.01138  Biso   1.000  H
  C131     1.0000 0.09579  0.94641  0.07569  Biso   1.000  C
  C132     1.0000 0.82358  0.21998  0.10949  Biso   1.000  C
  H143     1.0000 0.77869  0.07792  0.11448  Biso   1.000  H
  H144     1.0000 0.68880  0.15255  0.15472  Biso   1.000  H
  Br25     1.0000 0.03361  0.99309  0.15243  Biso   1.000  Br
  H145     1.0000 0.11233  0.87407  0.07598  Biso   1.000  H
  H146     1.0000 0.03861  0.96210  0.05119  Biso   1.000  H
  Br26     1.0000 0.93575  0.19900  0.03964  Biso   1.000  Br
  H147     1.0000 0.86348  0.21743  0.14211  Biso   1.000  H
  H148     1.0000 0.78298  0.28620  0.10881  Biso   1.000  H
  Ne1      1.0000 0.54782  0.26548  0.25060  Biso   1.000  Ne
  He1      1.0000 0.07022  0.31325  0.37881  Biso   1.000  He
  He2      1.0000 0.88162  0.28071  0.23846  Biso   1.000  He
  Ar1      1.0000 0.50594  0.26814  0.28271  Biso   1.000  Ar
  Ne2      1.0000 0.45205  0.73458  0.74941  Biso   1.000  Ne
  He3      1.0000 0.01867  0.72858  0.78499  Biso   1.000  He
  He4      1.0000 0.82250  0.72912  0.63739  Biso   1.000  He
  Ar2      1.0000 0.50809  0.73447  0.71726  Biso   1.000  Ar
