data_image0
_cell_length_a       14.819
_cell_length_b       20.69
_cell_length_c       24.183
_cell_angle_alpha    90
_cell_angle_beta     91.05
_cell_angle_gamma    90

_symmetry_space_group_name_H-M    "P 1"
_symmetry_int_tables_number       1

loop_
  _symmetry_equiv_pos_as_xyz
  'x, y, z'

loop_
  _atom_site_label
  _atom_site_occupancy
  _atom_site_fract_x
  _atom_site_fract_y
  _atom_site_fract_z
  _atom_site_thermal_displace_type
  _atom_site_B_iso_or_equiv
  _atom_site_type_symbol
  C1       1.0000 0.50215  0.63591  0.41611  Biso   1.000  C
  C2       1.0000 0.55870  0.68690  0.38902  Biso   1.000  C
  C3       1.0000 0.40783  0.66138  0.42802  Biso   1.000  C
  H1       1.0000 0.53125  0.62238  0.45039  Biso   1.000  H
  H2       1.0000 0.49732  0.59850  0.39199  Biso   1.000  H
  N1       1.0000 0.52594  0.70280  0.33380  Biso   1.000  N
  C4       1.0000 0.55261  0.75331  0.42012  Biso   1.000  C
  N2       1.0000 0.65455  0.67240  0.39204  Biso   1.000  N
  C5       1.0000 0.40943  0.71972  0.46561  Biso   1.000  C
  H3       1.0000 0.37805  0.67289  0.39332  Biso   1.000  H
  H4       1.0000 0.37291  0.62740  0.44502  Biso   1.000  H
  C6       1.0000 0.50855  0.65781  0.28922  Biso   1.000  C
  C7       1.0000 0.49049  0.76462  0.33078  Biso   1.000  C
  N3       1.0000 0.50660  0.79488  0.37979  Biso   1.000  N
  C8       1.0000 0.50312  0.74848  0.47339  Biso   1.000  C
  N4       1.0000 0.64876  0.77110  0.42864  Biso   1.000  N
  C9       1.0000 0.70425  0.72020  0.41569  Biso   1.000  C
  C10      1.0000 0.69802  0.61619  0.36788  Biso   1.000  C
  H5       1.0000 0.38654  0.70730  0.50139  Biso   1.000  H
  H6       1.0000 0.36936  0.75239  0.45019  Biso   1.000  H
  H7       1.0000 0.45775  0.67351  0.26709  Biso   1.000  H
  H8       1.0000 0.49140  0.61648  0.30481  Biso   1.000  H
  N5       1.0000 0.58474  0.64809  0.25340  Biso   1.000  N
  O1       1.0000 0.45015  0.78734  0.29046  Biso   1.000  O
  C11      1.0000 0.48200  0.86182  0.38769  Biso   1.000  C
  H9       1.0000 0.49794  0.79130  0.48952  Biso   1.000  H
  H10      1.0000 0.53770  0.72189  0.49911  Biso   1.000  H
  C12      1.0000 0.68150  0.82552  0.46061  Biso   1.000  C
  O2       1.0000 0.78573  0.71812  0.42603  Biso   1.000  O
  N6       1.0000 0.71850  0.62368  0.31010  Biso   1.000  N
  H11      1.0000 0.75364  0.60759  0.38840  Biso   1.000  H
  H12      1.0000 0.65901  0.57902  0.37210  Biso   1.000  H
  C13      1.0000 0.65800  0.60329  0.26589  Biso   1.000  C
  C14      1.0000 0.58632  0.67032  0.20009  Biso   1.000  C
  H13      1.0000 0.46384  0.86752  0.42570  Biso   1.000  H
  H14      1.0000 0.43002  0.87139  0.36420  Biso   1.000  H
  N7       1.0000 0.55271  0.90802  0.37599  Biso   1.000  N
  H15      1.0000 0.64014  0.83378  0.49030  Biso   1.000  H
  H16      1.0000 0.73962  0.81431  0.47711  Biso   1.000  H
  N8       1.0000 0.69154  0.88400  0.42860  Biso   1.000  N
  C15      1.0000 0.80452  0.63741  0.29162  Biso   1.000  C
  H17      1.0000 0.63550  0.55940  0.27201  Biso   1.000  H
  C16      1.0000 0.71678  0.60691  0.21432  Biso   1.000  C
  N9       1.0000 0.66572  0.64901  0.17672  Biso   1.000  N
  O3       1.0000 0.52773  0.70140  0.17697  Biso   1.000  O
  C17      1.0000 0.61675  0.92818  0.41900  Biso   1.000  C
  C18      1.0000 0.54543  0.95341  0.33558  Biso   1.000  C
  C19      1.0000 0.77215  0.91020  0.41391  Biso   1.000  C
  N10      1.0000 0.80135  0.63490  0.23504  Biso   1.000  N
  O4       1.0000 0.87010  0.64901  0.32036  Biso   1.000  O
  H18      1.0000 0.72628  0.56409  0.19811  Biso   1.000  H
  C20      1.0000 0.68242  0.65452  0.11899  Biso   1.000  C
  C21      1.0000 0.66122  0.98710  0.39402  Biso   1.000  C
  H19      1.0000 0.58620  0.93891  0.45341  Biso   1.000  H
  N11      1.0000 0.61245  0.99729  0.34269  Biso   1.000  N
  O5       1.0000 0.48863  0.95370  0.29799  Biso   1.000  O
  N12      1.0000 0.75469  0.96820  0.38765  Biso   1.000  N
  O6       1.0000 0.84644  0.88560  0.42297  Biso   1.000  O
  C22      1.0000 0.88334  0.63451  0.20361  Biso   1.000  C
  H20      1.0000 0.62734  0.66849  0.10042  Biso   1.000  H
  H21      1.0000 0.69738  0.61208  0.10480  Biso   1.000  H
  N13      1.0000 0.75420  0.69899  0.10505  Biso   1.000  N
  H22      1.0000 0.65635  0.02479  0.41838  Biso   1.000  H
  C23      1.0000 0.61591  0.05650  0.31172  Biso   1.000  C
  C24      1.0000 0.82544  0.01551  0.37731  Biso   1.000  C
  H23      1.0000 0.88783  0.59338  0.18458  Biso   1.000  H
  H24      1.0000 0.93444  0.63770  0.22908  Biso   1.000  H
  N14      1.0000 0.88902  0.68608  0.16320  Biso   1.000  N
  C25      1.0000 0.85062  0.68429  0.10691  Biso   1.000  C
  C26      1.0000 0.73563  0.75742  0.08189  Biso   1.000  C
  H25      1.0000 0.61844  0.09241  0.33761  Biso   1.000  H
  H26      1.0000 0.56053  0.06071  0.29009  Biso   1.000  H
  N15      1.0000 0.69160  0.06162  0.27499  Biso   1.000  N
  H27      1.0000 0.88242  0.99899  0.39158  Biso   1.000  H
  H28      1.0000 0.81193  0.05491  0.39721  Biso   1.000  H
  N16      1.0000 0.83471  0.03074  0.31945  Biso   1.000  N
  C27      1.0000 0.95171  0.73480  0.17011  Biso   1.000  C
  C28      1.0000 0.89290  0.74519  0.07870  Biso   1.000  C
  C29      1.0000 0.87360  0.62160  0.07651  Biso   1.000  C
  N17      1.0000 0.81422  0.78632  0.06750  Biso   1.000  N
  O7       1.0000 0.66000  0.77951  0.07329  Biso   1.000  O
  C30      1.0000 0.78330  0.08139  0.29042  Biso   1.000  C
  C31      1.0000 0.68363  0.04418  0.22040  Biso   1.000  C
  C32      1.0000 0.91313  0.01701  0.29269  Biso   1.000  C
  N18      1.0000 0.95240  0.77081  0.12321  Biso   1.000  N
  O8       1.0000 0.99921  0.74282  0.21064  Biso   1.000  O
  C33      1.0000 0.94481  0.72808  0.02750  Biso   1.000  C
  H29      1.0000 0.85264  0.58482  0.09761  Biso   1.000  H
  H30      1.0000 0.84331  0.62098  0.04061  Biso   1.000  H
  C34      1.0000 0.97527  0.61658  0.06899  Biso   1.000  C
  C35      1.0000 0.81549  0.84611  0.03788  Biso   1.000  C
  C36      1.0000 0.83042  0.08521  0.23252  Biso   1.000  C
  C37      1.0000 0.78481  0.14582  0.32061  Biso   1.000  C
  N19      1.0000 0.76439  0.05433  0.19534  Biso   1.000  N
  O9       1.0000 0.61370  0.02673  0.19728  Biso   1.000  O
  O10      1.0000 0.97705  0.98482  0.31122  Biso   1.000  O
  N20      1.0000 0.91161  0.04751  0.24178  Biso   1.000  N
  C38      1.0000 0.01528  0.82272  0.11609  Biso   1.000  C
  H31      1.0000 0.97532  0.76622  0.01402  Biso   1.000  H
  H32      1.0000 0.90306  0.71339  0.99880  Biso   1.000  H
  C39      1.0000 0.01469  0.67472  0.03979  Biso   1.000  C
  H33      1.0000 0.98827  0.57801  0.04789  Biso   1.000  H
  H34      1.0000 0.00442  0.61218  0.10509  Biso   1.000  H
  H35      1.0000 0.75693  0.85259  0.02018  Biso   1.000  H
  H36      1.0000 0.85977  0.84311  0.00902  Biso   1.000  H
  N21      1.0000 0.83628  0.90159  0.07180  Biso   1.000  N
  C40      1.0000 0.84862  0.15442  0.21581  Biso   1.000  C
  C41      1.0000 0.74311  0.20019  0.28699  Biso   1.000  C
  H37      1.0000 0.75243  0.14142  0.35490  Biso   1.000  H
  H38      1.0000 0.84690  0.15689  0.33000  Biso   1.000  H
  C42      1.0000 0.76983  0.05109  0.13570  Biso   1.000  C
  C43      1.0000 0.98133  0.03572  0.20158  Biso   1.000  C
  N22      1.0000 0.97771  0.88681  0.12552  Biso   1.000  N
  H39      1.0000 0.03812  0.82088  0.07879  Biso   1.000  H
  H40      1.0000 0.06611  0.81629  0.14140  Biso   1.000  H
  H41      1.0000 0.04051  0.66061  0.00529  Biso   1.000  H
  H42      1.0000 0.06308  0.69261  0.06262  Biso   1.000  H
  C44      1.0000 0.92827  0.92450  0.08371  Biso   1.000  C
  C45      1.0000 0.77428  0.94558  0.08809  Biso   1.000  C
  H43      1.0000 0.86392  0.15602  0.17701  Biso   1.000  H
  H44      1.0000 0.89933  0.17119  0.23719  Biso   1.000  H
  C46      1.0000 0.76550  0.19570  0.22569  Biso   1.000  C
  H45      1.0000 0.76474  0.24118  0.30150  Biso   1.000  H
  H46      1.0000 0.67811  0.19908  0.29091  Biso   1.000  H
  N23      1.0000 0.81648  0.99420  0.11605  Biso   1.000  N
  H47      1.0000 0.80082  0.08932  0.12259  Biso   1.000  H
  H48      1.0000 0.70924  0.05172  0.11998  Biso   1.000  H
  N24      1.0000 0.96253  0.98381  0.16399  Biso   1.000  N
  H49      1.0000 0.99021  0.07492  0.18040  Biso   1.000  H
  H50      1.0000 0.03739  0.02639  0.22131  Biso   1.000  H
  C47      1.0000 0.00429  0.92479  0.16820  Biso   1.000  C
  H51      1.0000 0.96302  0.92910  0.04980  Biso   1.000  H
  C48      1.0000 0.91409  0.99048  0.11262  Biso   1.000  C
  O11      1.0000 0.69222  0.94186  0.07908  Biso   1.000  O
  H52      1.0000 0.71443  0.17738  0.20551  Biso   1.000  H
  H53      1.0000 0.77581  0.23891  0.21138  Biso   1.000  H
  O12      1.0000 0.05890  0.90947  0.20510  Biso   1.000  O
  H54      1.0000 0.93813  0.02610  0.09049  Biso   1.000  H
  C49      1.0000 0.49793  0.36409  0.58390  Biso   1.000  C
  C50      1.0000 0.44131  0.31310  0.61099  Biso   1.000  C
  C51      1.0000 0.59224  0.33862  0.57199  Biso   1.000  C
  H55      1.0000 0.46883  0.37762  0.54961  Biso   1.000  H
  H56      1.0000 0.50276  0.40150  0.60801  Biso   1.000  H
  C52      1.0000 0.44746  0.24669  0.57988  Biso   1.000  C
  N25      1.0000 0.34553  0.32760  0.60797  Biso   1.000  N
  N26      1.0000 0.47414  0.29720  0.66620  Biso   1.000  N
  C53      1.0000 0.59065  0.28028  0.53439  Biso   1.000  C
  H57      1.0000 0.62203  0.32711  0.60669  Biso   1.000  H
  H58      1.0000 0.62716  0.37260  0.55499  Biso   1.000  H
  N27      1.0000 0.35132  0.22890  0.57137  Biso   1.000  N
  C54      1.0000 0.49695  0.25152  0.52662  Biso   1.000  C
  N28      1.0000 0.49341  0.20512  0.62021  Biso   1.000  N
  C55      1.0000 0.29583  0.27980  0.58431  Biso   1.000  C
  C56      1.0000 0.30205  0.38381  0.63212  Biso   1.000  C
  C57      1.0000 0.50952  0.23538  0.66922  Biso   1.000  C
  C58      1.0000 0.49153  0.34219  0.71078  Biso   1.000  C
  H59      1.0000 0.61353  0.29270  0.49862  Biso   1.000  H
  H60      1.0000 0.63072  0.24761  0.54982  Biso   1.000  H
  C59      1.0000 0.31851  0.17448  0.53940  Biso   1.000  C
  H61      1.0000 0.50214  0.20870  0.51049  Biso   1.000  H
  H62      1.0000 0.46231  0.27811  0.50089  Biso   1.000  H
  C60      1.0000 0.51801  0.13818  0.61231  Biso   1.000  C
  O13      1.0000 0.21434  0.28188  0.57397  Biso   1.000  O
  H63      1.0000 0.24644  0.39241  0.61161  Biso   1.000  H
  H64      1.0000 0.34107  0.42098  0.62790  Biso   1.000  H
  N29      1.0000 0.28151  0.37632  0.68990  Biso   1.000  N
  O14      1.0000 0.54993  0.21266  0.70954  Biso   1.000  O
  H65      1.0000 0.54233  0.32649  0.73291  Biso   1.000  H
  H66      1.0000 0.50861  0.38352  0.69519  Biso   1.000  H
  N30      1.0000 0.41534  0.35191  0.74660  Biso   1.000  N
  H67      1.0000 0.35993  0.16622  0.50970  Biso   1.000  H
  H68      1.0000 0.26046  0.18569  0.52289  Biso   1.000  H
  N31      1.0000 0.30854  0.11600  0.57141  Biso   1.000  N
  N32      1.0000 0.44737  0.09198  0.62401  Biso   1.000  N
  H69      1.0000 0.53624  0.13248  0.57430  Biso   1.000  H
  H70      1.0000 0.57006  0.12861  0.63580  Biso   1.000  H
  C61      1.0000 0.19555  0.36259  0.70839  Biso   1.000  C
  C62      1.0000 0.34202  0.39671  0.73411  Biso   1.000  C
  C63      1.0000 0.41376  0.32968  0.79991  Biso   1.000  C
  C64      1.0000 0.22793  0.08980  0.58609  Biso   1.000  C
  C65      1.0000 0.38332  0.07182  0.58100  Biso   1.000  C
  C66      1.0000 0.45465  0.04659  0.66438  Biso   1.000  C
  N33      1.0000 0.19873  0.36510  0.76496  Biso   1.000  N
  O15      1.0000 0.12991  0.35099  0.67964  Biso   1.000  O
  H71      1.0000 0.36457  0.44060  0.72799  Biso   1.000  H
  C67      1.0000 0.28323  0.39309  0.78568  Biso   1.000  C
  N34      1.0000 0.33436  0.35099  0.82328  Biso   1.000  N
  O16      1.0000 0.47235  0.29860  0.82303  Biso   1.000  O
  N35      1.0000 0.24532  0.03180  0.61235  Biso   1.000  N
  O17      1.0000 0.15363  0.11440  0.57699  Biso   1.000  O
  C68      1.0000 0.33886  0.01290  0.60598  Biso   1.000  C
  H72      1.0000 0.41381  0.06109  0.54659  Biso   1.000  H
  N36      1.0000 0.38763  0.00271  0.65731  Biso   1.000  N
  O18      1.0000 0.51144  0.04630  0.70202  Biso   1.000  O
  C69      1.0000 0.11674  0.36549  0.79640  Biso   1.000  C
  H73      1.0000 0.27373  0.43591  0.80190  Biso   1.000  H
  C70      1.0000 0.31766  0.34548  0.88101  Biso   1.000  C
  C71      1.0000 0.17464  0.98449  0.62269  Biso   1.000  C
  H74      1.0000 0.34373  0.97521  0.58158  Biso   1.000  H
  C72      1.0000 0.38417  0.94350  0.68828  Biso   1.000  C
  H75      1.0000 0.11224  0.40662  0.81542  Biso   1.000  H
  H76      1.0000 0.06563  0.36230  0.77092  Biso   1.000  H
  N37      1.0000 0.11106  0.31392  0.83676  Biso   1.000  N
  H77      1.0000 0.37274  0.33151  0.89958  Biso   1.000  H
  H78      1.0000 0.30263  0.38792  0.89520  Biso   1.000  H
  N38      1.0000 0.24587  0.30101  0.89491  Biso   1.000  N
  H79      1.0000 0.11766  0.00101  0.60838  Biso   1.000  H
  H80      1.0000 0.18815  0.94509  0.60280  Biso   1.000  H
  N39      1.0000 0.16537  0.96926  0.68055  Biso   1.000  N
  H81      1.0000 0.38164  0.90759  0.66239  Biso   1.000  H
  H82      1.0000 0.43954  0.93929  0.70992  Biso   1.000  H
  N40      1.0000 0.30841  0.93838  0.72501  Biso   1.000  N
  C73      1.0000 0.04837  0.26520  0.82990  Biso   1.000  C
  C74      1.0000 0.14946  0.31571  0.89309  Biso   1.000  C
  C75      1.0000 0.26445  0.24258  0.91811  Biso   1.000  C
  C76      1.0000 0.08695  0.98299  0.70731  Biso   1.000  C
  C77      1.0000 0.21671  0.91861  0.70958  Biso   1.000  C
  C78      1.0000 0.31645  0.95582  0.77960  Biso   1.000  C
  N41      1.0000 0.04768  0.22919  0.87680  Biso   1.000  N
  O19      1.0000 0.00086  0.25718  0.78936  Biso   1.000  O
  C79      1.0000 0.10718  0.25481  0.92130  Biso   1.000  C
  C80      1.0000 0.12648  0.37840  0.92349  Biso   1.000  C
  N42      1.0000 0.18586  0.21368  0.93251  Biso   1.000  N
  O20      1.0000 0.34008  0.22049  0.92672  Biso   1.000  O
  O21      1.0000 0.02303  0.01518  0.68878  Biso   1.000  O
  N43      1.0000 0.08847  0.95249  0.75818  Biso   1.000  N
  C81      1.0000 0.16965  0.91479  0.76749  Biso   1.000  C
  C82      1.0000 0.21527  0.85418  0.67939  Biso   1.000  C
  N44      1.0000 0.23562  0.94567  0.80467  Biso   1.000  N
  O22      1.0000 0.38638  0.97327  0.80272  Biso   1.000  O
  C83      1.0000 0.98473  0.17728  0.88391  Biso   1.000  C
  C84      1.0000 0.05526  0.27192  0.97250  Biso   1.000  C
  H83      1.0000 0.14744  0.41518  0.90240  Biso   1.000  H
  H84      1.0000 0.15677  0.37902  0.95939  Biso   1.000  H
  C85      1.0000 0.02474  0.38342  0.93102  Biso   1.000  C
  C86      1.0000 0.18458  0.15389  0.96212  Biso   1.000  C
  C87      1.0000 0.01875  0.96428  0.79838  Biso   1.000  C
  C88      1.0000 0.15146  0.84558  0.78419  Biso   1.000  C
  C89      1.0000 0.25697  0.79981  0.71302  Biso   1.000  C
  H85      1.0000 0.24765  0.85858  0.64511  Biso   1.000  H
  H86      1.0000 0.15311  0.84311  0.67000  Biso   1.000  H
  C90      1.0000 0.23025  0.94891  0.86431  Biso   1.000  C
  N45      1.0000 0.02237  0.11319  0.87448  Biso   1.000  N
  H87      1.0000 0.96196  0.17912  0.92121  Biso   1.000  H
  H88      1.0000 0.93397  0.18371  0.85860  Biso   1.000  H
  H89      1.0000 0.02476  0.23378  0.98598  Biso   1.000  H
  C91      1.0000 0.98532  0.32528  0.96022  Biso   1.000  C
  H90      1.0000 0.09702  0.28661  0.00120  Biso   1.000  H
  H91      1.0000 0.01174  0.42199  0.95211  Biso   1.000  H
  H92      1.0000 0.99565  0.38782  0.89491  Biso   1.000  H
  N46      1.0000 0.16373  0.09841  0.92820  Biso   1.000  N
  H93      1.0000 0.24315  0.14741  0.97982  Biso   1.000  H
  H94      1.0000 0.14024  0.15689  0.99099  Biso   1.000  H
  N47      1.0000 0.03755  0.01619  0.83602  Biso   1.000  N
  H95      1.0000 0.96262  0.97361  0.77869  Biso   1.000  H
  H96      1.0000 0.00987  0.92508  0.81960  Biso   1.000  H
  H97      1.0000 0.13616  0.84398  0.82299  Biso   1.000  H
  H98      1.0000 0.10075  0.82881  0.76281  Biso   1.000  H
  C92      1.0000 0.23457  0.80430  0.77431  Biso   1.000  C
  H99      1.0000 0.23534  0.75882  0.69850  Biso   1.000  H
  H100     1.0000 0.32197  0.80092  0.70909  Biso   1.000  H
  N48      1.0000 0.18353  0.00580  0.88395  Biso   1.000  N
  H101     1.0000 0.19926  0.91068  0.87742  Biso   1.000  H
  H102     1.0000 0.29084  0.94828  0.87998  Biso   1.000  H
  C93      1.0000 0.99572  0.07521  0.83180  Biso   1.000  C
  C94      1.0000 0.07174  0.07550  0.91629  Biso   1.000  C
  H103     1.0000 0.95957  0.33939  0.99471  Biso   1.000  H
  H104     1.0000 0.93693  0.30739  0.93739  Biso   1.000  H
  C95      1.0000 0.22573  0.05442  0.91191  Biso   1.000  C
  C96      1.0000 0.08592  0.00952  0.88738  Biso   1.000  C
  H105     1.0000 0.28565  0.82262  0.79449  Biso   1.000  H
  H106     1.0000 0.22427  0.76109  0.78862  Biso   1.000  H
  O23      1.0000 0.94117  0.09053  0.79491  Biso   1.000  O
  H107     1.0000 0.03705  0.07090  0.95021  Biso   1.000  H
  O24      1.0000 0.30786  0.05814  0.92093  Biso   1.000  O
  H108     1.0000 0.06195  0.97390  0.90951  Biso   1.000  H
  O25      1.0000 0.69226  0.55814  0.57910  Biso   1.000  O
  C97      1.0000 0.77432  0.55442  0.58812  Biso   1.000  C
  N49      1.0000 0.83632  0.59841  0.57182  Biso   1.000  N
  N50      1.0000 0.81652  0.50580  0.61603  Biso   1.000  N
  C98      1.0000 0.81553  0.65389  0.53791  Biso   1.000  C
  C99      1.0000 0.92831  0.57550  0.58369  Biso   1.000  C
  C100     1.0000 0.91413  0.50952  0.61260  Biso   1.000  C
  C101     1.0000 0.76980  0.44891  0.63572  Biso   1.000  C
  H109     1.0000 0.75690  0.64741  0.52020  Biso   1.000  H
  H110     1.0000 0.85981  0.65689  0.50900  Biso   1.000  H
  N51      1.0000 0.81426  0.71368  0.56748  Biso   1.000  N
  H111     1.0000 0.96306  0.57090  0.54982  Biso   1.000  H
  N52      1.0000 0.97775  0.61319  0.62554  Biso   1.000  N
  H112     1.0000 0.93817  0.47390  0.59051  Biso   1.000  H
  N53      1.0000 0.96257  0.51619  0.66401  Biso   1.000  N
  H113     1.0000 0.80086  0.41068  0.62261  Biso   1.000  H
  H114     1.0000 0.70921  0.44828  0.62000  Biso   1.000  H
  N54      1.0000 0.76443  0.44567  0.69536  Biso   1.000  N
  C102     1.0000 0.89294  0.75481  0.57869  Biso   1.000  C
  C103     1.0000 0.73560  0.74258  0.58191  Biso   1.000  C
  C104     1.0000 0.01532  0.67728  0.61611  Biso   1.000  C
  C105     1.0000 0.00433  0.57521  0.66818  Biso   1.000  C
  C106     1.0000 0.98137  0.46428  0.70160  Biso   1.000  C
  C107     1.0000 0.83046  0.41479  0.73250  Biso   1.000  C
  C108     1.0000 0.68367  0.45582  0.72042  Biso   1.000  C
  C109     1.0000 0.85066  0.81571  0.60689  Biso   1.000  C
  C110     1.0000 0.94485  0.77192  0.52748  Biso   1.000  C
  N55      1.0000 0.95244  0.72919  0.62323  Biso   1.000  N
  N56      1.0000 0.75424  0.80101  0.60507  Biso   1.000  N
  O26      1.0000 0.66004  0.72049  0.57331  Biso   1.000  O
  H115     1.0000 0.03816  0.67912  0.57881  Biso   1.000  H
  H116     1.0000 0.06615  0.68371  0.64138  Biso   1.000  H
  O27      1.0000 0.05894  0.59053  0.70508  Biso   1.000  O
  H117     1.0000 0.99025  0.42508  0.68039  Biso   1.000  H
  N57      1.0000 0.91165  0.45249  0.74180  Biso   1.000  N
  H118     1.0000 0.03743  0.47361  0.72129  Biso   1.000  H
  C111     1.0000 0.78334  0.41861  0.79040  Biso   1.000  C
  C112     1.0000 0.84865  0.34558  0.71579  Biso   1.000  C
  N58      1.0000 0.69164  0.43838  0.77497  Biso   1.000  N
  O28      1.0000 0.61374  0.47327  0.69730  Biso   1.000  O
  C113     1.0000 0.87364  0.87840  0.57649  Biso   1.000  C
  N59      1.0000 0.88906  0.81392  0.66322  Biso   1.000  N
  H119     1.0000 0.97535  0.73378  0.51400  Biso   1.000  H
  H120     1.0000 0.90303  0.78661  0.49878  Biso   1.000  H
  C114     1.0000 0.01473  0.82528  0.53981  Biso   1.000  C
  C115     1.0000 0.95175  0.76520  0.67009  Biso   1.000  C
  C116     1.0000 0.68246  0.84548  0.61901  Biso   1.000  C
  C117     1.0000 0.91317  0.48299  0.79271  Biso   1.000  C
  C118     1.0000 0.78485  0.35418  0.82059  Biso   1.000  C
  N60      1.0000 0.83475  0.46926  0.81943  Biso   1.000  N
  H121     1.0000 0.86396  0.34398  0.67699  Biso   1.000  H
  H122     1.0000 0.89937  0.32881  0.73721  Biso   1.000  H
  C119     1.0000 0.76554  0.30430  0.72571  Biso   1.000  C
  C120     1.0000 0.61595  0.44350  0.81170  Biso   1.000  C
  H123     1.0000 0.85261  0.91518  0.59759  Biso   1.000  H
  H124     1.0000 0.84335  0.87902  0.54059  Biso   1.000  H
  C121     1.0000 0.97531  0.88342  0.56901  Biso   1.000  C
  C122     1.0000 0.88331  0.86549  0.70359  Biso   1.000  C
  H125     1.0000 0.04055  0.83939  0.50532  Biso   1.000  H
  H126     1.0000 0.06312  0.80739  0.56260  Biso   1.000  H
  O29      1.0000 0.99925  0.75718  0.71062  Biso   1.000  O
  H127     1.0000 0.62731  0.83151  0.60040  Biso   1.000  H
  H128     1.0000 0.69742  0.88792  0.60478  Biso   1.000  H
  N61      1.0000 0.66576  0.85099  0.67670  Biso   1.000  N
  O30      1.0000 0.97702  0.51518  0.81120  Biso   1.000  O
  C123     1.0000 0.74315  0.29981  0.78701  Biso   1.000  C
  H129     1.0000 0.75247  0.35858  0.85492  Biso   1.000  H
  H130     1.0000 0.84694  0.34311  0.83002  Biso   1.000  H
  C124     1.0000 0.82548  0.48449  0.87729  Biso   1.000  C
  H131     1.0000 0.71446  0.32262  0.70549  Biso   1.000  H
  H132     1.0000 0.77585  0.26109  0.71140  Biso   1.000  H
  H133     1.0000 0.61847  0.40759  0.83759  Biso   1.000  H
  H134     1.0000 0.56057  0.43929  0.79011  Biso   1.000  H
  N62      1.0000 0.61242  0.50271  0.84268  Biso   1.000  N
  H135     1.0000 0.98831  0.92199  0.54791  Biso   1.000  H
  H136     1.0000 0.00446  0.88782  0.60511  Biso   1.000  H
  H137     1.0000 0.88787  0.90662  0.68460  Biso   1.000  H
  H138     1.0000 0.93442  0.86230  0.72911  Biso   1.000  H
  N63      1.0000 0.80132  0.86510  0.73502  Biso   1.000  N
  C125     1.0000 0.71682  0.89309  0.71430  Biso   1.000  C
  C126     1.0000 0.58636  0.82968  0.70011  Biso   1.000  C
  H139     1.0000 0.76477  0.25882  0.80148  Biso   1.000  H
  H140     1.0000 0.67815  0.30092  0.79089  Biso   1.000  H
  H141     1.0000 0.81197  0.44509  0.89719  Biso   1.000  H
  H142     1.0000 0.88246  0.50101  0.89160  Biso   1.000  H
  N64      1.0000 0.75473  0.53180  0.88763  Biso   1.000  N
  C127     1.0000 0.66126  0.51290  0.89400  Biso   1.000  C
  C128     1.0000 0.54547  0.54659  0.83560  Biso   1.000  C
  C129     1.0000 0.80456  0.86259  0.79160  Biso   1.000  C
  C130     1.0000 0.65803  0.89671  0.76591  Biso   1.000  C
  H143     1.0000 0.72632  0.93591  0.69809  Biso   1.000  H
  N65      1.0000 0.58471  0.85191  0.75338  Biso   1.000  N
  O31      1.0000 0.52777  0.79860  0.67699  Biso   1.000  O
  C131     1.0000 0.77218  0.58980  0.91389  Biso   1.000  C
  H144     1.0000 0.65632  0.47521  0.91840  Biso   1.000  H
  C132     1.0000 0.61673  0.57182  0.91898  Biso   1.000  C
  N66      1.0000 0.55275  0.59198  0.87601  Biso   1.000  N
  O32      1.0000 0.48867  0.54630  0.79797  Biso   1.000  O
  N67      1.0000 0.71854  0.87632  0.81013  Biso   1.000  N
  O33      1.0000 0.87014  0.85099  0.82034  Biso   1.000  O
  H145     1.0000 0.63554  0.94060  0.77199  Biso   1.000  H
  C133     1.0000 0.50852  0.84219  0.78920  Biso   1.000  C
  N68      1.0000 0.69158  0.61600  0.92858  Biso   1.000  N
  O34      1.0000 0.84648  0.61440  0.92299  Biso   1.000  O
  H146     1.0000 0.58624  0.56109  0.95339  Biso   1.000  H
  C134     1.0000 0.48204  0.63818  0.88771  Biso   1.000  C
  C135     1.0000 0.69806  0.88381  0.86790  Biso   1.000  C
  H147     1.0000 0.45772  0.82649  0.76711  Biso   1.000  H
  H148     1.0000 0.49144  0.88352  0.80479  Biso   1.000  H
  N69      1.0000 0.52598  0.79720  0.83378  Biso   1.000  N
  C136     1.0000 0.68154  0.67448  0.96059  Biso   1.000  C
  H149     1.0000 0.46388  0.63248  0.92568  Biso   1.000  H
  H150     1.0000 0.43005  0.62861  0.86418  Biso   1.000  H
  N70      1.0000 0.50664  0.70512  0.87977  Biso   1.000  N
  H151     1.0000 0.75367  0.89241  0.88842  Biso   1.000  H
  H152     1.0000 0.65905  0.92098  0.87208  Biso   1.000  H
  N71      1.0000 0.65452  0.82760  0.89202  Biso   1.000  N
  C137     1.0000 0.55874  0.81310  0.88900  Biso   1.000  C
  C138     1.0000 0.49053  0.73538  0.83081  Biso   1.000  C
  H153     1.0000 0.64018  0.66622  0.99028  Biso   1.000  H
  H154     1.0000 0.73966  0.68569  0.97709  Biso   1.000  H
  N72      1.0000 0.64873  0.72890  0.92862  Biso   1.000  N
  C139     1.0000 0.55265  0.74669  0.92010  Biso   1.000  C
  C140     1.0000 0.70429  0.77980  0.91571  Biso   1.000  C
  C141     1.0000 0.50212  0.86409  0.91609  Biso   1.000  C
  O35      1.0000 0.45012  0.71266  0.79044  Biso   1.000  O
  C142     1.0000 0.50316  0.75152  0.97341  Biso   1.000  C
  O36      1.0000 0.78577  0.78188  0.92601  Biso   1.000  O
  C143     1.0000 0.40787  0.83862  0.92800  Biso   1.000  C
  H155     1.0000 0.53122  0.87762  0.95041  Biso   1.000  H
  H156     1.0000 0.49735  0.90150  0.89202  Biso   1.000  H
  H157     1.0000 0.49798  0.70870  0.98950  Biso   1.000  H
  H158     1.0000 0.53774  0.77811  0.99909  Biso   1.000  H
  C144     1.0000 0.40947  0.78028  0.96559  Biso   1.000  C
  H159     1.0000 0.37802  0.82711  0.89330  Biso   1.000  H
  H160     1.0000 0.37295  0.87260  0.94500  Biso   1.000  H
  H161     1.0000 0.36933  0.74761  0.95021  Biso   1.000  H
  H162     1.0000 0.38652  0.79270  0.00141  Biso   1.000  H
  O37      1.0000 0.30782  0.44186  0.42090  Biso   1.000  O
  C145     1.0000 0.22569  0.44558  0.41189  Biso   1.000  C
  N73      1.0000 0.16369  0.40159  0.42818  Biso   1.000  N
  N74      1.0000 0.18349  0.49420  0.38397  Biso   1.000  N
  C146     1.0000 0.18455  0.34611  0.46210  Biso   1.000  C
  C147     1.0000 0.07170  0.42450  0.41631  Biso   1.000  C
  C148     1.0000 0.08595  0.49048  0.38740  Biso   1.000  C
  C149     1.0000 0.23021  0.55109  0.36428  Biso   1.000  C
  N75      1.0000 0.18582  0.28632  0.43253  Biso   1.000  N
  H163     1.0000 0.24311  0.35259  0.47980  Biso   1.000  H
  H164     1.0000 0.14020  0.34311  0.49101  Biso   1.000  H
  N76      1.0000 0.02233  0.38681  0.37446  Biso   1.000  N
  H165     1.0000 0.03701  0.42910  0.45019  Biso   1.000  H
  N77      1.0000 0.03751  0.48381  0.33599  Biso   1.000  N
  H166     1.0000 0.06191  0.52610  0.40949  Biso   1.000  H
  H167     1.0000 0.19922  0.58932  0.37739  Biso   1.000  H
  H168     1.0000 0.29080  0.55172  0.38000  Biso   1.000  H
  N78      1.0000 0.23564  0.55433  0.30465  Biso   1.000  N
  C150     1.0000 0.10714  0.24519  0.42132  Biso   1.000  C
  C151     1.0000 0.26441  0.25742  0.41809  Biso   1.000  C
  C152     1.0000 0.98469  0.32272  0.38389  Biso   1.000  C
  C153     1.0000 0.99575  0.42479  0.33182  Biso   1.000  C
  C154     1.0000 0.01871  0.53572  0.29840  Biso   1.000  C
  C155     1.0000 0.16962  0.58521  0.26751  Biso   1.000  C
  C156     1.0000 0.31641  0.54418  0.27958  Biso   1.000  C
  C157     1.0000 0.14942  0.18429  0.39311  Biso   1.000  C
  N79      1.0000 0.04764  0.27081  0.37677  Biso   1.000  N
  C158     1.0000 0.05523  0.22808  0.47252  Biso   1.000  C
  N80      1.0000 0.24583  0.19899  0.39493  Biso   1.000  N
  O38      1.0000 0.34004  0.27951  0.42669  Biso   1.000  O
  H169     1.0000 0.96192  0.32088  0.42119  Biso   1.000  H
  H170     1.0000 0.93393  0.31629  0.35862  Biso   1.000  H
  O39      1.0000 0.94114  0.40947  0.29493  Biso   1.000  O
  H171     1.0000 0.00983  0.57492  0.31962  Biso   1.000  H
  N81      1.0000 0.08843  0.54751  0.25820  Biso   1.000  N
  H172     1.0000 0.96258  0.52639  0.27871  Biso   1.000  H
  C159     1.0000 0.21674  0.58139  0.20960  Biso   1.000  C
  C160     1.0000 0.15142  0.65442  0.28421  Biso   1.000  C
  N82      1.0000 0.30844  0.56162  0.22503  Biso   1.000  N
  O40      1.0000 0.38634  0.52673  0.30270  Biso   1.000  O
  N83      1.0000 0.11102  0.18608  0.33678  Biso   1.000  N
  C161     1.0000 0.12644  0.12160  0.42351  Biso   1.000  C
  C162     1.0000 0.04833  0.23480  0.32992  Biso   1.000  C
  H173     1.0000 0.02472  0.26622  0.48600  Biso   1.000  H
  H174     1.0000 0.09704  0.21339  0.50118  Biso   1.000  H
  C163     1.0000 0.98535  0.17472  0.46019  Biso   1.000  C
  C164     1.0000 0.31762  0.15452  0.38099  Biso   1.000  C
  C165     1.0000 0.08691  0.51701  0.20729  Biso   1.000  C
  N84      1.0000 0.16533  0.53074  0.18057  Biso   1.000  N
  C166     1.0000 0.21523  0.64582  0.17941  Biso   1.000  C
  H175     1.0000 0.13612  0.65602  0.32301  Biso   1.000  H
  H176     1.0000 0.10071  0.67119  0.26279  Biso   1.000  H
  C167     1.0000 0.23453  0.69570  0.27429  Biso   1.000  C
  C168     1.0000 0.38413  0.55650  0.18830  Biso   1.000  C
  C169     1.0000 0.11670  0.13451  0.29641  Biso   1.000  C
  H177     1.0000 0.14740  0.08482  0.40242  Biso   1.000  H
  H178     1.0000 0.15673  0.12098  0.45941  Biso   1.000  H
  C170     1.0000 0.02470  0.11658  0.43099  Biso   1.000  C
  O41      1.0000 0.00083  0.24282  0.28938  Biso   1.000  O
  H179     1.0000 0.95953  0.16061  0.49469  Biso   1.000  H
  H180     1.0000 0.93689  0.19261  0.43741  Biso   1.000  H
  N85      1.0000 0.33432  0.14901  0.32330  Biso   1.000  N
  H181     1.0000 0.37270  0.16849  0.39960  Biso   1.000  H
  H182     1.0000 0.30259  0.11208  0.39522  Biso   1.000  H
  O42      1.0000 0.02299  0.48482  0.18880  Biso   1.000  O
  C171     1.0000 0.17460  0.51551  0.12271  Biso   1.000  C
  C172     1.0000 0.25693  0.70019  0.21300  Biso   1.000  C
  H183     1.0000 0.24761  0.64142  0.14508  Biso   1.000  H
  H184     1.0000 0.15314  0.65689  0.16998  Biso   1.000  H
  H185     1.0000 0.28561  0.67738  0.29451  Biso   1.000  H
  H186     1.0000 0.22423  0.73891  0.28860  Biso   1.000  H
  N86      1.0000 0.38759  0.49729  0.15733  Biso   1.000  N
  H187     1.0000 0.38160  0.59241  0.16241  Biso   1.000  H
  H188     1.0000 0.43950  0.56071  0.20989  Biso   1.000  H
  N87      1.0000 0.19869  0.13490  0.26498  Biso   1.000  N
  H189     1.0000 0.11221  0.09338  0.31540  Biso   1.000  H
  H190     1.0000 0.06559  0.13770  0.27090  Biso   1.000  H
  H191     1.0000 0.01170  0.07801  0.45209  Biso   1.000  H
  H192     1.0000 0.99561  0.11218  0.39489  Biso   1.000  H
  C173     1.0000 0.28319  0.10691  0.28570  Biso   1.000  C
  C174     1.0000 0.41372  0.17032  0.29989  Biso   1.000  C
  N88      1.0000 0.24528  0.46820  0.11237  Biso   1.000  N
  H193     1.0000 0.18811  0.55491  0.10282  Biso   1.000  H
  H194     1.0000 0.11762  0.49899  0.10840  Biso   1.000  H
  H195     1.0000 0.23530  0.74118  0.19852  Biso   1.000  H
  H196     1.0000 0.32193  0.69908  0.20911  Biso   1.000  H
  C175     1.0000 0.33882  0.48710  0.10600  Biso   1.000  C
  C176     1.0000 0.45461  0.45341  0.16440  Biso   1.000  C
  C177     1.0000 0.19552  0.13741  0.20840  Biso   1.000  C
  C178     1.0000 0.34204  0.10329  0.23409  Biso   1.000  C
  H197     1.0000 0.27369  0.06409  0.30192  Biso   1.000  H
  N89      1.0000 0.41530  0.14809  0.24662  Biso   1.000  N
  O43      1.0000 0.47231  0.20140  0.32301  Biso   1.000  O
  C179     1.0000 0.22789  0.41020  0.08611  Biso   1.000  C
  C180     1.0000 0.38328  0.42818  0.08098  Biso   1.000  C
  H198     1.0000 0.34369  0.52479  0.08160  Biso   1.000  H
  N90      1.0000 0.44733  0.40802  0.12399  Biso   1.000  N
  O44      1.0000 0.51141  0.45370  0.20204  Biso   1.000  O
  N91      1.0000 0.28154  0.12368  0.18988  Biso   1.000  N
  O45      1.0000 0.12994  0.14901  0.17966  Biso   1.000  O
  H199     1.0000 0.36453  0.05940  0.22801  Biso   1.000  H
  C181     1.0000 0.49149  0.15781  0.21080  Biso   1.000  C
  N92      1.0000 0.30850  0.38400  0.07143  Biso   1.000  N
  O46      1.0000 0.15360  0.38560  0.07701  Biso   1.000  O
  H200     1.0000 0.41377  0.43891  0.04661  Biso   1.000  H
  C182     1.0000 0.51803  0.36182  0.11229  Biso   1.000  C
  C183     1.0000 0.30201  0.11619  0.13210  Biso   1.000  C
  H201     1.0000 0.54229  0.17351  0.23289  Biso   1.000  H
  H202     1.0000 0.50864  0.11648  0.19521  Biso   1.000  H
  N93      1.0000 0.47410  0.20280  0.16622  Biso   1.000  N
  C184     1.0000 0.31847  0.32552  0.03941  Biso   1.000  C
  N94      1.0000 0.49344  0.29488  0.12023  Biso   1.000  N
  H203     1.0000 0.53620  0.36752  0.07428  Biso   1.000  H
  H204     1.0000 0.57002  0.37139  0.13582  Biso   1.000  H
  H205     1.0000 0.24640  0.10759  0.11158  Biso   1.000  H
  H206     1.0000 0.34103  0.07902  0.12788  Biso   1.000  H
  N95      1.0000 0.34549  0.17240  0.10799  Biso   1.000  N
  C185     1.0000 0.44134  0.18690  0.11101  Biso   1.000  C
  C186     1.0000 0.50948  0.26462  0.16920  Biso   1.000  C
  N96      1.0000 0.35128  0.27110  0.07138  Biso   1.000  N
  H207     1.0000 0.35990  0.33378  0.00972  Biso   1.000  H
  H208     1.0000 0.26042  0.31431  0.02291  Biso   1.000  H
  C187     1.0000 0.44743  0.25331  0.07990  Biso   1.000  C
  C188     1.0000 0.29579  0.22020  0.08429  Biso   1.000  C
  C189     1.0000 0.49789  0.13591  0.08392  Biso   1.000  C
  O47      1.0000 0.54989  0.28734  0.20956  Biso   1.000  O
  C190     1.0000 0.49692  0.24848  0.02659  Biso   1.000  C
  O48      1.0000 0.21431  0.21812  0.07399  Biso   1.000  O
  C191     1.0000 0.59221  0.16138  0.07200  Biso   1.000  C
  H209     1.0000 0.46879  0.12238  0.04959  Biso   1.000  H
  H210     1.0000 0.50272  0.09850  0.10799  Biso   1.000  H
  H211     1.0000 0.50210  0.29130  0.01051  Biso   1.000  H
  H212     1.0000 0.46227  0.22189  0.00091  Biso   1.000  H
  C192     1.0000 0.59061  0.21972  0.03441  Biso   1.000  C
  H213     1.0000 0.62199  0.17289  0.10670  Biso   1.000  H
  H214     1.0000 0.62713  0.12740  0.05501  Biso   1.000  H
  H215     1.0000 0.63068  0.25239  0.04980  Biso   1.000  H
  H216     1.0000 0.61356  0.20730  0.99859  Biso   1.000  H
  Ne1      1.0000 0.25536  0.34019  0.24889  Biso   1.000  Ne
  He1      1.0000 0.43793  0.36597  0.32197  Biso   1.000  He
  He2      1.0000 0.07391  0.33354  0.19171  Biso   1.000  He
  Ar1      1.0000 0.26157  0.34030  0.25275  Biso   1.000  Ar
  Ne2      1.0000 0.25539  0.15981  0.74888  Biso   1.000  Ne
  He3      1.0000 0.43715  0.13417  0.82167  Biso   1.000  He
  He4      1.0000 0.04578  0.17057  0.68182  Biso   1.000  He
  Ar2      1.0000 0.26320  0.15983  0.75405  Biso   1.000  Ar
  Ne3      1.0000 0.74467  0.84019  0.25112  Biso   1.000  Ne
  He5      1.0000 0.93192  0.79793  0.32729  Biso   1.000  He
  He6      1.0000 0.57328  0.86410  0.18240  Biso   1.000  He
  Ar3      1.0000 0.73687  0.84017  0.24592  Biso   1.000  Ar
  Ne4      1.0000 0.74470  0.65981  0.75111  Biso   1.000  Ne
  He7      1.0000 0.92656  0.66652  0.80843  Biso   1.000  He
  He8      1.0000 0.57181  0.63565  0.68183  Biso   1.000  He
  Ar4      1.0000 0.73694  0.65983  0.74595  Biso   1.000  Ar
