data_image0
_cell_length_a       12.192
_cell_length_b       17.146
_cell_length_c       16.997
_cell_angle_alpha    90
_cell_angle_beta     98.94
_cell_angle_gamma    90

_symmetry_space_group_name_H-M    "P 1"
_symmetry_int_tables_number       1

loop_
  _symmetry_equiv_pos_as_xyz
  'x, y, z'

loop_
  _atom_site_label
  _atom_site_occupancy
  _atom_site_fract_x
  _atom_site_fract_y
  _atom_site_fract_z
  _atom_site_thermal_displace_type
  _atom_site_B_iso_or_equiv
  _atom_site_type_symbol
  O1       1.0000 0.49428  0.64149  0.46121  Biso   1.000  O
  C1       1.0000 0.41897  0.67048  0.41422  Biso   1.000  C
  N1       1.0000 0.30822  0.66033  0.41488  Biso   1.000  N
  N2       1.0000 0.43203  0.72040  0.35258  Biso   1.000  N
  C2       1.0000 0.26797  0.61198  0.47443  Biso   1.000  C
  C3       1.0000 0.24030  0.70133  0.35085  Biso   1.000  C
  C4       1.0000 0.32635  0.75265  0.31381  Biso   1.000  C
  C5       1.0000 0.53962  0.75131  0.34490  Biso   1.000  C
  N3       1.0000 0.24681  0.53208  0.45133  Biso   1.000  N
  H1       1.0000 0.32214  0.61309  0.52268  Biso   1.000  H
  H2       1.0000 0.19972  0.63467  0.48688  Biso   1.000  H
  N4       1.0000 0.19681  0.65100  0.28337  Biso   1.000  N
  C6       1.0000 0.14806  0.75050  0.37902  Biso   1.000  C
  N5       1.0000 0.30248  0.73387  0.22936  Biso   1.000  N
  C7       1.0000 0.31480  0.83961  0.33168  Biso   1.000  C
  H3       1.0000 0.59163  0.73708  0.39189  Biso   1.000  H
  H4       1.0000 0.53502  0.80771  0.34299  Biso   1.000  H
  N6       1.0000 0.58242  0.72378  0.27480  Biso   1.000  N
  C8       1.0000 0.15044  0.50338  0.40177  Biso   1.000  C
  C9       1.0000 0.31821  0.47300  0.48218  Biso   1.000  C
  C10      1.0000 0.10855  0.59407  0.28260  Biso   1.000  C
  C11      1.0000 0.23084  0.67345  0.21369  Biso   1.000  C
  H5       1.0000 0.08753  0.71679  0.38849  Biso   1.000  H
  H6       1.0000 0.17692  0.77651  0.42858  Biso   1.000  H
  C12      1.0000 0.10601  0.80987  0.31708  Biso   1.000  C
  C13      1.0000 0.34902  0.77359  0.16593  Biso   1.000  C
  C14      1.0000 0.19624  0.86790  0.30118  Biso   1.000  C
  H7       1.0000 0.36724  0.86918  0.30607  Biso   1.000  H
  H8       1.0000 0.33214  0.84819  0.38861  Biso   1.000  H
  C15      1.0000 0.55990  0.76391  0.19886  Biso   1.000  C
  C16      1.0000 0.68062  0.68407  0.28397  Biso   1.000  C
  C17      1.0000 0.16410  0.41339  0.40612  Biso   1.000  C
  N7       1.0000 0.14626  0.51948  0.31696  Biso   1.000  N
  H9       1.0000 0.08230  0.52030  0.42077  Biso   1.000  H
  N8       1.0000 0.27458  0.40441  0.45079  Biso   1.000  N
  O2       1.0000 0.40263  0.48140  0.52958  Biso   1.000  O
  H10      1.0000 0.05292  0.61501  0.31202  Biso   1.000  H
  H11      1.0000 0.07320  0.58591  0.22810  Biso   1.000  H
  O3       1.0000 0.19744  0.64487  0.14812  Biso   1.000  O
  H12      1.0000 0.04536  0.83856  0.33430  Biso   1.000  H
  H13      1.0000 0.07698  0.78339  0.26789  Biso   1.000  H
  H14      1.0000 0.29628  0.76957  0.11709  Biso   1.000  H
  H15      1.0000 0.35733  0.82847  0.17927  Biso   1.000  H
  N9       1.0000 0.45464  0.74431  0.15104  Biso   1.000  N
  H16      1.0000 0.18894  0.87717  0.24442  Biso   1.000  H
  H17      1.0000 0.18429  0.91707  0.32667  Biso   1.000  H
  C18      1.0000 0.64635  0.72647  0.15193  Biso   1.000  C
  H18      1.0000 0.57010  0.82037  0.20470  Biso   1.000  H
  N10      1.0000 0.71830  0.68477  0.21143  Biso   1.000  N
  O4       1.0000 0.72771  0.65660  0.34460  Biso   1.000  O
  N11      1.0000 0.15180  0.39035  0.32322  Biso   1.000  N
  H19      1.0000 0.10784  0.38890  0.43340  Biso   1.000  H
  C19      1.0000 0.13780  0.45288  0.27224  Biso   1.000  C
  C20      1.0000 0.32185  0.33063  0.47819  Biso   1.000  C
  C21      1.0000 0.46682  0.69509  0.08916  Biso   1.000  C
  N12      1.0000 0.57680  0.67748  0.09440  Biso   1.000  N
  H20      1.0000 0.68629  0.76589  0.12579  Biso   1.000  H
  C22      1.0000 0.82655  0.65380  0.20113  Biso   1.000  C
  C23      1.0000 0.14126  0.30987  0.29731  Biso   1.000  C
  O5       1.0000 0.11870  0.44903  0.19958  Biso   1.000  O
  N13      1.0000 0.37180  0.28893  0.41911  Biso   1.000  N
  H21      1.0000 0.26405  0.29838  0.49456  Biso   1.000  H
  H22      1.0000 0.37776  0.33938  0.52458  Biso   1.000  H
  O6       1.0000 0.39194  0.67351  0.03806  Biso   1.000  O
  C24      1.0000 0.62204  0.63881  0.03103  Biso   1.000  C
  N14      1.0000 0.82254  0.57553  0.16861  Biso   1.000  N
  H23      1.0000 0.85953  0.68821  0.16599  Biso   1.000  H
  H24      1.0000 0.87446  0.65380  0.25229  Biso   1.000  H
  N15      1.0000 0.24546  0.27103  0.29404  Biso   1.000  N
  H25      1.0000 0.10155  0.28129  0.33322  Biso   1.000  H
  H26      1.0000 0.09683  0.30818  0.24478  Biso   1.000  H
  C25      1.0000 0.31560  0.23341  0.36223  Biso   1.000  C
  C26      1.0000 0.48417  0.29126  0.41911  Biso   1.000  C
  N16      1.0000 0.67538  0.56532  0.05348  Biso   1.000  N
  H27      1.0000 0.67538  0.67322  0.01221  Biso   1.000  H
  H28      1.0000 0.56248  0.62988  0.98702  Biso   1.000  H
  C27      1.0000 0.79341  0.55471  0.08529  Biso   1.000  C
  C28      1.0000 0.84760  0.51131  0.21691  Biso   1.000  C
  C29      1.0000 0.28125  0.25580  0.22411  Biso   1.000  C
  C30      1.0000 0.41256  0.19725  0.32292  Biso   1.000  C
  C31      1.0000 0.25089  0.17118  0.40088  Biso   1.000  C
  N17      1.0000 0.50893  0.24128  0.36074  Biso   1.000  N
  O7       1.0000 0.55156  0.32818  0.46479  Biso   1.000  O
  C32      1.0000 0.62310  0.49679  0.03210  Biso   1.000  C
  C33      1.0000 0.80621  0.46326  0.08642  Biso   1.000  C
  C34      1.0000 0.86963  0.59402  0.03240  Biso   1.000  C
  N18      1.0000 0.83370  0.44593  0.17093  Biso   1.000  N
  O8       1.0000 0.87847  0.51341  0.28862  Biso   1.000  O
  N19      1.0000 0.38050  0.21696  0.23853  Biso   1.000  N
  O9       1.0000 0.23173  0.27167  0.15681  Biso   1.000  O
  C35      1.0000 0.42389  0.11029  0.33698  Biso   1.000  C
  C36      1.0000 0.21595  0.10521  0.34371  Biso   1.000  C
  H29      1.0000 0.29713  0.15088  0.44811  Biso   1.000  H
  H30      1.0000 0.18577  0.19468  0.41720  Biso   1.000  H
  C37      1.0000 0.62254  0.22489  0.35210  Biso   1.000  C
  N20      1.0000 0.69549  0.43620  0.05128  Biso   1.000  N
  O10      1.0000 0.52785  0.49049  0.99833  Biso   1.000  O
  C38      1.0000 0.89727  0.43689  0.03919  Biso   1.000  C
  H31      1.0000 0.85243  0.64919  0.02758  Biso   1.000  H
  H32      1.0000 0.94643  0.58859  0.05712  Biso   1.000  H
  C39      1.0000 0.85375  0.55657  0.94926  Biso   1.000  C
  C40      1.0000 0.86685  0.37052  0.20428  Biso   1.000  C
  C41      1.0000 0.43359  0.18797  0.17391  Biso   1.000  C
  H33      1.0000 0.44900  0.10072  0.39308  Biso   1.000  H
  H34      1.0000 0.47959  0.08988  0.30750  Biso   1.000  H
  C42      1.0000 0.31385  0.06730  0.31101  Biso   1.000  C
  H35      1.0000 0.16323  0.12481  0.29951  Biso   1.000  H
  H36      1.0000 0.17849  0.06567  0.37069  Biso   1.000  H
  N21      1.0000 0.65584  0.26024  0.28206  Biso   1.000  N
  H37      1.0000 0.63221  0.16890  0.34942  Biso   1.000  H
  H38      1.0000 0.67090  0.24367  0.39892  Biso   1.000  H
  C43      1.0000 0.66574  0.35635  0.03395  Biso   1.000  C
  H39      1.0000 0.96859  0.45591  0.06551  Biso   1.000  H
  H40      1.0000 0.90023  0.38038  0.03847  Biso   1.000  H
  C44      1.0000 0.87595  0.46751  0.95366  Biso   1.000  C
  H41      1.0000 0.90399  0.58101  0.91763  Biso   1.000  H
  H42      1.0000 0.77836  0.56590  0.92305  Biso   1.000  H
  N22      1.0000 0.77624  0.32060  0.21768  Biso   1.000  N
  H43      1.0000 0.90950  0.34399  0.16873  Biso   1.000  H
  H44      1.0000 0.91531  0.37822  0.25461  Biso   1.000  H
  H45      1.0000 0.37957  0.18780  0.12561  Biso   1.000  H
  H46      1.0000 0.45634  0.13449  0.18540  Biso   1.000  H
  N23      1.0000 0.53018  0.23265  0.15938  Biso   1.000  N
  H47      1.0000 0.32150  0.01371  0.32929  Biso   1.000  H
  H48      1.0000 0.29782  0.06660  0.25330  Biso   1.000  H
  C45      1.0000 0.63966  0.22297  0.20512  Biso   1.000  C
  C46      1.0000 0.74150  0.31308  0.28975  Biso   1.000  C
  N24      1.0000 0.63239  0.31401  0.10035  Biso   1.000  N
  H49      1.0000 0.72848  0.32981  0.01727  Biso   1.000  H
  H50      1.0000 0.60518  0.35501  0.98952  Biso   1.000  H
  H51      1.0000 0.81253  0.44051  0.92442  Biso   1.000  H
  H52      1.0000 0.93996  0.45597  0.92805  Biso   1.000  H
  C47      1.0000 0.71394  0.27219  0.15723  Biso   1.000  C
  C48      1.0000 0.52724  0.28496  0.09809  Biso   1.000  C
  H53      1.0000 0.66234  0.16809  0.20869  Biso   1.000  H
  O11      1.0000 0.78200  0.34749  0.35103  Biso   1.000  O
  H54      1.0000 0.76250  0.23930  0.13037  Biso   1.000  H
  O12      1.0000 0.44635  0.30100  0.04955  Biso   1.000  O
  C49      1.0000 0.51595  0.79126  0.58092  Biso   1.000  C
  N25      1.0000 0.49118  0.74128  0.63923  Biso   1.000  N
  N26      1.0000 0.62823  0.78893  0.58092  Biso   1.000  N
  O13      1.0000 0.44854  0.82818  0.53518  Biso   1.000  O
  C50      1.0000 0.58754  0.69725  0.67705  Biso   1.000  C
  C51      1.0000 0.37757  0.72489  0.64793  Biso   1.000  C
  C52      1.0000 0.68442  0.73341  0.63774  Biso   1.000  C
  C53      1.0000 0.67825  0.83063  0.52178  Biso   1.000  C
  C54      1.0000 0.57613  0.61029  0.66299  Biso   1.000  C
  N27      1.0000 0.61954  0.71696  0.76150  Biso   1.000  N
  H55      1.0000 0.36782  0.66890  0.65061  Biso   1.000  H
  H56      1.0000 0.32913  0.74367  0.60111  Biso   1.000  H
  N28      1.0000 0.34427  0.76024  0.71796  Biso   1.000  N
  C55      1.0000 0.74913  0.67118  0.59909  Biso   1.000  C
  N29      1.0000 0.75466  0.77103  0.70599  Biso   1.000  N
  H57      1.0000 0.73605  0.79838  0.50540  Biso   1.000  H
  H58      1.0000 0.62235  0.83938  0.47539  Biso   1.000  H
  N30      1.0000 0.72554  0.90435  0.54924  Biso   1.000  N
  H59      1.0000 0.55102  0.60066  0.60689  Biso   1.000  H
  H60      1.0000 0.52043  0.58988  0.69247  Biso   1.000  H
  C56      1.0000 0.68625  0.56730  0.68896  Biso   1.000  C
  C57      1.0000 0.56643  0.68797  0.82606  Biso   1.000  C
  C58      1.0000 0.71886  0.75580  0.77585  Biso   1.000  C
  C59      1.0000 0.36045  0.72297  0.79491  Biso   1.000  C
  C60      1.0000 0.25852  0.81308  0.71022  Biso   1.000  C
  C61      1.0000 0.78415  0.60521  0.65626  Biso   1.000  C
  H61      1.0000 0.70299  0.65088  0.55192  Biso   1.000  H
  H62      1.0000 0.81433  0.69468  0.58277  Biso   1.000  H
  C62      1.0000 0.85885  0.80987  0.70272  Biso   1.000  C
  C63      1.0000 0.83592  0.91333  0.59385  Biso   1.000  C
  C64      1.0000 0.68183  0.97300  0.51785  Biso   1.000  C
  H63      1.0000 0.67852  0.51371  0.67068  Biso   1.000  H
  H64      1.0000 0.70228  0.56660  0.74667  Biso   1.000  H
  H65      1.0000 0.62045  0.68780  0.87436  Biso   1.000  H
  H66      1.0000 0.54376  0.63449  0.81457  Biso   1.000  H
  N31      1.0000 0.46984  0.73265  0.84059  Biso   1.000  N
  O14      1.0000 0.76838  0.77167  0.84315  Biso   1.000  O
  C65      1.0000 0.28617  0.77219  0.84274  Biso   1.000  C
  H67      1.0000 0.33777  0.66809  0.79128  Biso   1.000  H
  N32      1.0000 0.22386  0.82060  0.78229  Biso   1.000  N
  O15      1.0000 0.21802  0.84749  0.64894  Biso   1.000  O
  H68      1.0000 0.83688  0.62481  0.70051  Biso   1.000  H
  H69      1.0000 0.82153  0.56567  0.62928  Biso   1.000  H
  H70      1.0000 0.89856  0.78129  0.66681  Biso   1.000  H
  H71      1.0000 0.90327  0.80818  0.75519  Biso   1.000  H
  N33      1.0000 0.84822  0.89035  0.67675  Biso   1.000  N
  H72      1.0000 0.89227  0.88890  0.56657  Biso   1.000  H
  C66      1.0000 0.84966  0.00338  0.59819  Biso   1.000  C
  O16      1.0000 0.59748  0.98140  0.47038  Biso   1.000  O
  N34      1.0000 0.75321  0.03202  0.54864  Biso   1.000  N
  C67      1.0000 0.47288  0.78496  0.90194  Biso   1.000  C
  N35      1.0000 0.36763  0.81401  0.89962  Biso   1.000  N
  H73      1.0000 0.23761  0.73930  0.86960  Biso   1.000  H
  C68      1.0000 0.13326  0.87047  0.79569  Biso   1.000  C
  C69      1.0000 0.86222  0.95288  0.72773  Biso   1.000  C
  N36      1.0000 0.85386  0.01948  0.68306  Biso   1.000  N
  H74      1.0000 0.91772  0.02030  0.57920  Biso   1.000  H
  C70      1.0000 0.73214  0.11198  0.52559  Biso   1.000  C
  O17      1.0000 0.55375  0.80100  0.95042  Biso   1.000  O
  C71      1.0000 0.33437  0.85635  0.96602  Biso   1.000  C
  H75      1.0000 0.09053  0.84399  0.83130  Biso   1.000  H
  H76      1.0000 0.08479  0.87816  0.74536  Biso   1.000  H
  N37      1.0000 0.16632  0.94593  0.82904  Biso   1.000  N
  O18      1.0000 0.88141  0.94903  0.80039  Biso   1.000  O
  C72      1.0000 0.89155  0.09407  0.71737  Biso   1.000  C
  H77      1.0000 0.67796  0.11309  0.47729  Biso   1.000  H
  H78      1.0000 0.80038  0.13467  0.51309  Biso   1.000  H
  N38      1.0000 0.69188  0.16033  0.58509  Biso   1.000  N
  H79      1.0000 0.27154  0.82981  0.98270  Biso   1.000  H
  N39      1.0000 0.30461  0.93620  0.94869  Biso   1.000  N
  H80      1.0000 0.39493  0.85501  0.01045  Biso   1.000  H
  C73      1.0000 0.19390  0.96326  0.91355  Biso   1.000  C
  C74      1.0000 0.15242  0.01131  0.78306  Biso   1.000  C
  H81      1.0000 0.94720  0.11501  0.68801  Biso   1.000  H
  H82      1.0000 0.92690  0.08591  0.77186  Biso   1.000  H
  N40      1.0000 0.80329  0.15100  0.71660  Biso   1.000  N
  C75      1.0000 0.75972  0.20133  0.64912  Biso   1.000  C
  C76      1.0000 0.58113  0.17048  0.58575  Biso   1.000  C
  C77      1.0000 0.37701  0.99679  0.96787  Biso   1.000  C
  C78      1.0000 0.10275  0.93689  0.96078  Biso   1.000  C
  C79      1.0000 0.20670  0.05471  0.91474  Biso   1.000  C
  N41      1.0000 0.17757  0.07553  0.83136  Biso   1.000  N
  O19      1.0000 0.12156  0.01341  0.71141  Biso   1.000  O
  C80      1.0000 0.76926  0.17345  0.78628  Biso   1.000  C
  C81      1.0000 0.67375  0.25265  0.68616  Biso   1.000  C
  C82      1.0000 0.85206  0.25050  0.62101  Biso   1.000  C
  N42      1.0000 0.56808  0.22040  0.64739  Biso   1.000  N
  O20      1.0000 0.50583  0.14149  0.53876  Biso   1.000  O
  O21      1.0000 0.47217  0.99049  0.00164  Biso   1.000  O
  N43      1.0000 0.32464  0.06526  0.94649  Biso   1.000  N
  H83      1.0000 0.03143  0.95591  0.93446  Biso   1.000  H
  H84      1.0000 0.09987  0.88038  0.96150  Biso   1.000  H
  C83      1.0000 0.12408  0.96751  0.04636  Biso   1.000  C
  C84      1.0000 0.13047  0.09402  0.96757  Biso   1.000  C
  C85      1.0000 0.17357  0.15380  0.79890  Biso   1.000  C
  N44      1.0000 0.69754  0.23387  0.77061  Biso   1.000  N
  O22      1.0000 0.80266  0.14487  0.85185  Biso   1.000  O
  C86      1.0000 0.68522  0.33961  0.66829  Biso   1.000  C
  H85      1.0000 0.91257  0.21679  0.61148  Biso   1.000  H
  H86      1.0000 0.82318  0.27651  0.57139  Biso   1.000  H
  C87      1.0000 0.89409  0.30987  0.68289  Biso   1.000  C
  C88      1.0000 0.46049  0.25131  0.65507  Biso   1.000  C
  C89      1.0000 0.37806  0.13881  0.96894  Biso   1.000  C
  H87      1.0000 0.18749  0.94051  0.07555  Biso   1.000  H
  H88      1.0000 0.06014  0.95597  0.07191  Biso   1.000  H
  C90      1.0000 0.14628  0.05657  0.05077  Biso   1.000  C
  H89      1.0000 0.14767  0.14919  0.97239  Biso   1.000  H
  H90      1.0000 0.05369  0.08859  0.94291  Biso   1.000  H
  H91      1.0000 0.14057  0.18821  0.83398  Biso   1.000  H
  H92      1.0000 0.12565  0.15380  0.74768  Biso   1.000  H
  N45      1.0000 0.28173  0.18477  0.78854  Biso   1.000  N
  C91      1.0000 0.65109  0.27359  0.83410  Biso   1.000  C
  C92      1.0000 0.80387  0.36790  0.69879  Biso   1.000  C
  H93      1.0000 0.63286  0.36918  0.69390  Biso   1.000  H
  H94      1.0000 0.66798  0.34819  0.61142  Biso   1.000  H
  H95      1.0000 0.95475  0.33856  0.66567  Biso   1.000  H
  H96      1.0000 0.92304  0.28339  0.73208  Biso   1.000  H
  H97      1.0000 0.40848  0.23708  0.60808  Biso   1.000  H
  H98      1.0000 0.46508  0.30771  0.65698  Biso   1.000  H
  N46      1.0000 0.41769  0.22378  0.72517  Biso   1.000  N
  H99      1.0000 0.32464  0.17316  0.98776  Biso   1.000  H
  N47      1.0000 0.42330  0.17748  0.90557  Biso   1.000  N
  H100     1.0000 0.43763  0.12988  0.01295  Biso   1.000  H
  H101     1.0000 0.09611  0.08101  0.08234  Biso   1.000  H
  H102     1.0000 0.22174  0.06590  0.07692  Biso   1.000  H
  C93      1.0000 0.35375  0.22647  0.84804  Biso   1.000  C
  C94      1.0000 0.31949  0.18407  0.71600  Biso   1.000  C
  H103     1.0000 0.70374  0.26957  0.88288  Biso   1.000  H
  H104     1.0000 0.64278  0.32847  0.82070  Biso   1.000  H
  N48      1.0000 0.54548  0.24431  0.84899  Biso   1.000  N
  H105     1.0000 0.81117  0.37717  0.75561  Biso   1.000  H
  H106     1.0000 0.81573  0.41707  0.67330  Biso   1.000  H
  C95      1.0000 0.44014  0.26391  0.80117  Biso   1.000  C
  C96      1.0000 0.53328  0.19509  0.91081  Biso   1.000  C
  H107     1.0000 0.31373  0.26589  0.87418  Biso   1.000  H
  O23      1.0000 0.27231  0.15660  0.65537  Biso   1.000  O
  H108     1.0000 0.42992  0.32037  0.79527  Biso   1.000  H
  O24      1.0000 0.60816  0.17351  0.96191  Biso   1.000  O
