data_image0
_cell_length_a       13.67
_cell_length_b       13.688
_cell_length_c       26.189
_cell_angle_alpha    90
_cell_angle_beta     92.64
_cell_angle_gamma    90

_symmetry_space_group_name_H-M    "P 1"
_symmetry_int_tables_number       1

loop_
  _symmetry_equiv_pos_as_xyz
  'x, y, z'

loop_
  _atom_site_label
  _atom_site_occupancy
  _atom_site_fract_x
  _atom_site_fract_y
  _atom_site_fract_z
  _atom_site_thermal_displace_type
  _atom_site_B_iso_or_equiv
  _atom_site_type_symbol
  C1       1.0000 0.37662  0.40371  0.39413  Biso   1.000  C
  C2       1.0000 0.37057  0.33270  0.34712  Biso   1.000  C
  N1       1.0000 0.28162  0.39750  0.41351  Biso   1.000  N
  N2       1.0000 0.40044  0.49649  0.37063  Biso   1.000  N
  H1       1.0000 0.42737  0.38347  0.41959  Biso   1.000  H
  N3       1.0000 0.27388  0.29259  0.35063  Biso   1.000  N
  N4       1.0000 0.38477  0.39473  0.30247  Biso   1.000  N
  H2       1.0000 0.42067  0.28163  0.35029  Biso   1.000  H
  C3       1.0000 0.22489  0.32839  0.38985  Biso   1.000  C
  C4       1.0000 0.25896  0.43600  0.46336  Biso   1.000  C
  C5       1.0000 0.41049  0.48853  0.31944  Biso   1.000  C
  C6       1.0000 0.43339  0.57934  0.39914  Biso   1.000  C
  C7       1.0000 0.24359  0.21033  0.31902  Biso   1.000  C
  C8       1.0000 0.40977  0.35798  0.25412  Biso   1.000  C
  O1       1.0000 0.14208  0.30377  0.40228  Biso   1.000  O
  H3       1.0000 0.20260  0.40152  0.47551  Biso   1.000  H
  H4       1.0000 0.31388  0.42307  0.48721  Biso   1.000  H
  N5       1.0000 0.23885  0.53828  0.46351  Biso   1.000  N
  O2       1.0000 0.43965  0.55304  0.29097  Biso   1.000  O
  H5       1.0000 0.47238  0.61989  0.37758  Biso   1.000  H
  H6       1.0000 0.47563  0.55742  0.42769  Biso   1.000  H
  N6       1.0000 0.35609  0.63749  0.41848  Biso   1.000  N
  N7       1.0000 0.21240  0.23122  0.26658  Biso   1.000  N
  H7       1.0000 0.29769  0.16452  0.31872  Biso   1.000  H
  H8       1.0000 0.19008  0.17760  0.33519  Biso   1.000  H
  N8       1.0000 0.32865  0.33058  0.22101  Biso   1.000  N
  H9       1.0000 0.45179  0.30150  0.25951  Biso   1.000  H
  H10      1.0000 0.44740  0.40744  0.23711  Biso   1.000  H
  C9       1.0000 0.31049  0.61748  0.46619  Biso   1.000  C
  C10      1.0000 0.14779  0.57430  0.47112  Biso   1.000  C
  C11      1.0000 0.33557  0.72918  0.40059  Biso   1.000  C
  C12      1.0000 0.27917  0.23882  0.22736  Biso   1.000  C
  C13      1.0000 0.11777  0.22648  0.25029  Biso   1.000  C
  C14      1.0000 0.30288  0.37500  0.17690  Biso   1.000  C
  C15      1.0000 0.25118  0.71281  0.47551  Biso   1.000  C
  H11      1.0000 0.35990  0.60652  0.49390  Biso   1.000  H
  N9       1.0000 0.14941  0.67629  0.47288  Biso   1.000  N
  O3       1.0000 0.07234  0.52469  0.47330  Biso   1.000  O
  N10      1.0000 0.27504  0.77170  0.43343  Biso   1.000  N
  O4       1.0000 0.36886  0.76636  0.36248  Biso   1.000  O
  H12      1.0000 0.32573  0.18432  0.22858  Biso   1.000  H
  C16      1.0000 0.20969  0.23327  0.17862  Biso   1.000  C
  N11      1.0000 0.11589  0.23071  0.19667  Biso   1.000  N
  O5       1.0000 0.04500  0.22078  0.27621  Biso   1.000  O
  N12      1.0000 0.23369  0.32101  0.15045  Biso   1.000  N
  O6       1.0000 0.34203  0.45120  0.16043  Biso   1.000  O
  H13      1.0000 0.26930  0.74342  0.50850  Biso   1.000  H
  C17      1.0000 0.06986  0.73042  0.49405  Biso   1.000  C
  C18      1.0000 0.24687  0.87478  0.42922  Biso   1.000  C
  H14      1.0000 0.22300  0.17453  0.15871  Biso   1.000  H
  C19      1.0000 0.03032  0.19952  0.16540  Biso   1.000  C
  C20      1.0000 0.20787  0.33591  0.09667  Biso   1.000  C
  H15      1.0000 0.02039  0.68483  0.50460  Biso   1.000  H
  H16      1.0000 0.09447  0.76541  0.52421  Biso   1.000  H
  N13      1.0000 0.02559  0.79909  0.45831  Biso   1.000  N
  H17      1.0000 0.25879  0.90561  0.46229  Biso   1.000  H
  H18      1.0000 0.28880  0.90649  0.40529  Biso   1.000  H
  N14      1.0000 0.14696  0.89122  0.41275  Biso   1.000  N
  H19      1.0000 0.04931  0.14502  0.14430  Biso   1.000  H
  H20      1.0000 0.98125  0.17577  0.18791  Biso   1.000  H
  N15      1.0000 0.98804  0.27031  0.13390  Biso   1.000  N
  H21      1.0000 0.24880  0.38742  0.08379  Biso   1.000  H
  H22      1.0000 0.22219  0.27659  0.07821  Biso   1.000  H
  N16      1.0000 0.10811  0.36112  0.08616  Biso   1.000  N
  C21      1.0000 0.06705  0.89231  0.44983  Biso   1.000  C
  C22      1.0000 0.93220  0.79128  0.44199  Biso   1.000  C
  C23      1.0000 0.12528  0.94068  0.36936  Biso   1.000  C
  C24      1.0000 0.02772  0.28923  0.08367  Biso   1.000  C
  C25      1.0000 0.89135  0.29464  0.13413  Biso   1.000  C
  C26      1.0000 0.08110  0.44550  0.06024  Biso   1.000  C
  H23      1.0000 0.08536  0.92687  0.48159  Biso   1.000  H
  C27      1.0000 0.98409  0.94623  0.41661  Biso   1.000  C
  N17      1.0000 0.90678  0.87566  0.41584  Biso   1.000  N
  O7       1.0000 0.87423  0.72494  0.44986  Biso   1.000  O
  N18      1.0000 0.02777  0.96333  0.36860  Biso   1.000  N
  O8       1.0000 0.18006  0.95938  0.33531  Biso   1.000  O
  H24      1.0000 0.04517  0.22911  0.06590  Biso   1.000  H
  C28      1.0000 0.94143  0.34490  0.05588  Biso   1.000  C
  N19      1.0000 0.86470  0.34468  0.08994  Biso   1.000  N
  O9       1.0000 0.83562  0.27659  0.16907  Biso   1.000  O
  O10      1.0000 0.13606  0.51527  0.05306  Biso   1.000  O
  N20      1.0000 0.98516  0.43958  0.04488  Biso   1.000  N
  H25      1.0000 0.96458  0.00752  0.43259  Biso   1.000  H
  C29      1.0000 0.80315  0.90364  0.40373  Biso   1.000  C
  C30      1.0000 0.98449  0.03631  0.33156  Biso   1.000  C
  H26      1.0000 0.92114  0.31151  0.02401  Biso   1.000  H
  C31      1.0000 0.76594  0.35747  0.07331  Biso   1.000  C
  C32      1.0000 0.93735  0.50679  0.00872  Biso   1.000  C
  H27      1.0000 0.76059  0.85411  0.41718  Biso   1.000  H
  H28      1.0000 0.78958  0.96464  0.42081  Biso   1.000  H
  N21      1.0000 0.77998  0.91482  0.35010  Biso   1.000  N
  H29      1.0000 0.96485  0.09359  0.35021  Biso   1.000  H
  N22      1.0000 0.90375  0.00044  0.30281  Biso   1.000  N
  H30      1.0000 0.03439  0.05633  0.30851  Biso   1.000  H
  H31      1.0000 0.72451  0.32488  0.09709  Biso   1.000  H
  H32      1.0000 0.75534  0.32664  0.04021  Biso   1.000  H
  N23      1.0000 0.73691  0.45909  0.06926  Biso   1.000  N
  H33      1.0000 0.98540  0.55362  0.99790  Biso   1.000  H
  H34      1.0000 0.91459  0.47019  0.97882  Biso   1.000  H
  N24      1.0000 0.85664  0.55910  0.02764  Biso   1.000  N
  C33      1.0000 0.70811  0.86214  0.32651  Biso   1.000  C
  C34      1.0000 0.80598  0.00358  0.32223  Biso   1.000  C
  C35      1.0000 0.89993  0.00153  0.25121  Biso   1.000  C
  C36      1.0000 0.75762  0.52331  0.02710  Biso   1.000  C
  C37      1.0000 0.67374  0.50161  0.10198  Biso   1.000  C
  C38      1.0000 0.85925  0.65992  0.03146  Biso   1.000  C
  N25      1.0000 0.68520  0.90824  0.27912  Biso   1.000  N
  O11      1.0000 0.67112  0.78799  0.34173  Biso   1.000  O
  C39      1.0000 0.73882  0.99890  0.27415  Biso   1.000  C
  H35      1.0000 0.79523  0.06290  0.34219  Biso   1.000  H
  N26      1.0000 0.80608  0.99459  0.23225  Biso   1.000  N
  O12      1.0000 0.97209  0.00774  0.22342  Biso   1.000  O
  H36      1.0000 0.73959  0.49218  0.99430  Biso   1.000  H
  C40      1.0000 0.69364  0.61243  0.03566  Biso   1.000  C
  N27      1.0000 0.65238  0.59344  0.08543  Biso   1.000  N
  O13      1.0000 0.64192  0.46333  0.13933  Biso   1.000  O
  N28      1.0000 0.76622  0.69031  0.03582  Biso   1.000  N
  O14      1.0000 0.93056  0.71113  0.02798  Biso   1.000  O
  C41      1.0000 0.59974  0.87924  0.24739  Biso   1.000  C
  H37      1.0000 0.69504  0.05552  0.27120  Biso   1.000  H
  C42      1.0000 0.77809  0.02038  0.18031  Biso   1.000  C
  H38      1.0000 0.64273  0.62062  0.00841  Biso   1.000  H
  C43      1.0000 0.57643  0.64991  0.10672  Biso   1.000  C
  C44      1.0000 0.74012  0.79741  0.03601  Biso   1.000  C
  N29      1.0000 0.62558  0.84008  0.19789  Biso   1.000  N
  H39      1.0000 0.55734  0.93542  0.24188  Biso   1.000  H
  H40      1.0000 0.56343  0.83007  0.26539  Biso   1.000  H
  N30      1.0000 0.73866  0.93951  0.15125  Biso   1.000  N
  H41      1.0000 0.72968  0.07211  0.18050  Biso   1.000  H
  H42      1.0000 0.83501  0.04537  0.16379  Biso   1.000  H
  H43      1.0000 0.54070  0.60878  0.12958  Biso   1.000  H
  H44      1.0000 0.53092  0.67059  0.07932  Biso   1.000  H
  N31      1.0000 0.61275  0.73809  0.13539  Biso   1.000  N
  H45      1.0000 0.79292  0.83423  0.02171  Biso   1.000  H
  H46      1.0000 0.68179  0.80742  0.01410  Biso   1.000  H
  N32      1.0000 0.72311  0.83467  0.08528  Biso   1.000  N
  C45      1.0000 0.60322  0.74890  0.18485  Biso   1.000  C
  C46      1.0000 0.63950  0.90108  0.15504  Biso   1.000  C
  C47      1.0000 0.78461  0.90203  0.10913  Biso   1.000  C
  C48      1.0000 0.62800  0.82802  0.10921  Biso   1.000  C
  O15      1.0000 0.57717  0.68491  0.21547  Biso   1.000  O
  H47      1.0000 0.59041  0.95332  0.15240  Biso   1.000  H
  O16      1.0000 0.86552  0.92614  0.09583  Biso   1.000  O
  H48      1.0000 0.57302  0.84483  0.08551  Biso   1.000  H
  N33      1.0000 0.72498  0.27170  0.56656  Biso   1.000  N
  C49      1.0000 0.74877  0.21281  0.52448  Biso   1.000  C
  C50      1.0000 0.66438  0.22918  0.59940  Biso   1.000  C
  C51      1.0000 0.75307  0.37478  0.57077  Biso   1.000  C
  C52      1.0000 0.68954  0.11748  0.53384  Biso   1.000  C
  H49      1.0000 0.73071  0.24342  0.49149  Biso   1.000  H
  N34      1.0000 0.85061  0.17629  0.52712  Biso   1.000  N
  N35      1.0000 0.64385  0.13749  0.58151  Biso   1.000  N
  O17      1.0000 0.63109  0.26636  0.63751  Biso   1.000  O
  H50      1.0000 0.74123  0.40561  0.53770  Biso   1.000  H
  H51      1.0000 0.71122  0.40649  0.59470  Biso   1.000  H
  N36      1.0000 0.85299  0.39122  0.58724  Biso   1.000  N
  H52      1.0000 0.64012  0.10652  0.50609  Biso   1.000  H
  N37      1.0000 0.76109  0.03828  0.53648  Biso   1.000  N
  C53      1.0000 0.85223  0.07430  0.52887  Biso   1.000  C
  C54      1.0000 0.93009  0.23042  0.50598  Biso   1.000  C
  C55      1.0000 0.56663  0.07927  0.60085  Biso   1.000  C
  C56      1.0000 0.93289  0.39231  0.55017  Biso   1.000  C
  C57      1.0000 0.87474  0.44068  0.63063  Biso   1.000  C
  C58      1.0000 0.74099  0.93600  0.53663  Biso   1.000  C
  O18      1.0000 0.92760  0.02469  0.52670  Biso   1.000  O
  H53      1.0000 0.97963  0.18483  0.49539  Biso   1.000  H
  H54      1.0000 0.90548  0.26541  0.47578  Biso   1.000  H
  N38      1.0000 0.97443  0.29909  0.54172  Biso   1.000  N
  H55      1.0000 0.52756  0.11989  0.62241  Biso   1.000  H
  H56      1.0000 0.52439  0.05742  0.57230  Biso   1.000  H
  N39      1.0000 0.59951  0.99649  0.62941  Biso   1.000  N
  H57      1.0000 0.91458  0.42687  0.51840  Biso   1.000  H
  C59      1.0000 0.01585  0.44623  0.58338  Biso   1.000  C
  N40      1.0000 0.97225  0.46333  0.63139  Biso   1.000  N
  O19      1.0000 0.81996  0.45938  0.66472  Biso   1.000  O
  H58      1.0000 0.79742  0.90152  0.52452  Biso   1.000  H
  H59      1.0000 0.68607  0.92307  0.51278  Biso   1.000  H
  N41      1.0000 0.71840  0.89750  0.58652  Biso   1.000  N
  C60      1.0000 0.06775  0.29128  0.55800  Biso   1.000  C
  C61      1.0000 0.62340  0.90371  0.60586  Biso   1.000  C
  C62      1.0000 0.58954  0.98853  0.68059  Biso   1.000  C
  N42      1.0000 0.09317  0.37566  0.58415  Biso   1.000  N
  H60      1.0000 0.03537  0.50752  0.56741  Biso   1.000  H
  C63      1.0000 0.01546  0.53631  0.66843  Biso   1.000  C
  C64      1.0000 0.77513  0.82839  0.61014  Biso   1.000  C
  O20      1.0000 0.12579  0.22494  0.55013  Biso   1.000  O
  H61      1.0000 0.57258  0.88347  0.58040  Biso   1.000  H
  C65      1.0000 0.62938  0.83270  0.65291  Biso   1.000  C
  O21      1.0000 0.56037  0.05304  0.70903  Biso   1.000  O
  N43      1.0000 0.61525  0.89473  0.69752  Biso   1.000  N
  C66      1.0000 0.19687  0.40364  0.59626  Biso   1.000  C
  H62      1.0000 0.96563  0.55633  0.69148  Biso   1.000  H
  H63      1.0000 0.03518  0.59359  0.64982  Biso   1.000  H
  N44      1.0000 0.09627  0.50044  0.69718  Biso   1.000  N
  N45      1.0000 0.72614  0.79259  0.64936  Biso   1.000  N
  O22      1.0000 0.85794  0.80377  0.59772  Biso   1.000  O
  H64      1.0000 0.57928  0.78163  0.64970  Biso   1.000  H
  C67      1.0000 0.59018  0.85798  0.74588  Biso   1.000  C
  H65      1.0000 0.23936  0.35411  0.58281  Biso   1.000  H
  H66      1.0000 0.21037  0.46457  0.57922  Biso   1.000  H
  N46      1.0000 0.21997  0.41482  0.64989  Biso   1.000  N
  C68      1.0000 0.19397  0.50358  0.67776  Biso   1.000  C
  C69      1.0000 0.10009  0.50153  0.74878  Biso   1.000  C
  C70      1.0000 0.75644  0.71033  0.68101  Biso   1.000  C
  H67      1.0000 0.54822  0.80150  0.74049  Biso   1.000  H
  H68      1.0000 0.55262  0.90744  0.76289  Biso   1.000  H
  N47      1.0000 0.67130  0.83058  0.77898  Biso   1.000  N
  C71      1.0000 0.29191  0.36207  0.67348  Biso   1.000  C
  C72      1.0000 0.26120  0.49890  0.72585  Biso   1.000  C
  H69      1.0000 0.20479  0.56290  0.65781  Biso   1.000  H
  N48      1.0000 0.19394  0.49459  0.76774  Biso   1.000  N
  O23      1.0000 0.02793  0.50774  0.77657  Biso   1.000  O
  H70      1.0000 0.70233  0.66452  0.68131  Biso   1.000  H
  H71      1.0000 0.80987  0.67760  0.66480  Biso   1.000  H
  N49      1.0000 0.78762  0.73122  0.73345  Biso   1.000  N
  C73      1.0000 0.72078  0.73882  0.77263  Biso   1.000  C
  C74      1.0000 0.69706  0.87500  0.82309  Biso   1.000  C
  N50      1.0000 0.31482  0.40817  0.72088  Biso   1.000  N
  O24      1.0000 0.32890  0.28799  0.65830  Biso   1.000  O
  H72      1.0000 0.30498  0.55552  0.72879  Biso   1.000  H
  C75      1.0000 0.22186  0.52038  0.81969  Biso   1.000  C
  C76      1.0000 0.88218  0.72648  0.74970  Biso   1.000  C
  H73      1.0000 0.67429  0.68432  0.77141  Biso   1.000  H
  C77      1.0000 0.79033  0.73327  0.82141  Biso   1.000  C
  N51      1.0000 0.76626  0.82101  0.84954  Biso   1.000  N
  O25      1.0000 0.65792  0.95120  0.83956  Biso   1.000  O
  C78      1.0000 0.40028  0.37924  0.75260  Biso   1.000  C
  H74      1.0000 0.27027  0.57211  0.81950  Biso   1.000  H
  H75      1.0000 0.16501  0.54537  0.83620  Biso   1.000  H
  N52      1.0000 0.26136  0.43951  0.84874  Biso   1.000  N
  N53      1.0000 0.88413  0.73071  0.80337  Biso   1.000  N
  O26      1.0000 0.95502  0.72085  0.72378  Biso   1.000  O
  H76      1.0000 0.77702  0.67453  0.84128  Biso   1.000  H
  C79      1.0000 0.79207  0.83591  0.90332  Biso   1.000  C
  H77      1.0000 0.44268  0.43542  0.75811  Biso   1.000  H
  H78      1.0000 0.43659  0.33007  0.73460  Biso   1.000  H
  N54      1.0000 0.37444  0.34008  0.80210  Biso   1.000  N
  C80      1.0000 0.36052  0.40108  0.84495  Biso   1.000  C
  C81      1.0000 0.21541  0.40203  0.89086  Biso   1.000  C
  C82      1.0000 0.96970  0.69952  0.83463  Biso   1.000  C
  H79      1.0000 0.75122  0.88742  0.91620  Biso   1.000  H
  H80      1.0000 0.77776  0.77659  0.92178  Biso   1.000  H
  N55      1.0000 0.89190  0.86112  0.91383  Biso   1.000  N
  C83      1.0000 0.39680  0.24890  0.81514  Biso   1.000  C
  C84      1.0000 0.37195  0.32802  0.89078  Biso   1.000  C
  H81      1.0000 0.40961  0.45332  0.84759  Biso   1.000  H
  N56      1.0000 0.27691  0.33467  0.91471  Biso   1.000  N
  O27      1.0000 0.13450  0.42614  0.90416  Biso   1.000  O
  H82      1.0000 0.95071  0.64502  0.85569  Biso   1.000  H
  H83      1.0000 0.01877  0.67577  0.81208  Biso   1.000  H
  N57      1.0000 0.01198  0.77031  0.86609  Biso   1.000  N
  C85      1.0000 0.97230  0.78923  0.91632  Biso   1.000  C
  C86      1.0000 0.91892  0.94550  0.93975  Biso   1.000  C
  N58      1.0000 0.38727  0.23809  0.86460  Biso   1.000  N
  O28      1.0000 0.42285  0.18491  0.78452  Biso   1.000  O
  H84      1.0000 0.42700  0.34483  0.91448  Biso   1.000  H
  C87      1.0000 0.25990  0.29741  0.96398  Biso   1.000  C
  C88      1.0000 0.10867  0.79464  0.86586  Biso   1.000  C
  H85      1.0000 0.95477  0.72911  0.93409  Biso   1.000  H
  C89      1.0000 0.05859  0.84490  0.94415  Biso   1.000  C
  O29      1.0000 0.86396  0.01527  0.94694  Biso   1.000  O
  N59      1.0000 0.01486  0.93958  0.95515  Biso   1.000  N
  C90      1.0000 0.42360  0.14991  0.89331  Biso   1.000  C
  H86      1.0000 0.20710  0.33423  0.97828  Biso   1.000  H
  H87      1.0000 0.31816  0.30742  0.98589  Biso   1.000  H
  N60      1.0000 0.23380  0.19031  0.96418  Biso   1.000  N
  N61      1.0000 0.13524  0.84468  0.91005  Biso   1.000  N
  O30      1.0000 0.16433  0.77659  0.83093  Biso   1.000  O
  H88      1.0000 0.07888  0.81151  0.97599  Biso   1.000  H
  C91      1.0000 0.06267  0.00679  0.99128  Biso   1.000  C
  H89      1.0000 0.45925  0.10878  0.87041  Biso   1.000  H
  H90      1.0000 0.46910  0.17059  0.92071  Biso   1.000  H
  N62      1.0000 0.34756  0.09337  0.91456  Biso   1.000  N
  C92      1.0000 0.14077  0.15992  0.96853  Biso   1.000  C
  C93      1.0000 0.30638  0.11243  0.96433  Biso   1.000  C
  C94      1.0000 0.23408  0.85754  0.92668  Biso   1.000  C
  H91      1.0000 0.08543  0.97019  0.02121  Biso   1.000  H
  N63      1.0000 0.14337  0.05910  0.97236  Biso   1.000  N
  H92      1.0000 0.01462  0.05362  0.00209  Biso   1.000  H
  C95      1.0000 0.32628  0.00161  0.89801  Biso   1.000  C
  O31      1.0000 0.06946  0.21113  0.97201  Biso   1.000  O
  C96      1.0000 0.24240  0.02331  0.97289  Biso   1.000  C
  H93      1.0000 0.35729  0.12062  0.99158  Biso   1.000  H
  H94      1.0000 0.27550  0.82488  0.90290  Biso   1.000  H
  H95      1.0000 0.24468  0.82664  0.95982  Biso   1.000  H
  N64      1.0000 0.26311  0.95909  0.93077  Biso   1.000  N
  O32      1.0000 0.35810  0.96333  0.86066  Biso   1.000  O
  H96      1.0000 0.26043  0.99218  0.00569  Biso   1.000  H
