data_image0
_cell_length_a       13.446
_cell_length_b       22.156
_cell_length_c       17.056
_cell_angle_alpha    90
_cell_angle_beta     92.42
_cell_angle_gamma    90

_symmetry_space_group_name_H-M    "P 1"
_symmetry_int_tables_number       1

loop_
  _symmetry_equiv_pos_as_xyz
  'x, y, z'

loop_
  _atom_site_label
  _atom_site_occupancy
  _atom_site_fract_x
  _atom_site_fract_y
  _atom_site_fract_z
  _atom_site_thermal_displace_type
  _atom_site_B_iso_or_equiv
  _atom_site_type_symbol
  C1       1.0000 0.47661  0.58327  0.51858  Biso   1.000  C
  N1       1.0000 0.39750  0.58075  0.57450  Biso   1.000  N
  C2       1.0000 0.57090  0.57091  0.57110  Biso   1.000  C
  H1       1.0000 0.46738  0.55308  0.47680  Biso   1.000  H
  N2       1.0000 0.49375  0.64335  0.48736  Biso   1.000  N
  C3       1.0000 0.29310  0.58381  0.55121  Biso   1.000  C
  C4       1.0000 0.43438  0.57501  0.64938  Biso   1.000  C
  N3       1.0000 0.53511  0.57402  0.64991  Biso   1.000  N
  H2       1.0000 0.59924  0.53119  0.56019  Biso   1.000  H
  N4       1.0000 0.63747  0.61943  0.54909  Biso   1.000  N
  C5       1.0000 0.43742  0.66519  0.41870  Biso   1.000  C
  C6       1.0000 0.59106  0.66050  0.50051  Biso   1.000  C
  H3       1.0000 0.28157  0.55840  0.50538  Biso   1.000  H
  H4       1.0000 0.25518  0.56698  0.59311  Biso   1.000  H
  N5       1.0000 0.25501  0.64303  0.53307  Biso   1.000  N
  O1       1.0000 0.38280  0.56888  0.70830  Biso   1.000  O
  C7       1.0000 0.59450  0.55249  0.71740  Biso   1.000  C
  C8       1.0000 0.74065  0.62240  0.57321  Biso   1.000  C
  N6       1.0000 0.34958  0.69927  0.43942  Biso   1.000  N
  H5       1.0000 0.41679  0.63112  0.38619  Biso   1.000  H
  H6       1.0000 0.47981  0.69069  0.38819  Biso   1.000  H
  O2       1.0000 0.63038  0.70563  0.47228  Biso   1.000  O
  C9       1.0000 0.19611  0.67368  0.58301  Biso   1.000  C
  C10      1.0000 0.25626  0.67138  0.45632  Biso   1.000  C
  H7       1.0000 0.55009  0.53949  0.75748  Biso   1.000  H
  H8       1.0000 0.63234  0.51760  0.70179  Biso   1.000  H
  N7       1.0000 0.66239  0.59704  0.75055  Biso   1.000  N
  H9       1.0000 0.77510  0.64709  0.53601  Biso   1.000  H
  H10      1.0000 0.76866  0.58210  0.57128  Biso   1.000  H
  N8       1.0000 0.75964  0.64687  0.65144  Biso   1.000  N
  C11      1.0000 0.34211  0.76038  0.42768  Biso   1.000  C
  N9       1.0000 0.15976  0.72360  0.54458  Biso   1.000  N
  O3       1.0000 0.17768  0.65802  0.65003  Biso   1.000  O
  H11      1.0000 0.23402  0.64348  0.41459  Biso   1.000  H
  C12      1.0000 0.18496  0.72549  0.46236  Biso   1.000  C
  C13      1.0000 0.65247  0.62317  0.82220  Biso   1.000  C
  C14      1.0000 0.75977  0.60710  0.72051  Biso   1.000  C
  C15      1.0000 0.81529  0.69868  0.66558  Biso   1.000  C
  N10      1.0000 0.24688  0.77654  0.44241  Biso   1.000  N
  O4       1.0000 0.40766  0.79441  0.40732  Biso   1.000  O
  C16      1.0000 0.08227  0.76169  0.57656  Biso   1.000  C
  H12      1.0000 0.12609  0.72170  0.42680  Biso   1.000  H
  N11      1.0000 0.73705  0.65653  0.84063  Biso   1.000  N
  O5       1.0000 0.58019  0.61798  0.86404  Biso   1.000  O
  C17      1.0000 0.81295  0.64601  0.78435  Biso   1.000  C
  H13      1.0000 0.79515  0.56910  0.71170  Biso   1.000  H
  N12      1.0000 0.84145  0.70053  0.74310  Biso   1.000  N
  O6       1.0000 0.83669  0.73569  0.61670  Biso   1.000  O
  C18      1.0000 0.20740  0.83598  0.42169  Biso   1.000  C
  H14      1.0000 0.02640  0.76381  0.53871  Biso   1.000  H
  H15      1.0000 0.05885  0.74291  0.62380  Biso   1.000  H
  N13      1.0000 0.11524  0.82222  0.59510  Biso   1.000  N
  C19      1.0000 0.76349  0.66939  0.92320  Biso   1.000  C
  H16      1.0000 0.87098  0.62529  0.80835  Biso   1.000  H
  C20      1.0000 0.91866  0.74070  0.77391  Biso   1.000  C
  H17      1.0000 0.25175  0.85530  0.38607  Biso   1.000  H
  H18      1.0000 0.14338  0.83097  0.39411  Biso   1.000  H
  N14      1.0000 0.19501  0.87547  0.48889  Biso   1.000  N
  C21      1.0000 0.11980  0.84230  0.67186  Biso   1.000  C
  C22      1.0000 0.11001  0.87087  0.53906  Biso   1.000  C
  H19      1.0000 0.70776  0.65851  0.95477  Biso   1.000  H
  H20      1.0000 0.81956  0.64429  0.93986  Biso   1.000  H
  N15      1.0000 0.78857  0.73145  0.93740  Biso   1.000  N
  H21      1.0000 0.94066  0.76620  0.73189  Biso   1.000  H
  H22      1.0000 0.97517  0.71678  0.79298  Biso   1.000  H
  N16      1.0000 0.88538  0.77830  0.83705  Biso   1.000  N
  C23      1.0000 0.25189  0.92521  0.50391  Biso   1.000  C
  N17      1.0000 0.12847  0.90422  0.66986  Biso   1.000  N
  O7       1.0000 0.11716  0.81057  0.72943  Biso   1.000  O
  H23      1.0000 0.04665  0.87087  0.50849  Biso   1.000  H
  C24      1.0000 0.12217  0.92878  0.59111  Biso   1.000  C
  C25      1.0000 0.74977  0.76250  0.99890  Biso   1.000  C
  C26      1.0000 0.88469  0.75618  0.91727  Biso   1.000  C
  C27      1.0000 0.89698  0.83959  0.83558  Biso   1.000  C
  N18      1.0000 0.21297  0.95590  0.56599  Biso   1.000  N
  O8       1.0000 0.32435  0.94083  0.46829  Biso   1.000  O
  C28      1.0000 0.10110  0.94029  0.73647  Biso   1.000  C
  H24      1.0000 0.06524  0.95608  0.58348  Biso   1.000  H
  N19      1.0000 0.80846  0.81296  0.01433  Biso   1.000  N
  O9       1.0000 0.67565  0.74847  0.03417  Biso   1.000  O
  C29      1.0000 0.89559  0.81251  0.96926  Biso   1.000  C
  H25      1.0000 0.93869  0.72730  0.92836  Biso   1.000  H
  N20      1.0000 0.89969  0.86135  0.91117  Biso   1.000  N
  O10      1.0000 0.90579  0.87110  0.77661  Biso   1.000  O
  C30      1.0000 0.23657  0.01837  0.58166  Biso   1.000  C
  H26      1.0000 0.04128  0.96290  0.72209  Biso   1.000  H
  H27      1.0000 0.08539  0.91339  0.77919  Biso   1.000  H
  N21      1.0000 0.17666  0.98181  0.76428  Biso   1.000  N
  C31      1.0000 0.79704  0.84961  0.08311  Biso   1.000  C
  H28      1.0000 0.95644  0.81098  0.00301  Biso   1.000  H
  C32      1.0000 0.93018  0.92178  0.93206  Biso   1.000  C
  H29      1.0000 0.17817  0.04270  0.56881  Biso   1.000  H
  H30      1.0000 0.28850  0.03087  0.54728  Biso   1.000  H
  N22      1.0000 0.26919  0.03083  0.66177  Biso   1.000  N
  C33      1.0000 0.20474  0.98601  0.84280  Biso   1.000  C
  C34      1.0000 0.19716  0.03719  0.72209  Biso   1.000  C
  H31      1.0000 0.86062  0.85200  0.11204  Biso   1.000  H
  H32      1.0000 0.75020  0.83011  0.11673  Biso   1.000  H
  N23      1.0000 0.76194  0.91086  0.06515  Biso   1.000  N
  H33      1.0000 0.95704  0.94101  0.88646  Biso   1.000  H
  H34      1.0000 0.98307  0.91948  0.97249  Biso   1.000  H
  N24      1.0000 0.85108  0.95897  0.96028  Biso   1.000  N
  C35      1.0000 0.35419  0.06328  0.67825  Biso   1.000  C
  O11      1.0000 0.18644  0.94855  0.89274  Biso   1.000  O
  N25      1.0000 0.25505  0.03882  0.85460  Biso   1.000  N
  H35      1.0000 0.13585  0.05687  0.70208  Biso   1.000  H
  C36      1.0000 0.25368  0.07628  0.78588  Biso   1.000  C
  C37      1.0000 0.66886  0.92977  0.08094  Biso   1.000  C
  C38      1.0000 0.82612  0.95969  0.04144  Biso   1.000  C
  C39      1.0000 0.81629  0.00880  0.92038  Biso   1.000  C
  N26      1.0000 0.34936  0.08616  0.75319  Biso   1.000  N
  O12      1.0000 0.42189  0.07113  0.63424  Biso   1.000  O
  C40      1.0000 0.27332  0.06287  0.93188  Biso   1.000  C
  H36      1.0000 0.21904  0.11451  0.79456  Biso   1.000  H
  N27      1.0000 0.66351  0.99007  0.06990  Biso   1.000  N
  O13      1.0000 0.60087  0.89714  0.10282  Biso   1.000  O
  H37      1.0000 0.88577  0.96299  0.07624  Biso   1.000  H
  C41      1.0000 0.75831  0.01661  0.04725  Biso   1.000  C
  N28      1.0000 0.75637  0.04089  0.96809  Biso   1.000  N
  O14      1.0000 0.83466  0.02261  0.85243  Biso   1.000  O
  C42      1.0000 0.41809  0.13121  0.78400  Biso   1.000  C
  H38      1.0000 0.24126  0.03710  0.96920  Biso   1.000  H
  H39      1.0000 0.24266  0.10250  0.93429  Biso   1.000  H
  N29      1.0000 0.37827  0.06851  0.95565  Biso   1.000  N
  C43      1.0000 0.57806  0.02658  0.08944  Biso   1.000  C
  H40      1.0000 0.78471  0.04568  0.08616  Biso   1.000  H
  C44      1.0000 0.72179  0.10187  0.94855  Biso   1.000  C
  H41      1.0000 0.46245  0.14258  0.74310  Biso   1.000  H
  H42      1.0000 0.38076  0.16677  0.79797  Biso   1.000  H
  N30      1.0000 0.47705  0.11157  0.85178  Biso   1.000  N
  C45      1.0000 0.44338  0.11681  0.93270  Biso   1.000  C
  C46      1.0000 0.42442  0.02889  0.00641  Biso   1.000  C
  N31      1.0000 0.52104  0.04717  0.01897  Biso   1.000  N
  H43      1.0000 0.60080  0.06147  0.11961  Biso   1.000  H
  H44      1.0000 0.53496  0.00307  0.12196  Biso   1.000  H
  N32      1.0000 0.61576  0.10489  0.92689  Biso   1.000  N
  H45      1.0000 0.73549  0.12800  0.99338  Biso   1.000  H
  H46      1.0000 0.75919  0.11708  0.90536  Biso   1.000  H
  C47      1.0000 0.57914  0.10882  0.85137  Biso   1.000  C
  H47      1.0000 0.41476  0.15657  0.94268  Biso   1.000  H
  C48      1.0000 0.53830  0.10557  0.98299  Biso   1.000  C
  O15      1.0000 0.38570  0.98429  0.03610  Biso   1.000  O
  O16      1.0000 0.62829  0.11085  0.79280  Biso   1.000  O
  H48      1.0000 0.54957  0.13721  0.02261  Biso   1.000  H
  O17      1.0000 0.57812  0.57113  0.36577  Biso   1.000  O
  C49      1.0000 0.64582  0.56328  0.32170  Biso   1.000  C
  N33      1.0000 0.65058  0.58621  0.24682  Biso   1.000  N
  N34      1.0000 0.73082  0.53083  0.33819  Biso   1.000  N
  C50      1.0000 0.58193  0.63121  0.21601  Biso   1.000  C
  C51      1.0000 0.74633  0.57628  0.21407  Biso   1.000  C
  C52      1.0000 0.76337  0.51841  0.41829  Biso   1.000  C
  C53      1.0000 0.80278  0.53719  0.27792  Biso   1.000  C
  N35      1.0000 0.52289  0.61157  0.14817  Biso   1.000  N
  H49      1.0000 0.53749  0.64258  0.25691  Biso   1.000  H
  H50      1.0000 0.61918  0.66677  0.20199  Biso   1.000  H
  N36      1.0000 0.74489  0.53882  0.14542  Biso   1.000  N
  H51      1.0000 0.78090  0.61451  0.20539  Biso   1.000  H
  N37      1.0000 0.78696  0.45590  0.43396  Biso   1.000  N
  H52      1.0000 0.82177  0.54270  0.43120  Biso   1.000  H
  H53      1.0000 0.71151  0.53092  0.45268  Biso   1.000  H
  H54      1.0000 0.86409  0.55691  0.29787  Biso   1.000  H
  N38      1.0000 0.82327  0.48186  0.23567  Biso   1.000  N
  C54      1.0000 0.42079  0.60882  0.14858  Biso   1.000  C
  C55      1.0000 0.55663  0.61681  0.06731  Biso   1.000  C
  C56      1.0000 0.72661  0.56287  0.06807  Biso   1.000  C
  C57      1.0000 0.79520  0.48601  0.15721  Biso   1.000  C
  C58      1.0000 0.74805  0.42521  0.49610  Biso   1.000  C
  C59      1.0000 0.87777  0.42878  0.40890  Biso   1.000  C
  C60      1.0000 0.89891  0.44029  0.26349  Biso   1.000  C
  N39      1.0000 0.38418  0.60489  0.07312  Biso   1.000  N
  O18      1.0000 0.37172  0.61085  0.20715  Biso   1.000  O
  C61      1.0000 0.46172  0.60561  0.01702  Biso   1.000  C
  H55      1.0000 0.58517  0.65657  0.05727  Biso   1.000  H
  N40      1.0000 0.62174  0.56851  0.04431  Biso   1.000  N
  H56      1.0000 0.75868  0.53710  0.03081  Biso   1.000  H
  H57      1.0000 0.75728  0.60250  0.06572  Biso   1.000  H
  O19      1.0000 0.81349  0.44855  0.10721  Biso   1.000  O
  N41      1.0000 0.80500  0.37552  0.51107  Biso   1.000  N
  O20      1.0000 0.67558  0.44083  0.53167  Biso   1.000  O
  C62      1.0000 0.89000  0.37092  0.46089  Biso   1.000  C
  H58      1.0000 0.93470  0.45608  0.41647  Biso   1.000  H
  N42      1.0000 0.87147  0.40422  0.33009  Biso   1.000  N
  H59      1.0000 0.95866  0.46290  0.27792  Biso   1.000  H
  H60      1.0000 0.91462  0.41339  0.22082  Biso   1.000  H
  C63      1.0000 0.27823  0.60191  0.05141  Biso   1.000  C
  N43      1.0000 0.47890  0.54717  0.98105  Biso   1.000  N
  H61      1.0000 0.45045  0.63721  0.97735  Biso   1.000  H
  C64      1.0000 0.57551  0.52889  0.99354  Biso   1.000  C
  C65      1.0000 0.79261  0.33598  0.57826  Biso   1.000  C
  N44      1.0000 0.88469  0.32222  0.40491  Biso   1.000  N
  H62      1.0000 0.95329  0.37092  0.49147  Biso   1.000  H
  C66      1.0000 0.88021  0.34230  0.32810  Biso   1.000  C
  N45      1.0000 0.24357  0.54089  0.03192  Biso   1.000  N
  H63      1.0000 0.26452  0.62800  0.00657  Biso   1.000  H
  H64      1.0000 0.24082  0.61708  0.09460  Biso   1.000  H
  C67      1.0000 0.42195  0.52658  0.91057  Biso   1.000  C
  O21      1.0000 0.61423  0.48429  0.96385  Biso   1.000  O
  N46      1.0000 0.75305  0.27654  0.55760  Biso   1.000  N
  H65      1.0000 0.74819  0.35530  0.61388  Biso   1.000  H
  H66      1.0000 0.85656  0.33102  0.60590  Biso   1.000  H
  C68      1.0000 0.91766  0.26169  0.42340  Biso   1.000  C
  O22      1.0000 0.88278  0.31057  0.27059  Biso   1.000  O
  C69      1.0000 0.18372  0.50880  0.07957  Biso   1.000  C
  C70      1.0000 0.24163  0.51661  0.95276  Biso   1.000  C
  N47      1.0000 0.33643  0.49007  0.93005  Biso   1.000  N
  H67      1.0000 0.39914  0.56147  0.88035  Biso   1.000  H
  H68      1.0000 0.46506  0.50311  0.87806  Biso   1.000  H
  C71      1.0000 0.65790  0.26038  0.57227  Biso   1.000  C
  C72      1.0000 0.81498  0.22549  0.53759  Biso   1.000  C
  N48      1.0000 0.84017  0.22360  0.45538  Biso   1.000  N
  H69      1.0000 0.97361  0.26381  0.46130  Biso   1.000  H
  H70      1.0000 0.94109  0.24291  0.37621  Biso   1.000  H
  N49      1.0000 0.14894  0.45902  0.03973  Biso   1.000  N
  O23      1.0000 0.16527  0.52261  0.14753  Biso   1.000  O
  C73      1.0000 0.17382  0.45969  0.95857  Biso   1.000  C
  H71      1.0000 0.21523  0.54568  0.91385  Biso   1.000  H
  C74      1.0000 0.33115  0.42982  0.91902  Biso   1.000  C
  N50      1.0000 0.65036  0.19927  0.56060  Biso   1.000  N
  O24      1.0000 0.59228  0.29441  0.59270  Biso   1.000  O
  C75      1.0000 0.74368  0.17142  0.54370  Biso   1.000  C
  H72      1.0000 0.87385  0.22170  0.57321  Biso   1.000  H
  C76      1.0000 0.80391  0.17368  0.41700  Biso   1.000  C
  C77      1.0000 0.06983  0.42178  0.06790  Biso   1.000  C
  N51      1.0000 0.23800  0.41086  0.93486  Biso   1.000  N
  H73      1.0000 0.11424  0.46299  0.92377  Biso   1.000  H
  O25      1.0000 0.39915  0.39714  0.89713  Biso   1.000  O
  C78      1.0000 0.56259  0.16519  0.58131  Biso   1.000  C
  N52      1.0000 0.74500  0.14303  0.46688  Biso   1.000  N
  H74      1.0000 0.76599  0.14348  0.58536  Biso   1.000  H
  O26      1.0000 0.82233  0.15802  0.34993  Biso   1.000  O
  N53      1.0000 0.10032  0.36135  0.08879  Biso   1.000  N
  H75      1.0000 0.04289  0.44101  0.11349  Biso   1.000  H
  H76      1.0000 0.01687  0.41948  0.02752  Biso   1.000  H
  C79      1.0000 0.20289  0.34961  0.91685  Biso   1.000  C
  N54      1.0000 0.50618  0.14335  0.51259  Biso   1.000  N
  H77      1.0000 0.58315  0.13112  0.61376  Biso   1.000  H
  H78      1.0000 0.52020  0.19069  0.61177  Biso   1.000  H
  C80      1.0000 0.70692  0.08381  0.44881  Biso   1.000  C
  C81      1.0000 0.10296  0.33959  0.16437  Biso   1.000  C
  C82      1.0000 0.10443  0.31251  0.03069  Biso   1.000  C
  N55      1.0000 0.19155  0.31296  0.98562  Biso   1.000  N
  H79      1.0000 0.13932  0.35200  0.88792  Biso   1.000  H
  H80      1.0000 0.24973  0.33011  0.88322  Biso   1.000  H
  C83      1.0000 0.40888  0.16050  0.49951  Biso   1.000  C
  C84      1.0000 0.52340  0.08332  0.48137  Biso   1.000  C
  N56      1.0000 0.60252  0.08075  0.42551  Biso   1.000  N
  H81      1.0000 0.71837  0.05840  0.49458  Biso   1.000  H
  H82      1.0000 0.74476  0.06698  0.40691  Biso   1.000  H
  N57      1.0000 0.11463  0.27830  0.16290  Biso   1.000  N
  O27      1.0000 0.09422  0.37110  0.22341  Biso   1.000  O
  C85      1.0000 0.11532  0.25618  0.08268  Biso   1.000  C
  H83      1.0000 0.04349  0.31098  0.99695  Biso   1.000  H
  C86      1.0000 0.25017  0.26250  0.00111  Biso   1.000  C
  N58      1.0000 0.36247  0.11943  0.45092  Biso   1.000  N
  O28      1.0000 0.36955  0.20568  0.52768  Biso   1.000  O
  C87      1.0000 0.42912  0.07091  0.42891  Biso   1.000  C
  H84      1.0000 0.53256  0.05308  0.52322  Biso   1.000  H
  C88      1.0000 0.56556  0.07501  0.35057  Biso   1.000  C
  C89      1.0000 0.08128  0.24070  0.22610  Biso   1.000  C
  H85      1.0000 0.06132  0.22730  0.07159  Biso   1.000  H
  N59      1.0000 0.21137  0.23145  0.06261  Biso   1.000  N
  O29      1.0000 0.32436  0.24847  0.96579  Biso   1.000  O
  C90      1.0000 0.25929  0.12240  0.42680  Biso   1.000  C
  N60      1.0000 0.46491  0.07402  0.35010  Biso   1.000  N
  H86      1.0000 0.40069  0.03119  0.43977  Biso   1.000  H
  O30      1.0000 0.61721  0.06892  0.29165  Biso   1.000  O
  N61      1.0000 0.15848  0.20053  0.25685  Biso   1.000  N
  H87      1.0000 0.05928  0.26620  0.26812  Biso   1.000  H
  H88      1.0000 0.02477  0.21678  0.20697  Biso   1.000  H
  C91      1.0000 0.23653  0.16939  0.07682  Biso   1.000  C
  N62      1.0000 0.24030  0.14687  0.34858  Biso   1.000  N
  H89      1.0000 0.22491  0.14709  0.46400  Biso   1.000  H
  H90      1.0000 0.23128  0.08210  0.42868  Biso   1.000  H
  C92      1.0000 0.40551  0.05249  0.28262  Biso   1.000  C
  C93      1.0000 0.18465  0.19868  0.33437  Biso   1.000  C
  C94      1.0000 0.18699  0.14601  0.21560  Biso   1.000  C
  N63      1.0000 0.26288  0.15653  0.15932  Biso   1.000  N
  H91      1.0000 0.29217  0.15851  0.04519  Biso   1.000  H
  H92      1.0000 0.18037  0.14429  0.06009  Biso   1.000  H
  C95      1.0000 0.24017  0.10710  0.27951  Biso   1.000  C
  N64      1.0000 0.33762  0.09704  0.24940  Biso   1.000  N
  H93      1.0000 0.44992  0.03949  0.24248  Biso   1.000  H
  H94      1.0000 0.36760  0.01760  0.29817  Biso   1.000  H
  O31      1.0000 0.16325  0.23569  0.38326  Biso   1.000  O
  H95      1.0000 0.12896  0.12529  0.19160  Biso   1.000  H
  C96      1.0000 0.34747  0.12322  0.17781  Biso   1.000  C
  H96      1.0000 0.20479  0.06910  0.28831  Biso   1.000  H
  O32      1.0000 0.41982  0.11798  0.13591  Biso   1.000  O
  Ne1      1.0000 0.49411  0.34287  0.24749  Biso   1.000  Ne
  He1      1.0000 0.36977  0.40521  0.39950  Biso   1.000  He
  He2      1.0000 0.59955  0.29087  0.11877  Biso   1.000  He
  Ar1      1.0000 0.49136  0.34310  0.24695  Biso   1.000  Ar
  Ne2      1.0000 0.50586  0.84286  0.75249  Biso   1.000  Ne
  He3      1.0000 0.37446  0.77735  0.90684  Biso   1.000  He
  He4      1.0000 0.62460  0.90234  0.60617  Biso   1.000  He
  Ar2      1.0000 0.50859  0.84288  0.75308  Biso   1.000  Ar
