data_image0
_cell_length_a       10.41
_cell_length_b       17.524
_cell_length_c       18.478
_cell_angle_alpha    71.76
_cell_angle_beta     88.85
_cell_angle_gamma    88.39

_symmetry_space_group_name_H-M    "P 1"
_symmetry_int_tables_number       1

loop_
  _symmetry_equiv_pos_as_xyz
  'x, y, z'

loop_
  _atom_site_label
  _atom_site_occupancy
  _atom_site_fract_x
  _atom_site_fract_y
  _atom_site_fract_z
  _atom_site_thermal_displace_type
  _atom_site_B_iso_or_equiv
  _atom_site_type_symbol
  C1       1.0000 0.45338  0.52336  0.60570  Biso   1.000  C
  N1       1.0000 0.31589  0.50200  0.61043  Biso   1.000  N
  C2       1.0000 0.48166  0.58921  0.63869  Biso   1.000  C
  H1       1.0000 0.48071  0.53998  0.55270  Biso   1.000  H
  H2       1.0000 0.50395  0.47590  0.63243  Biso   1.000  H
  C3       1.0000 0.30455  0.42408  0.59829  Biso   1.000  C
  C4       1.0000 0.24476  0.56466  0.55282  Biso   1.000  C
  N2       1.0000 0.46773  0.56326  0.72172  Biso   1.000  N
  H3       1.0000 0.56863  0.60702  0.62468  Biso   1.000  H
  H4       1.0000 0.42352  0.63447  0.61693  Biso   1.000  H
  C5       1.0000 0.34681  0.35350  0.66502  Biso   1.000  C
  H5       1.0000 0.35570  0.42399  0.55390  Biso   1.000  H
  H6       1.0000 0.21563  0.41728  0.58741  Biso   1.000  H
  C6       1.0000 0.10156  0.56261  0.56302  Biso   1.000  C
  H7       1.0000 0.26588  0.55990  0.50301  Biso   1.000  H
  H8       1.0000 0.27351  0.61660  0.55339  Biso   1.000  H
  C7       1.0000 0.38369  0.59149  0.75922  Biso   1.000  C
  C8       1.0000 0.56585  0.51517  0.77341  Biso   1.000  C
  N3       1.0000 0.26533  0.34242  0.73169  Biso   1.000  N
  H9       1.0000 0.34665  0.30506  0.65020  Biso   1.000  H
  H10      1.0000 0.43426  0.36141  0.67790  Biso   1.000  H
  N4       1.0000 0.05633  0.58407  0.62849  Biso   1.000  N
  H11      1.0000 0.06244  0.59907  0.51771  Biso   1.000  H
  H12      1.0000 0.07327  0.50890  0.56803  Biso   1.000  H
  N5       1.0000 0.39907  0.56689  0.83193  Biso   1.000  N
  H13      1.0000 0.31744  0.62679  0.73580  Biso   1.000  H
  H14      1.0000 0.64802  0.54139  0.76469  Biso   1.000  H
  H15      1.0000 0.57615  0.46209  0.76799  Biso   1.000  H
  C9       1.0000 0.50919  0.51120  0.85108  Biso   1.000  C
  C10      1.0000 0.29214  0.35970  0.79198  Biso   1.000  C
  C11      1.0000 0.14534  0.30061  0.74161  Biso   1.000  C
  C12      1.0000 0.05083  0.53669  0.69722  Biso   1.000  C
  C13      1.0000 0.97573  0.65691  0.62348  Biso   1.000  C
  C14      1.0000 0.31847  0.58949  0.88840  Biso   1.000  C
  H16      1.0000 0.48241  0.45727  0.87889  Biso   1.000  H
  H17      1.0000 0.57061  0.52830  0.88128  Biso   1.000  H
  N6       1.0000 0.20415  0.33998  0.84521  Biso   1.000  N
  H18      1.0000 0.36793  0.38422  0.79728  Biso   1.000  H
  H19      1.0000 0.15800  0.24677  0.73819  Biso   1.000  H
  H20      1.0000 0.08325  0.32972  0.70389  Biso   1.000  H
  C15      1.0000 0.10225  0.29840  0.82139  Biso   1.000  C
  H21      1.0000 0.08715  0.48511  0.71169  Biso   1.000  H
  N7       1.0000 0.99028  0.56629  0.74509  Biso   1.000  N
  H22      1.0000 0.02276  0.70572  0.60029  Biso   1.000  H
  H23      1.0000 0.89810  0.65837  0.59482  Biso   1.000  H
  C16      1.0000 0.94534  0.64611  0.70611  Biso   1.000  C
  C17      1.0000 0.24439  0.51826  0.93770  Biso   1.000  C
  H24      1.0000 0.25859  0.63217  0.86231  Biso   1.000  H
  H25      1.0000 0.37220  0.60956  0.92032  Biso   1.000  H
  C18      1.0000 0.21560  0.34501  0.92140  Biso   1.000  C
  H26      1.0000 0.01990  0.32610  0.82048  Biso   1.000  H
  H27      1.0000 0.09558  0.24357  0.85490  Biso   1.000  H
  C19      1.0000 0.95132  0.52329  0.82270  Biso   1.000  C
  H28      1.0000 0.98948  0.68508  0.72332  Biso   1.000  H
  H29      1.0000 0.85363  0.65170  0.71409  Biso   1.000  H
  N8       1.0000 0.15236  0.48761  0.89490  Biso   1.000  N
  H30      1.0000 0.30480  0.47540  0.96260  Biso   1.000  H
  H31      1.0000 0.19824  0.53409  0.97713  Biso   1.000  H
  C20      1.0000 0.12240  0.40458  0.93741  Biso   1.000  C
  H32      1.0000 0.30235  0.36007  0.92818  Biso   1.000  H
  H33      1.0000 0.20123  0.29237  0.95793  Biso   1.000  H
  C21      1.0000 0.03681  0.53768  0.88208  Biso   1.000  C
  H34      1.0000 0.95178  0.46621  0.82908  Biso   1.000  H
  H35      1.0000 0.86390  0.53956  0.83102  Biso   1.000  H
  H36      1.0000 0.03664  0.39351  0.92442  Biso   1.000  H
  H37      1.0000 0.12261  0.39799  0.99149  Biso   1.000  H
  H38      1.0000 0.06048  0.59369  0.86578  Biso   1.000  H
  H39      1.0000 0.98902  0.52721  0.92961  Biso   1.000  H
  C22      1.0000 0.77303  0.21228  0.62359  Biso   1.000  C
  N9       1.0000 0.66127  0.16639  0.65870  Biso   1.000  N
  C23      1.0000 0.85776  0.20800  0.69112  Biso   1.000  C
  H40      1.0000 0.81651  0.18846  0.58883  Biso   1.000  H
  H41      1.0000 0.74873  0.26746  0.59613  Biso   1.000  H
  C24      1.0000 0.55194  0.15277  0.61761  Biso   1.000  C
  C25      1.0000 0.67433  0.14021  0.73118  Biso   1.000  C
  N10      1.0000 0.78064  0.15902  0.75569  Biso   1.000  N
  H42      1.0000 0.87163  0.26099  0.69522  Biso   1.000  H
  H43      1.0000 0.94009  0.18206  0.68753  Biso   1.000  H
  C26      1.0000 0.58063  0.09371  0.57561  Biso   1.000  C
  H44      1.0000 0.48166  0.13330  0.65328  Biso   1.000  H
  H45      1.0000 0.52413  0.20346  0.58142  Biso   1.000  H
  H46      1.0000 0.61206  0.11007  0.76372  Biso   1.000  H
  C27      1.0000 0.81527  0.14757  0.83421  Biso   1.000  C
  N11      1.0000 0.60998  0.01199  0.62610  Biso   1.000  N
  H47      1.0000 0.65321  0.11222  0.54148  Biso   1.000  H
  H48      1.0000 0.50728  0.09191  0.54472  Biso   1.000  H
  H49      1.0000 0.83240  0.19941  0.84008  Biso   1.000  H
  H50      1.0000 0.74321  0.12490  0.86732  Biso   1.000  H
  C28      1.0000 0.93101  0.09331  0.85820  Biso   1.000  C
  C29      1.0000 0.48789  0.97429  0.65733  Biso   1.000  C
  C30      1.0000 0.67502  0.96649  0.58108  Biso   1.000  C
  N12      1.0000 0.90836  0.00958  0.86350  Biso   1.000  N
  H51      1.0000 0.95866  0.09519  0.90738  Biso   1.000  H
  H52      1.0000 0.00033  0.11331  0.82179  Biso   1.000  H
  H53      1.0000 0.43553  0.01238  0.67408  Biso   1.000  H
  H54      1.0000 0.44214  0.96247  0.61698  Biso   1.000  H
  C31      1.0000 0.50416  0.89718  0.72360  Biso   1.000  C
  H55      1.0000 0.66346  0.90962  0.60638  Biso   1.000  H
  H56      1.0000 0.63474  0.98017  0.53162  Biso   1.000  H
  C32      1.0000 0.81629  0.98208  0.56963  Biso   1.000  C
  C33      1.0000 0.83886  0.96928  0.93451  Biso   1.000  C
  C34      1.0000 0.03136  0.96760  0.86151  Biso   1.000  C
  N13      1.0000 0.53911  0.90882  0.79478  Biso   1.000  N
  H57      1.0000 0.56973  0.86359  0.70998  Biso   1.000  H
  H58      1.0000 0.42425  0.86852  0.73141  Biso   1.000  H
  H59      1.0000 0.82824  0.03958  0.54883  Biso   1.000  H
  N14      1.0000 0.88983  0.95160  0.63818  Biso   1.000  N
  H60      1.0000 0.84950  0.95782  0.53242  Biso   1.000  H
  C35      1.0000 0.77696  0.89303  0.93428  Biso   1.000  C
  H61      1.0000 0.77304  0.00579  0.94322  Biso   1.000  H
  H62      1.0000 0.89836  0.95710  0.97662  Biso   1.000  H
  C36      1.0000 0.08672  0.98371  0.78270  Biso   1.000  C
  H63      1.0000 0.09251  0.98381  0.89251  Biso   1.000  H
  H64      1.0000 0.01964  0.91019  0.88379  Biso   1.000  H
  C37      1.0000 0.65350  0.91079  0.81979  Biso   1.000  C
  C38      1.0000 0.44955  0.89600  0.85843  Biso   1.000  C
  C39      1.0000 0.94624  0.99220  0.67539  Biso   1.000  C
  C40      1.0000 0.92437  0.86696  0.67363  Biso   1.000  C
  N15      1.0000 0.66072  0.90610  0.89029  Biso   1.000  N
  H65      1.0000 0.75719  0.86147  0.98653  Biso   1.000  H
  H66      1.0000 0.83795  0.86202  0.91388  Biso   1.000  H
  N16      1.0000 0.01081  0.95199  0.73380  Biso   1.000  N
  H67      1.0000 0.17272  0.96020  0.78629  Biso   1.000  H
  H68      1.0000 0.09367  0.04128  0.75922  Biso   1.000  H
  H69      1.0000 0.72605  0.91540  0.78868  Biso   1.000  H
  C41      1.0000 0.53264  0.89272  0.92499  Biso   1.000  C
  H70      1.0000 0.38682  0.93978  0.84908  Biso   1.000  H
  H71      1.0000 0.40492  0.84601  0.86721  Biso   1.000  H
  H72      1.0000 0.94019  0.04797  0.66052  Biso   1.000  H
  H73      1.0000 0.84834  0.83517  0.69021  Biso   1.000  H
  H74      1.0000 0.97339  0.84611  0.63852  Biso   1.000  H
  C42      1.0000 0.00554  0.86662  0.74150  Biso   1.000  C
  H75      1.0000 0.52843  0.84069  0.96402  Biso   1.000  H
  H76      1.0000 0.50759  0.93441  0.94710  Biso   1.000  H
  H77      1.0000 0.96482  0.83658  0.78931  Biso   1.000  H
  H78      1.0000 0.09068  0.84379  0.73853  Biso   1.000  H
  Ne1      1.0000 0.75772  0.00581  0.74593  Biso   1.000  Ne
  He1      1.0000 0.65161  0.02073  0.72756  Biso   1.000  He
  He2      1.0000 0.79080  0.11755  0.56232  Biso   1.000  He
  Ar1      1.0000 0.76569  0.01632  0.73982  Biso   1.000  Ar
  Ne2      1.0000 0.22892  0.49321  0.75132  Biso   1.000  Ne
  He3      1.0000 0.98795  0.38399  0.85702  Biso   1.000  He
  He4      1.0000 0.19671  0.53393  0.78180  Biso   1.000  He
  Ar2      1.0000 0.24321  0.49444  0.75602  Biso   1.000  Ar
