data_image0
_cell_length_a       17.842
_cell_length_b       15.394
_cell_length_c       15.463
_cell_angle_alpha    103.11
_cell_angle_beta     113.33
_cell_angle_gamma    99.2

_symmetry_space_group_name_H-M    "P 1"
_symmetry_int_tables_number       1

loop_
  _symmetry_equiv_pos_as_xyz
  'x, y, z'

loop_
  _atom_site_label
  _atom_site_occupancy
  _atom_site_fract_x
  _atom_site_fract_y
  _atom_site_fract_z
  _atom_site_thermal_displace_type
  _atom_site_B_iso_or_equiv
  _atom_site_type_symbol
  C1       1.0000 0.36808  0.37722  0.76927  Biso   1.000  C
  C2       1.0000 0.28142  0.30685  0.72013  Biso   1.000  C
  C3       1.0000 0.37738  0.44744  0.86190  Biso   1.000  C
  H1       1.0000 0.37354  0.40913  0.72303  Biso   1.000  H
  O1       1.0000 0.43158  0.32854  0.79440  Biso   1.000  O
  O2       1.0000 0.26971  0.24554  0.62802  Biso   1.000  O
  H2       1.0000 0.27784  0.27105  0.76392  Biso   1.000  H
  C4       1.0000 0.21077  0.35691  0.69828  Biso   1.000  C
  C5       1.0000 0.30664  0.49535  0.83135  Biso   1.000  C
  H3       1.0000 0.36940  0.41365  0.90561  Biso   1.000  H
  O3       1.0000 0.45968  0.51280  0.91520  Biso   1.000  O
  H4       1.0000 0.47888  0.36600  0.82570  Biso   1.000  H
  C6       1.0000 0.24601  0.14792  0.61338  Biso   1.000  C
  H5       1.0000 0.20899  0.38513  0.64698  Biso   1.000  H
  C7       1.0000 0.12389  0.29029  0.66430  Biso   1.000  C
  O4       1.0000 0.22647  0.42830  0.78800  Biso   1.000  O
  H6       1.0000 0.31273  0.54174  0.89052  Biso   1.000  H
  O5       1.0000 0.31588  0.54064  0.76429  Biso   1.000  O
  H7       1.0000 0.46233  0.55184  0.88732  Biso   1.000  H
  C8       1.0000 0.31511  0.10779  0.59650  Biso   1.000  C
  O6       1.0000 0.16680  0.10249  0.53168  Biso   1.000  O
  H8       1.0000 0.24423  0.13850  0.67322  Biso   1.000  H
  H9       1.0000 0.08280  0.32550  0.65992  Biso   1.000  H
  H10      1.0000 0.10580  0.24764  0.59851  Biso   1.000  H
  O7       1.0000 0.12488  0.23813  0.73061  Biso   1.000  O
  C9       1.0000 0.31897  0.63751  0.78629  Biso   1.000  C
  C10      1.0000 0.31700  0.11691  0.50202  Biso   1.000  C
  H11      1.0000 0.30093  0.04165  0.58944  Biso   1.000  H
  O8       1.0000 0.39622  0.15220  0.67962  Biso   1.000  O
  C11      1.0000 0.16088  0.10279  0.43608  Biso   1.000  C
  H12      1.0000 0.10648  0.26234  0.76801  Biso   1.000  H
  C12      1.0000 0.40148  0.68923  0.79068  Biso   1.000  C
  H13      1.0000 0.31841  0.66054  0.85052  Biso   1.000  H
  C13      1.0000 0.24240  0.65071  0.70370  Biso   1.000  C
  C14      1.0000 0.22902  0.06403  0.41519  Biso   1.000  C
  H14      1.0000 0.32939  0.18265  0.50663  Biso   1.000  H
  O9       1.0000 0.37752  0.07841  0.48284  Biso   1.000  O
  H15      1.0000 0.40409  0.12329  0.71939  Biso   1.000  H
  H16      1.0000 0.16767  0.16641  0.43340  Biso   1.000  H
  C15      1.0000 0.07179  0.04401  0.36211  Biso   1.000  C
  C16      1.0000 0.40398  0.79060  0.80310  Biso   1.000  C
  H17      1.0000 0.40470  0.66110  0.72920  Biso   1.000  H
  O10      1.0000 0.47221  0.68244  0.87424  Biso   1.000  O
  O11      1.0000 0.25090  0.74779  0.71738  Biso   1.000  O
  H18      1.0000 0.23908  0.62031  0.63880  Biso   1.000  H
  C17      1.0000 0.16048  0.61100  0.70601  Biso   1.000  C
  O12      1.0000 0.22930  0.07872  0.32747  Biso   1.000  O
  H19      1.0000 0.21745  0.99760  0.40738  Biso   1.000  H
  H20      1.0000 0.41708  0.08263  0.53547  Biso   1.000  H
  H21      1.0000 0.03122  0.07439  0.37282  Biso   1.000  H
  H22      1.0000 0.06439  0.03843  0.29528  Biso   1.000  H
  O13      1.0000 0.05510  0.95159  0.37170  Biso   1.000  O
  C18      1.0000 0.32519  0.79750  0.71790  Biso   1.000  C
  H23      1.0000 0.40189  0.81755  0.86569  Biso   1.000  H
  O14      1.0000 0.48029  0.84134  0.80860  Biso   1.000  O
  H24      1.0000 0.47229  0.71072  0.92613  Biso   1.000  H
  H25      1.0000 0.15491  0.54654  0.70281  Biso   1.000  H
  H26      1.0000 0.16241  0.64453  0.76838  Biso   1.000  H
  O15      1.0000 0.08712  0.61692  0.62461  Biso   1.000  O
  C19      1.0000 0.20059  0.99849  0.24227  Biso   1.000  C
  H27      1.0000 0.00367  0.92717  0.34419  Biso   1.000  H
  O16      1.0000 0.32746  0.75899  0.62698  Biso   1.000  O
  H28      1.0000 0.32589  0.86282  0.72749  Biso   1.000  H
  H29      1.0000 0.48187  0.82174  0.75559  Biso   1.000  H
  H30      1.0000 0.07448  0.66436  0.64304  Biso   1.000  H
  C20      1.0000 0.27265  0.99732  0.21217  Biso   1.000  C
  O17      1.0000 0.12679  0.00143  0.16407  Biso   1.000  O
  H31      1.0000 0.18791  0.94254  0.25982  Biso   1.000  H
  C21      1.0000 0.31956  0.81262  0.56119  Biso   1.000  C
  C22      1.0000 0.28969  0.08179  0.17953  Biso   1.000  C
  H32      1.0000 0.25286  0.94188  0.15440  Biso   1.000  H
  O18      1.0000 0.34666  0.99028  0.28807  Biso   1.000  O
  C23      1.0000 0.13771  0.08087  0.13047  Biso   1.000  C
  C24      1.0000 0.39496  0.81680  0.53800  Biso   1.000  C
  C25      1.0000 0.23397  0.76710  0.46663  Biso   1.000  C
  H33      1.0000 0.32106  0.87562  0.59427  Biso   1.000  H
  C26      1.0000 0.20711  0.08419  0.09798  Biso   1.000  C
  H34      1.0000 0.31148  0.13849  0.23640  Biso   1.000  H
  O19      1.0000 0.34989  0.07721  0.14087  Biso   1.000  O
  H35      1.0000 0.35759  0.02787  0.34137  Biso   1.000  H
  H36      1.0000 0.15367  0.13760  0.18570  Biso   1.000  H
  C27      1.0000 0.05149  0.07227  0.04780  Biso   1.000  C
  C28      1.0000 0.38347  0.86103  0.45637  Biso   1.000  C
  H37      1.0000 0.39892  0.75363  0.51533  Biso   1.000  H
  O20      1.0000 0.46991  0.86904  0.62840  Biso   1.000  O
  O21      1.0000 0.23107  0.80812  0.39058  Biso   1.000  O
  H38      1.0000 0.22717  0.70051  0.44158  Biso   1.000  H
  C29      1.0000 0.15877  0.78083  0.48418  Biso   1.000  C
  O22      1.0000 0.22391  0.16959  0.07702  Biso   1.000  O
  H39      1.0000 0.18893  0.03141  0.03814  Biso   1.000  H
  H40      1.0000 0.33949  0.02392  0.10571  Biso   1.000  H
  H41      1.0000 0.00992  0.07181  0.07352  Biso   1.000  H
  H42      1.0000 0.05531  0.12561  0.02461  Biso   1.000  H
  H43      1.0000 0.05268  0.13092  0.03442  Biso   1.000  H
  O23      1.0000 0.98604  0.05064  0.06943  Biso   1.000  O
  O24      1.0000 0.02701  0.99691  0.97428  Biso   1.000  O
  H44      1.0000 0.04170  0.02544  0.98781  Biso   1.000  H
  C30      1.0000 0.29887  0.80701  0.36598  Biso   1.000  C
  H45      1.0000 0.38132  0.92474  0.48083  Biso   1.000  H
  O25      1.0000 0.45218  0.86484  0.43214  Biso   1.000  O
  H46      1.0000 0.51079  0.87869  0.61643  Biso   1.000  H
  H47      1.0000 0.10707  0.75040  0.42270  Biso   1.000  H
  H48      1.0000 0.15590  0.75179  0.53272  Biso   1.000  H
  O26      1.0000 0.16386  0.87732  0.51919  Biso   1.000  O
  C31      1.0000 0.20352  0.16682  0.97822  Biso   1.000  C
  H49      1.0000 0.99030  0.09388  0.11478  Biso   1.000  H
  H50      1.0000 0.04811  0.95771  0.99502  Biso   1.000  H
  O27      1.0000 0.30390  0.71461  0.33141  Biso   1.000  O
  H51      1.0000 0.29120  0.83580  0.31394  Biso   1.000  H
  H52      1.0000 0.44578  0.81382  0.39512  Biso   1.000  H
  H53      1.0000 0.13330  0.89248  0.47288  Biso   1.000  H
  H54      1.0000 0.18879  0.10245  0.93636  Biso   1.000  H
  C32      1.0000 0.28301  0.22391  0.98030  Biso   1.000  C
  O28      1.0000 0.13452  0.20514  0.93912  Biso   1.000  O
  C33      1.0000 0.28052  0.67868  0.22822  Biso   1.000  C
  C34      1.0000 0.30593  0.32261  0.05003  Biso   1.000  C
  O29      1.0000 0.35049  0.18241  0.00989  Biso   1.000  O
  H55      1.0000 0.26942  0.22660  0.91317  Biso   1.000  H
  C35      1.0000 0.14862  0.29891  0.99740  Biso   1.000  C
  C36      1.0000 0.35119  0.64323  0.21551  Biso   1.000  C
  C37      1.0000 0.19788  0.59863  0.17641  Biso   1.000  C
  H56      1.0000 0.27166  0.72820  0.19819  Biso   1.000  H
  H57      1.0000 0.31842  0.32073  0.11723  Biso   1.000  H
  C38      1.0000 0.23150  0.36306  0.01256  Biso   1.000  C
  O30      1.0000 0.37889  0.37972  0.05219  Biso   1.000  O
  H58      1.0000 0.35347  0.16618  0.05791  Biso   1.000  H
  H59      1.0000 0.15230  0.29919  0.06237  Biso   1.000  H
  C39      1.0000 0.07052  0.32786  0.94127  Biso   1.000  C
  C40      1.0000 0.32353  0.60363  0.10512  Biso   1.000  C
  H60      1.0000 0.36079  0.59444  0.24644  Biso   1.000  H
  O31      1.0000 0.42628  0.71908  0.26339  Biso   1.000  O
  O32      1.0000 0.17549  0.56046  0.07278  Biso   1.000  O
  H61      1.0000 0.20612  0.55001  0.20771  Biso   1.000  H
  C41      1.0000 0.12320  0.63120  0.18169  Biso   1.000  C
  O33      1.0000 0.25170  0.45018  0.08668  Biso   1.000  O
  H62      1.0000 0.22413  0.37352  0.94982  Biso   1.000  H
  H63      1.0000 0.39387  0.43102  0.09367  Biso   1.000  H
  H64      1.0000 0.02012  0.28421  0.93198  Biso   1.000  H
  H65      1.0000 0.07412  0.38871  0.98037  Biso   1.000  H
  O34      1.0000 0.06313  0.33083  0.84716  Biso   1.000  O
  C42      1.0000 0.23888  0.52827  0.05338  Biso   1.000  C
  H66      1.0000 0.31498  0.65421  0.07687  Biso   1.000  H
  O35      1.0000 0.38608  0.56951  0.08519  Biso   1.000  O
  H67      1.0000 0.46740  0.69948  0.26762  Biso   1.000  H
  H68      1.0000 0.07137  0.58046  0.14318  Biso   1.000  H
  H69      1.0000 0.13217  0.65041  0.25008  Biso   1.000  H
  O36      1.0000 0.11502  0.70651  0.14392  Biso   1.000  O
  H70      1.0000 0.04969  0.37763  0.83772  Biso   1.000  H
  H71      1.0000 0.22039  0.50934  0.98149  Biso   1.000  H
  H72      1.0000 0.41409  0.60908  0.07382  Biso   1.000  H
  H73      1.0000 0.11549  0.69302  0.08980  Biso   1.000  H
  C43      1.0000 0.66158  0.39559  0.87469  Biso   1.000  C
  C44      1.0000 0.66068  0.29881  0.88532  Biso   1.000  C
  H74      1.0000 0.64973  0.39294  0.80644  Biso   1.000  H
  C45      1.0000 0.75011  0.46054  0.94665  Biso   1.000  C
  O37      1.0000 0.59939  0.42832  0.89833  Biso   1.000  O
  C46      1.0000 0.72831  0.26612  0.86182  Biso   1.000  C
  H75      1.0000 0.67237  0.30169  0.95349  Biso   1.000  H
  O38      1.0000 0.57971  0.23464  0.81774  Biso   1.000  O
  C47      1.0000 0.81901  0.42353  0.92940  Biso   1.000  C
  O39      1.0000 0.75129  0.54762  0.92732  Biso   1.000  O
  H76      1.0000 0.75978  0.46898  0.01534  Biso   1.000  H
  H77      1.0000 0.60743  0.48393  0.90494  Biso   1.000  H
  O40      1.0000 0.70999  0.26124  0.76303  Biso   1.000  O
  H78      1.0000 0.72702  0.20400  0.86799  Biso   1.000  H
  O41      1.0000 0.81010  0.32794  0.92992  Biso   1.000  O
  H79      1.0000 0.55817  0.21269  0.84889  Biso   1.000  H
  H80      1.0000 0.81540  0.42652  0.86524  Biso   1.000  H
  C48      1.0000 0.90861  0.47563  0.01095  Biso   1.000  C
  C49      1.0000 0.78470  0.62981  0.01073  Biso   1.000  C
  C50      1.0000 0.69759  0.17329  0.69448  Biso   1.000  C
  H81      1.0000 0.94912  0.44861  0.99564  Biso   1.000  H
  H82      1.0000 0.92108  0.53989  0.01281  Biso   1.000  H
  O42      1.0000 0.91827  0.47241  0.10603  Biso   1.000  O
  C51      1.0000 0.71668  0.68113  0.99638  Biso   1.000  C
  H83      1.0000 0.79766  0.61246  0.07131  Biso   1.000  H
  O43      1.0000 0.85998  0.68603  0.01935  Biso   1.000  O
  C52      1.0000 0.61230  0.14840  0.60379  Biso   1.000  C
  C53      1.0000 0.76969  0.18082  0.66311  Biso   1.000  C
  H84      1.0000 0.69832  0.12534  0.72667  Biso   1.000  H
  H85      1.0000 0.92850  0.52503  0.14246  Biso   1.000  H
  C54      1.0000 0.69898  0.71510  0.90732  Biso   1.000  C
  O44      1.0000 0.64317  0.62270  0.98761  Biso   1.000  O
  H86      1.0000 0.73781  0.73533  0.05593  Biso   1.000  H
  C55      1.0000 0.84799  0.71879  0.93550  Biso   1.000  C
  C56      1.0000 0.60222  0.06261  0.52707  Biso   1.000  C
  H87      1.0000 0.60970  0.19969  0.57591  Biso   1.000  H
  O45      1.0000 0.54301  0.13144  0.62869  Biso   1.000  O
  O46      1.0000 0.75410  0.09709  0.58669  Biso   1.000  O
  H88      1.0000 0.77151  0.23283  0.63657  Biso   1.000  H
  C57      1.0000 0.85648  0.19654  0.74801  Biso   1.000  C
  H89      1.0000 0.67611  0.66153  0.84703  Biso   1.000  H
  C58      1.0000 0.78347  0.77524  0.92159  Biso   1.000  C
  O47      1.0000 0.63791  0.76631  0.89922  Biso   1.000  O
  H90      1.0000 0.62299  0.57865  0.93624  Biso   1.000  H
  H91      1.0000 0.82643  0.66522  0.87543  Biso   1.000  H
  C59      1.0000 0.93433  0.77395  0.95601  Biso   1.000  C
  C60      1.0000 0.67551  0.07565  0.50023  Biso   1.000  C
  H92      1.0000 0.60219  0.01100  0.55428  Biso   1.000  H
  O48      1.0000 0.52410  0.03971  0.43883  Biso   1.000  O
  H93      1.0000 0.55642  0.16700  0.68400  Biso   1.000  H
  H94      1.0000 0.89830  0.19644  0.72259  Biso   1.000  H
  H95      1.0000 0.87249  0.25701  0.79663  Biso   1.000  H
  O49      1.0000 0.85749  0.12671  0.79551  Biso   1.000  O
  H96      1.0000 0.80550  0.83062  0.98003  Biso   1.000  H
  O50      1.0000 0.76821  0.80201  0.83551  Biso   1.000  O
  H97      1.0000 0.63883  0.79786  0.86324  Biso   1.000  H
  H98      1.0000 0.97370  0.73632  0.96813  Biso   1.000  H
  H99      1.0000 0.93080  0.79323  0.89944  Biso   1.000  H
  O51      1.0000 0.96250  0.85300  0.04143  Biso   1.000  O
  O52      1.0000 0.67359  0.14729  0.45637  Biso   1.000  O
  H100     1.0000 0.66870  0.01769  0.45191  Biso   1.000  H
  H101     1.0000 0.49578  0.98717  0.42708  Biso   1.000  H
  H102     1.0000 0.86880  0.08286  0.76704  Biso   1.000  H
  C61      1.0000 0.78859  0.89732  0.84614  Biso   1.000  C
  H103     1.0000 0.98628  0.89848  0.03333  Biso   1.000  H
  C62      1.0000 0.67172  0.12560  0.36100  Biso   1.000  C
  C63      1.0000 0.70957  0.91563  0.77381  Biso   1.000  C
  O53      1.0000 0.85806  0.92331  0.82547  Biso   1.000  O
  H104     1.0000 0.80312  0.93361  0.91423  Biso   1.000  H
  C64      1.0000 0.59097  0.14142  0.28889  Biso   1.000  C
  H105     1.0000 0.67078  0.06030  0.33847  Biso   1.000  H
  C65      1.0000 0.75220  0.18848  0.36969  Biso   1.000  C
  C66      1.0000 0.68720  0.85605  0.66921  Biso   1.000  C
  H106     1.0000 0.72249  0.98134  0.77834  Biso   1.000  H
  O54      1.0000 0.64100  0.89394  0.79700  Biso   1.000  O
  C67      1.0000 0.84372  0.87230  0.72794  Biso   1.000  C
  O55      1.0000 0.51589  0.07413  0.27142  Biso   1.000  O
  C68      1.0000 0.59308  0.13130  0.19083  Biso   1.000  C
  H107     1.0000 0.58819  0.20411  0.31632  Biso   1.000  H
  O56      1.0000 0.74680  0.18158  0.27313  Biso   1.000  O
  H108     1.0000 0.75877  0.25312  0.40448  Biso   1.000  H
  C69      1.0000 0.83109  0.16159  0.42433  Biso   1.000  C
  C70      1.0000 0.76239  0.87972  0.64802  Biso   1.000  C
  H109     1.0000 0.67371  0.79020  0.66423  Biso   1.000  H
  O57      1.0000 0.61429  0.87413  0.60007  Biso   1.000  O
  H110     1.0000 0.63698  0.94184  0.82889  Biso   1.000  H
  H111     1.0000 0.83826  0.80669  0.72288  Biso   1.000  H
  C71      1.0000 0.92282  0.91152  0.71760  Biso   1.000  C
  H112     1.0000 0.51502  0.07672  0.32449  Biso   1.000  H
  C72      1.0000 0.67251  0.19869  0.20622  Biso   1.000  C
  H113     1.0000 0.59503  0.06811  0.16392  Biso   1.000  H
  O58      1.0000 0.51932  0.14620  0.12051  Biso   1.000  O
  H114     1.0000 0.88011  0.20300  0.42790  Biso   1.000  H
  H115     1.0000 0.83961  0.16798  0.49169  Biso   1.000  H
  O59      1.0000 0.82401  0.06751  0.37490  Biso   1.000  O
  O60      1.0000 0.74197  0.81432  0.55391  Biso   1.000  O
  H116     1.0000 0.77109  0.94281  0.64379  Biso   1.000  H
  H117     1.0000 0.58408  0.82600  0.55443  Biso   1.000  H
  H118     1.0000 0.97298  0.90803  0.77128  Biso   1.000  H
  H119     1.0000 0.91910  0.87523  0.65523  Biso   1.000  H
  O61      1.0000 0.92921  0.00452  0.72073  Biso   1.000  O
  H120     1.0000 0.67361  0.19018  0.14214  Biso   1.000  H
  O62      1.0000 0.67019  0.29143  0.24369  Biso   1.000  O
  H121     1.0000 0.52343  0.14301  0.06891  Biso   1.000  H
  H122     1.0000 0.87081  0.06308  0.38077  Biso   1.000  H
  C73      1.0000 0.75648  0.84997  0.48388  Biso   1.000  C
  H123     1.0000 0.97305  0.02651  0.71813  Biso   1.000  H
  C74      1.0000 0.67749  0.35392  0.18972  Biso   1.000  C
  C75      1.0000 0.67359  0.81633  0.38701  Biso   1.000  C
  O63      1.0000 0.82180  0.81959  0.46678  Biso   1.000  O
  H124     1.0000 0.77349  0.91812  0.50930  Biso   1.000  H
  C76      1.0000 0.60407  0.39709  0.17187  Biso   1.000  C
  H125     1.0000 0.67411  0.31984  0.12593  Biso   1.000  H
  C77      1.0000 0.76289  0.42899  0.25127  Biso   1.000  C
  C78      1.0000 0.64947  0.71119  0.34219  Biso   1.000  C
  H126     1.0000 0.68241  0.84459  0.33981  Biso   1.000  H
  O64      1.0000 0.60872  0.84585  0.40694  Biso   1.000  O
  C79      1.0000 0.80333  0.71964  0.42634  Biso   1.000  C
  C80      1.0000 0.61392  0.47293  0.12601  Biso   1.000  C
  H127     1.0000 0.60380  0.42408  0.23551  Biso   1.000  H
  O65      1.0000 0.52611  0.32523  0.10720  Biso   1.000  O
  H128     1.0000 0.76990  0.45528  0.31892  Biso   1.000  H
  C81      1.0000 0.83749  0.39074  0.25603  Biso   1.000  C
  O66      1.0000 0.76659  0.50257  0.20748  Biso   1.000  O
  C82      1.0000 0.72259  0.68443  0.32643  Biso   1.000  C
  H129     1.0000 0.63817  0.68158  0.38731  Biso   1.000  H
  O67      1.0000 0.57350  0.68480  0.24934  Biso   1.000  O
  H130     1.0000 0.62978  0.88233  0.46358  Biso   1.000  H
  H131     1.0000 0.79376  0.69043  0.47258  Biso   1.000  H
  C83      1.0000 0.88162  0.70281  0.41824  Biso   1.000  C
  C84      1.0000 0.69947  0.54507  0.19537  Biso   1.000  C
  H132     1.0000 0.61217  0.44598  0.06118  Biso   1.000  H
  O68      1.0000 0.54690  0.51713  0.11381  Biso   1.000  O
  H133     1.0000 0.49018  0.34794  0.07553  Biso   1.000  H
  H134     1.0000 0.88961  0.44120  0.29141  Biso   1.000  H
  H135     1.0000 0.84223  0.34701  0.29312  Biso   1.000  H
  O69      1.0000 0.82848  0.34558  0.16072  Biso   1.000  O
  O70      1.0000 0.70027  0.58497  0.28829  Biso   1.000  O
  H136     1.0000 0.73226  0.71137  0.27878  Biso   1.000  H
  H137     1.0000 0.56890  0.63370  0.21403  Biso   1.000  H
  H138     1.0000 0.93000  0.72779  0.48351  Biso   1.000  H
  H139     1.0000 0.87368  0.63649  0.39430  Biso   1.000  H
  O71      1.0000 0.89869  0.74433  0.35312  Biso   1.000  O
  H140     1.0000 0.70641  0.59413  0.16600  Biso   1.000  H
  H141     1.0000 0.53520  0.53380  0.06438  Biso   1.000  H
  H142     1.0000 0.84450  0.38432  0.13842  Biso   1.000  H
  H143     1.0000 0.90961  0.70729  0.31572  Biso   1.000  H
