data_image0
_cell_length_a       19.11
_cell_length_b       24.564
_cell_length_c       15.776
_cell_angle_alpha    90
_cell_angle_beta     109.8
_cell_angle_gamma    90

_symmetry_space_group_name_H-M    "P 1"
_symmetry_int_tables_number       1

loop_
  _symmetry_equiv_pos_as_xyz
  'x, y, z'

loop_
  _atom_site_label
  _atom_site_occupancy
  _atom_site_fract_x
  _atom_site_fract_y
  _atom_site_fract_z
  _atom_site_thermal_displace_type
  _atom_site_B_iso_or_equiv
  _atom_site_type_symbol
  C1       1.0000 0.44371  0.31098  0.17577  Biso   1.000  C
  O1       1.0000 0.37621  0.28200  0.15819  Biso   1.000  O
  C2       1.0000 0.50039  0.29140  0.26301  Biso   1.000  C
  H1       1.0000 0.43470  0.35039  0.18042  Biso   1.000  H
  C3       1.0000 0.46781  0.30101  0.09391  Biso   1.000  C
  C4       1.0000 0.34268  0.28798  0.22690  Biso   1.000  C
  C5       1.0000 0.47041  0.29702  0.34123  Biso   1.000  C
  H2       1.0000 0.51489  0.25370  0.25722  Biso   1.000  H
  O2       1.0000 0.56352  0.32739  0.28403  Biso   1.000  O
  H3       1.0000 0.42589  0.30830  0.04002  Biso   1.000  H
  H4       1.0000 0.50683  0.32641  0.09573  Biso   1.000  H
  O3       1.0000 0.49211  0.25102  0.08630  Biso   1.000  O
  O4       1.0000 0.41200  0.29299  0.01597  Biso   1.000  O
  O5       1.0000 0.32551  0.34099  0.23869  Biso   1.000  O
  H5       1.0000 0.29711  0.26600  0.20993  Biso   1.000  H
  C6       1.0000 0.39642  0.26620  0.31543  Biso   1.000  C
  H6       1.0000 0.46090  0.33602  0.34857  Biso   1.000  H
  O6       1.0000 0.52121  0.27780  0.42221  Biso   1.000  O
  C7       1.0000 0.63399  0.30300  0.28659  Biso   1.000  C
  C8       1.0000 0.25009  0.35760  0.22030  Biso   1.000  C
  H7       1.0000 0.40642  0.22781  0.30701  Biso   1.000  H
  O7       1.0000 0.36541  0.26950  0.38603  Biso   1.000  O
  H8       1.0000 0.62813  0.26319  0.27891  Biso   1.000  H
  C9       1.0000 0.68953  0.31530  0.37572  Biso   1.000  C
  O8       1.0000 0.65362  0.32560  0.21437  Biso   1.000  O
  C10      1.0000 0.23972  0.38532  0.29791  Biso   1.000  C
  H9       1.0000 0.21880  0.32499  0.20703  Biso   1.000  H
  C11      1.0000 0.22912  0.39220  0.13649  Biso   1.000  C
  H10      1.0000 0.73639  0.29881  0.37640  Biso   1.000  H
  O9       1.0000 0.67270  0.29230  0.44842  Biso   1.000  O
  C12      1.0000 0.70440  0.37710  0.38980  Biso   1.000  C
  C13      1.0000 0.66827  0.38361  0.22037  Biso   1.000  C
  C14      1.0000 0.16168  0.40641  0.27447  Biso   1.000  C
  H11      1.0000 0.27390  0.41630  0.31442  Biso   1.000  H
  O10      1.0000 0.25570  0.35072  0.37209  Biso   1.000  O
  H12      1.0000 0.26441  0.42249  0.14592  Biso   1.000  H
  C15      1.0000 0.22172  0.36598  0.05241  Biso   1.000  C
  O11      1.0000 0.15337  0.41418  0.11487  Biso   1.000  O
  H13      1.0000 0.65878  0.39521  0.39021  Biso   1.000  H
  O12      1.0000 0.76130  0.38691  0.47240  Biso   1.000  O
  C16      1.0000 0.72527  0.39851  0.31118  Biso   1.000  C
  H14      1.0000 0.62197  0.40380  0.21087  Biso   1.000  H
  C17      1.0000 0.69881  0.39501  0.14208  Biso   1.000  C
  C18      1.0000 0.14639  0.43922  0.19322  Biso   1.000  C
  H15      1.0000 0.12769  0.37518  0.26032  Biso   1.000  H
  O13      1.0000 0.15081  0.43499  0.34487  Biso   1.000  O
  H16      1.0000 0.27032  0.35340  0.05423  Biso   1.000  H
  H17      1.0000 0.20431  0.39228  0.00418  Biso   1.000  H
  O14      1.0000 0.17031  0.31929  0.03173  Biso   1.000  O
  H18      1.0000 0.77461  0.38520  0.31509  Biso   1.000  H
  O15      1.0000 0.72633  0.45538  0.32001  Biso   1.000  O
  H19      1.0000 0.66032  0.38719  0.08509  Biso   1.000  H
  H20      1.0000 0.71048  0.43381  0.14229  Biso   1.000  H
  O16      1.0000 0.76208  0.36501  0.14902  Biso   1.000  O
  O17      1.0000 0.64602  0.40099  0.05902  Biso   1.000  O
  O18      1.0000 0.19132  0.48889  0.21390  Biso   1.000  O
  H21      1.0000 0.09452  0.45090  0.17671  Biso   1.000  H
  C19      1.0000 0.79232  0.48502  0.31873  Biso   1.000  C
  C20      1.0000 0.16117  0.54421  0.19349  Biso   1.000  C
  H22      1.0000 0.82999  0.45811  0.31738  Biso   1.000  H
  C21      1.0000 0.82393  0.51922  0.40031  Biso   1.000  C
  O19      1.0000 0.77597  0.51771  0.24098  Biso   1.000  O
  C22      1.0000 0.18161  0.57291  0.27501  Biso   1.000  C
  H23      1.0000 0.10677  0.54209  0.16849  Biso   1.000  H
  C23      1.0000 0.18871  0.56990  0.12672  Biso   1.000  C
  H24      1.0000 0.87098  0.53489  0.39998  Biso   1.000  H
  O20      1.0000 0.83820  0.48612  0.48392  Biso   1.000  O
  C24      1.0000 0.77000  0.56701  0.40732  Biso   1.000  C
  C25      1.0000 0.72368  0.56371  0.23701  Biso   1.000  C
  C26      1.0000 0.15700  0.63381  0.25493  Biso   1.000  C
  H25      1.0000 0.23603  0.57222  0.30081  Biso   1.000  H
  O21      1.0000 0.15173  0.54999  0.34143  Biso   1.000  O
  H26      1.0000 0.24321  0.56961  0.14761  Biso   1.000  H
  C27      1.0000 0.15759  0.53798  0.04110  Biso   1.000  C
  O22      1.0000 0.16119  0.62351  0.10597  Biso   1.000  O
  H27      1.0000 0.72380  0.55089  0.40921  Biso   1.000  H
  O23      1.0000 0.79959  0.59831  0.48412  Biso   1.000  O
  C28      1.0000 0.75332  0.59441  0.31940  Biso   1.000  C
  H28      1.0000 0.67512  0.54881  0.23290  Biso   1.000  H
  C29      1.0000 0.71700  0.59200  0.14687  Biso   1.000  C
  C30      1.0000 0.18359  0.65551  0.18102  Biso   1.000  C
  H29      1.0000 0.10247  0.63451  0.23209  Biso   1.000  H
  O24      1.0000 0.18151  0.66418  0.33847  Biso   1.000  O
  H30      1.0000 0.18520  0.54881  0.00209  Biso   1.000  H
  H31      1.0000 0.16790  0.50020  0.05551  Biso   1.000  H
  O25      1.0000 0.08378  0.54299  0.99252  Biso   1.000  O
  O26      1.0000 0.17697  0.54901  0.96800  Biso   1.000  O
  H32      1.0000 0.79818  0.61342  0.31873  Biso   1.000  H
  O27      1.0000 0.69679  0.63512  0.31711  Biso   1.000  O
  H33      1.0000 0.71143  0.56420  0.10132  Biso   1.000  H
  H34      1.0000 0.67219  0.61391  0.12827  Biso   1.000  H
  O28      1.0000 0.77503  0.62400  0.15003  Biso   1.000  O
  O29      1.0000 0.68600  0.56200  0.07121  Biso   1.000  O
  O30      1.0000 0.26257  0.65771  0.22077  Biso   1.000  O
  H35      1.0000 0.16419  0.69240  0.16479  Biso   1.000  H
  C31      1.0000 0.71089  0.69252  0.31233  Biso   1.000  C
  C32      1.0000 0.30061  0.71100  0.21889  Biso   1.000  C
  H36      1.0000 0.76389  0.69761  0.32223  Biso   1.000  H
  C33      1.0000 0.69198  0.72179  0.38617  Biso   1.000  C
  O31      1.0000 0.66963  0.71340  0.22690  Biso   1.000  O
  C34      1.0000 0.35512  0.71772  0.30862  Biso   1.000  C
  H37      1.0000 0.26518  0.74129  0.20238  Biso   1.000  H
  C35      1.0000 0.34201  0.70502  0.15360  Biso   1.000  C
  H38      1.0000 0.70200  0.76071  0.38233  Biso   1.000  H
  O32      1.0000 0.74168  0.70151  0.47240  Biso   1.000  O
  C36      1.0000 0.61232  0.71511  0.37229  Biso   1.000  C
  C37      1.0000 0.58758  0.70872  0.20710  Biso   1.000  C
  C38      1.0000 0.39959  0.77088  0.31253  Biso   1.000  C
  H39      1.0000 0.38953  0.68670  0.32183  Biso   1.000  H
  O33      1.0000 0.31798  0.72069  0.38017  Biso   1.000  O
  H40      1.0000 0.37327  0.67192  0.16378  Biso   1.000  H
  O34      1.0000 0.38160  0.75480  0.15387  Biso   1.000  O
  C39      1.0000 0.28450  0.70799  0.06003  Biso   1.000  C
  C40      1.0000 0.56850  0.73620  0.28370  Biso   1.000  C
  H41      1.0000 0.60131  0.67640  0.37559  Biso   1.000  H
  O35      1.0000 0.59639  0.74410  0.44330  Biso   1.000  O
  H42      1.0000 0.57212  0.67049  0.20083  Biso   1.000  H
  C41      1.0000 0.55512  0.73868  0.11871  Biso   1.000  C
  C42      1.0000 0.43400  0.76620  0.24098  Biso   1.000  C
  H43      1.0000 0.36489  0.80162  0.29811  Biso   1.000  H
  O36      1.0000 0.45292  0.77988  0.39452  Biso   1.000  O
  H44      1.0000 0.34058  0.70990  0.45219  Biso   1.000  H
  H45      1.0000 0.24999  0.67811  0.05450  Biso   1.000  H
  H46      1.0000 0.25682  0.74129  0.05760  Biso   1.000  H
  O37      1.0000 0.24009  0.75199  0.03800  Biso   1.000  O
  O38      1.0000 0.30503  0.70701  0.98693  Biso   1.000  O
  O39      1.0000 0.48967  0.72211  0.26827  Biso   1.000  O
  H47      1.0000 0.57441  0.77569  0.28161  Biso   1.000  H
  H48      1.0000 0.57560  0.72281  0.07593  Biso   1.000  H
  H49      1.0000 0.50189  0.73201  0.09620  Biso   1.000  H
  O40      1.0000 0.56602  0.79299  0.11951  Biso   1.000  O
  O41      1.0000 0.52669  0.71788  0.03820  Biso   1.000  O
  H50      1.0000 0.45939  0.80040  0.23822  Biso   1.000  H
  O42      1.0000 0.47331  0.71788  0.96180  Biso   1.000  O
  C43      1.0000 0.44488  0.73868  0.88129  Biso   1.000  C
  H51      1.0000 0.42442  0.72281  0.92414  Biso   1.000  H
  H52      1.0000 0.49811  0.73201  0.90380  Biso   1.000  H
  C44      1.0000 0.41242  0.70872  0.79290  Biso   1.000  C
  O43      1.0000 0.43400  0.79299  0.88055  Biso   1.000  O
  C45      1.0000 0.43150  0.73620  0.71630  Biso   1.000  C
  H53      1.0000 0.42790  0.67049  0.79924  Biso   1.000  H
  O44      1.0000 0.33043  0.71340  0.77310  Biso   1.000  O
  C46      1.0000 0.38773  0.71511  0.62771  Biso   1.000  C
  H54      1.0000 0.42559  0.77569  0.71839  Biso   1.000  H
  O45      1.0000 0.51033  0.72211  0.73173  Biso   1.000  O
  C47      1.0000 0.28913  0.69252  0.68774  Biso   1.000  C
  C48      1.0000 0.30802  0.72179  0.61383  Biso   1.000  C
  H55      1.0000 0.39869  0.67640  0.62441  Biso   1.000  H
  O46      1.0000 0.40361  0.74410  0.55670  Biso   1.000  O
  C49      1.0000 0.56600  0.76620  0.75902  Biso   1.000  C
  O47      1.0000 0.30323  0.63512  0.68296  Biso   1.000  O
  H56      1.0000 0.23613  0.69761  0.67784  Biso   1.000  H
  H57      1.0000 0.29802  0.76071  0.61774  Biso   1.000  H
  O48      1.0000 0.25832  0.70151  0.52760  Biso   1.000  O
  H58      1.0000 0.54062  0.80040  0.76185  Biso   1.000  H
  C50      1.0000 0.60043  0.77088  0.68754  Biso   1.000  C
  O49      1.0000 0.61840  0.75480  0.84613  Biso   1.000  O
  C51      1.0000 0.24668  0.59441  0.68060  Biso   1.000  C
  H59      1.0000 0.63513  0.80162  0.70195  Biso   1.000  H
  O50      1.0000 0.54710  0.77988  0.60555  Biso   1.000  O
  C52      1.0000 0.64490  0.71772  0.69144  Biso   1.000  C
  C53      1.0000 0.65799  0.70502  0.84640  Biso   1.000  C
  C54      1.0000 0.23002  0.56701  0.59275  Biso   1.000  C
  H60      1.0000 0.20184  0.61342  0.68134  Biso   1.000  H
  C55      1.0000 0.27632  0.56371  0.76299  Biso   1.000  C
  H61      1.0000 0.61049  0.68670  0.67824  Biso   1.000  H
  O51      1.0000 0.68202  0.72069  0.61983  Biso   1.000  O
  C56      1.0000 0.69939  0.71100  0.78111  Biso   1.000  C
  H62      1.0000 0.62673  0.67192  0.83622  Biso   1.000  H
  C57      1.0000 0.71552  0.70799  0.94004  Biso   1.000  C
  C58      1.0000 0.17614  0.51922  0.59975  Biso   1.000  C
  H63      1.0000 0.27620  0.55089  0.59079  Biso   1.000  H
  O52      1.0000 0.20043  0.59831  0.51594  Biso   1.000  O
  H64      1.0000 0.32493  0.54881  0.76710  Biso   1.000  H
  C59      1.0000 0.28300  0.59200  0.85313  Biso   1.000  C
  O53      1.0000 0.22403  0.51771  0.75902  Biso   1.000  O
  H65      1.0000 0.65942  0.70990  0.54781  Biso   1.000  H
  H66      1.0000 0.73482  0.74129  0.79762  Biso   1.000  H
  O54      1.0000 0.73743  0.65771  0.77923  Biso   1.000  O
  O55      1.0000 0.69504  0.70701  0.01314  Biso   1.000  O
  H67      1.0000 0.75001  0.67811  0.94550  Biso   1.000  H
  H68      1.0000 0.74318  0.74129  0.94240  Biso   1.000  H
  O56      1.0000 0.75991  0.75199  0.96200  Biso   1.000  O
  C60      1.0000 0.20770  0.48502  0.68134  Biso   1.000  C
  H69      1.0000 0.12902  0.53489  0.60002  Biso   1.000  H
  O57      1.0000 0.16182  0.48612  0.51615  Biso   1.000  O
  H70      1.0000 0.28864  0.56420  0.89874  Biso   1.000  H
  H71      1.0000 0.32781  0.61391  0.87173  Biso   1.000  H
  O58      1.0000 0.22499  0.62400  0.85003  Biso   1.000  O
  O59      1.0000 0.31400  0.56200  0.92879  Biso   1.000  O
  C61      1.0000 0.81643  0.65551  0.81904  Biso   1.000  C
  O60      1.0000 0.27373  0.45538  0.67999  Biso   1.000  O
  H72      1.0000 0.17001  0.45811  0.68262  Biso   1.000  H
  H73      1.0000 0.83581  0.69240  0.83521  Biso   1.000  H
  C62      1.0000 0.84302  0.63381  0.74514  Biso   1.000  C
  O61      1.0000 0.83881  0.62351  0.89403  Biso   1.000  O
  C63      1.0000 0.27473  0.39851  0.68882  Biso   1.000  C
  H74      1.0000 0.89753  0.63451  0.76791  Biso   1.000  H
  O62      1.0000 0.81854  0.66418  0.66153  Biso   1.000  O
  C64      1.0000 0.81839  0.57291  0.72499  Biso   1.000  C
  C65      1.0000 0.81131  0.56990  0.87334  Biso   1.000  C
  C66      1.0000 0.29560  0.37710  0.61020  Biso   1.000  C
  H75      1.0000 0.22539  0.38520  0.68491  Biso   1.000  H
  C67      1.0000 0.33173  0.38361  0.77963  Biso   1.000  C
  H76      1.0000 0.76402  0.57222  0.69919  Biso   1.000  H
  O63      1.0000 0.84834  0.54999  0.65863  Biso   1.000  O
  C68      1.0000 0.83883  0.54421  0.80651  Biso   1.000  C
  H77      1.0000 0.75679  0.56961  0.85239  Biso   1.000  H
  C69      1.0000 0.84241  0.53798  0.95890  Biso   1.000  C
  C70      1.0000 0.31049  0.31530  0.62434  Biso   1.000  C
  H78      1.0000 0.34122  0.39521  0.60979  Biso   1.000  H
  O64      1.0000 0.23870  0.38691  0.52760  Biso   1.000  O
  H79      1.0000 0.37803  0.40380  0.78913  Biso   1.000  H
  O65      1.0000 0.34644  0.32560  0.78563  Biso   1.000  O
  C71      1.0000 0.30119  0.39501  0.85792  Biso   1.000  C
  H80      1.0000 0.89323  0.54209  0.83151  Biso   1.000  H
  O66      1.0000 0.80868  0.48889  0.78610  Biso   1.000  O
  O67      1.0000 0.91624  0.54299  0.00755  Biso   1.000  O
  O68      1.0000 0.82303  0.54901  0.03200  Biso   1.000  O
  H81      1.0000 0.81480  0.54881  0.99791  Biso   1.000  H
  H82      1.0000 0.83211  0.50020  0.94455  Biso   1.000  H
  C72      1.0000 0.36601  0.30300  0.71341  Biso   1.000  C
  H83      1.0000 0.26361  0.29881  0.62360  Biso   1.000  H
  O69      1.0000 0.32732  0.29230  0.55165  Biso   1.000  O
  H84      1.0000 0.33973  0.38719  0.91491  Biso   1.000  H
  H85      1.0000 0.28952  0.43381  0.85771  Biso   1.000  H
  O70      1.0000 0.23794  0.36501  0.85104  Biso   1.000  O
  O71      1.0000 0.35400  0.40099  0.94105  Biso   1.000  O
  C73      1.0000 0.85363  0.43922  0.80685  Biso   1.000  C
  O72      1.0000 0.43650  0.32739  0.71603  Biso   1.000  O
  H86      1.0000 0.37194  0.26319  0.72115  Biso   1.000  H
  H87      1.0000 0.90550  0.45090  0.82336  Biso   1.000  H
  C74      1.0000 0.83832  0.40641  0.72553  Biso   1.000  C
  O73      1.0000 0.84663  0.41418  0.88513  Biso   1.000  O
  C75      1.0000 0.49962  0.29140  0.73705  Biso   1.000  C
  H88      1.0000 0.87233  0.37518  0.73975  Biso   1.000  H
  O74      1.0000 0.84919  0.43499  0.65513  Biso   1.000  O
  C76      1.0000 0.76030  0.38532  0.70216  Biso   1.000  C
  C77      1.0000 0.77088  0.39220  0.86351  Biso   1.000  C
  C78      1.0000 0.52961  0.29702  0.65884  Biso   1.000  C
  H89      1.0000 0.48513  0.25370  0.74285  Biso   1.000  H
  C79      1.0000 0.55629  0.31098  0.82423  Biso   1.000  C
  H90      1.0000 0.72612  0.41630  0.68565  Biso   1.000  H
  O75      1.0000 0.74430  0.35072  0.62791  Biso   1.000  O
  C80      1.0000 0.74991  0.35760  0.77970  Biso   1.000  C
  H91      1.0000 0.73561  0.42249  0.85414  Biso   1.000  H
  C81      1.0000 0.77830  0.36598  0.94765  Biso   1.000  C
  C82      1.0000 0.60360  0.26620  0.68464  Biso   1.000  C
  H92      1.0000 0.53910  0.33602  0.65143  Biso   1.000  H
  O76      1.0000 0.47879  0.27780  0.57779  Biso   1.000  O
  H93      1.0000 0.56532  0.35039  0.81965  Biso   1.000  H
  C83      1.0000 0.53221  0.30101  0.90615  Biso   1.000  C
  O77      1.0000 0.62379  0.28200  0.84181  Biso   1.000  O
  H94      1.0000 0.78121  0.32499  0.79304  Biso   1.000  H
  O78      1.0000 0.67449  0.34099  0.76131  Biso   1.000  O
  H95      1.0000 0.72970  0.35340  0.94583  Biso   1.000  H
  H96      1.0000 0.79569  0.39228  0.99582  Biso   1.000  H
  O79      1.0000 0.82971  0.31929  0.96834  Biso   1.000  O
  C84      1.0000 0.65732  0.28798  0.77310  Biso   1.000  C
  H97      1.0000 0.59358  0.22781  0.69299  Biso   1.000  H
  O80      1.0000 0.63461  0.26950  0.61404  Biso   1.000  O
  H98      1.0000 0.57412  0.30830  0.96005  Biso   1.000  H
  H99      1.0000 0.49324  0.32641  0.90433  Biso   1.000  H
  O81      1.0000 0.50789  0.25102  0.91370  Biso   1.000  O
  O82      1.0000 0.58800  0.29299  0.98403  Biso   1.000  O
  H100     1.0000 0.70291  0.26600  0.79014  Biso   1.000  H
  O83      1.0000 0.25991  0.25199  0.96200  Biso   1.000  O
  C85      1.0000 0.21552  0.20799  0.94004  Biso   1.000  C
  C86      1.0000 0.15799  0.20502  0.84640  Biso   1.000  C
  O84      1.0000 0.19504  0.20701  0.01314  Biso   1.000  O
  H101     1.0000 0.25001  0.17811  0.94550  Biso   1.000  H
  H102     1.0000 0.24318  0.24129  0.94240  Biso   1.000  H
  O85      1.0000 0.11840  0.25480  0.84613  Biso   1.000  O
  C87      1.0000 0.19939  0.21100  0.78111  Biso   1.000  C
  H103     1.0000 0.12673  0.17192  0.83622  Biso   1.000  H
  C88      1.0000 0.06600  0.26620  0.75902  Biso   1.000  C
  C89      1.0000 0.14490  0.21772  0.69144  Biso   1.000  C
  H104     1.0000 0.23482  0.24129  0.79762  Biso   1.000  H
  O86      1.0000 0.23743  0.15771  0.77923  Biso   1.000  O
  O87      1.0000 0.01033  0.22211  0.73173  Biso   1.000  O
  H105     1.0000 0.04062  0.30040  0.76185  Biso   1.000  H
  C90      1.0000 0.10043  0.27088  0.68754  Biso   1.000  C
  H106     1.0000 0.11049  0.18670  0.67824  Biso   1.000  H
  O88      1.0000 0.18202  0.22069  0.61983  Biso   1.000  O
  C91      1.0000 0.31643  0.15551  0.81904  Biso   1.000  C
  C92      1.0000 0.93150  0.23620  0.71630  Biso   1.000  C
  H107     1.0000 0.13513  0.30162  0.70195  Biso   1.000  H
  O89      1.0000 0.04710  0.27988  0.60555  Biso   1.000  O
  H108     1.0000 0.15942  0.20990  0.54781  Biso   1.000  H
  H109     1.0000 0.33581  0.19240  0.83521  Biso   1.000  H
  C93      1.0000 0.34302  0.13381  0.74514  Biso   1.000  C
  O90      1.0000 0.33881  0.12351  0.89403  Biso   1.000  O
  C94      1.0000 0.91242  0.20872  0.79290  Biso   1.000  C
  C95      1.0000 0.88773  0.21511  0.62771  Biso   1.000  C
  H110     1.0000 0.92559  0.27569  0.71839  Biso   1.000  H
  H111     1.0000 0.39753  0.13451  0.76791  Biso   1.000  H
  O91      1.0000 0.31854  0.16418  0.66153  Biso   1.000  O
  C96      1.0000 0.31839  0.07291  0.72499  Biso   1.000  C
  C97      1.0000 0.31131  0.06990  0.87334  Biso   1.000  C
  C98      1.0000 0.94488  0.23868  0.88129  Biso   1.000  C
  H112     1.0000 0.92790  0.17049  0.79924  Biso   1.000  H
  O92      1.0000 0.83043  0.21340  0.77310  Biso   1.000  O
  C99      1.0000 0.80802  0.22179  0.61383  Biso   1.000  C
  H113     1.0000 0.89869  0.17640  0.62441  Biso   1.000  H
  O93      1.0000 0.90361  0.24410  0.55670  Biso   1.000  O
  H114     1.0000 0.26402  0.07222  0.69919  Biso   1.000  H
  O94      1.0000 0.34834  0.04999  0.65863  Biso   1.000  O
  C100     1.0000 0.33883  0.04421  0.80651  Biso   1.000  C
  H115     1.0000 0.25679  0.06961  0.85239  Biso   1.000  H
  C101     1.0000 0.34241  0.03798  0.95890  Biso   1.000  C
  O95      1.0000 0.97331  0.21788  0.96180  Biso   1.000  O
  H116     1.0000 0.92442  0.22281  0.92414  Biso   1.000  H
  H117     1.0000 0.99811  0.23201  0.90380  Biso   1.000  H
  O96      1.0000 0.93400  0.29299  0.88055  Biso   1.000  O
  C102     1.0000 0.78913  0.19252  0.68774  Biso   1.000  C
  H118     1.0000 0.79802  0.26071  0.61774  Biso   1.000  H
  O97      1.0000 0.75832  0.20151  0.52760  Biso   1.000  O
  O98      1.0000 0.30868  0.98889  0.78610  Biso   1.000  O
  H119     1.0000 0.39323  0.04209  0.83151  Biso   1.000  H
  O99      1.0000 0.41624  0.04299  0.00755  Biso   1.000  O
  O100     1.0000 0.32303  0.04901  0.03200  Biso   1.000  O
  H120     1.0000 0.31480  0.04881  0.99791  Biso   1.000  H
  H121     1.0000 0.33211  0.00020  0.94455  Biso   1.000  H
  O101     1.0000 0.02669  0.21788  0.03820  Biso   1.000  O
  O102     1.0000 0.80323  0.13512  0.68296  Biso   1.000  O
  H122     1.0000 0.73613  0.19761  0.67784  Biso   1.000  H
  C103     1.0000 0.35363  0.93922  0.80685  Biso   1.000  C
  C104     1.0000 0.05512  0.23868  0.11871  Biso   1.000  C
  H123     1.0000 0.07560  0.22281  0.07593  Biso   1.000  H
  H124     1.0000 0.00189  0.23201  0.09620  Biso   1.000  H
  C105     1.0000 0.74668  0.09441  0.68060  Biso   1.000  C
  H125     1.0000 0.40550  0.95090  0.82336  Biso   1.000  H
  C106     1.0000 0.33832  0.90641  0.72553  Biso   1.000  C
  O103     1.0000 0.34663  0.91418  0.88513  Biso   1.000  O
  C107     1.0000 0.08758  0.20872  0.20710  Biso   1.000  C
  O104     1.0000 0.06602  0.29299  0.11951  Biso   1.000  O
  C108     1.0000 0.73002  0.06701  0.59275  Biso   1.000  C
  H126     1.0000 0.70184  0.11342  0.68134  Biso   1.000  H
  C109     1.0000 0.77632  0.06371  0.76299  Biso   1.000  C
  H127     1.0000 0.37233  0.87518  0.73975  Biso   1.000  H
  O105     1.0000 0.34919  0.93499  0.65513  Biso   1.000  O
  C110     1.0000 0.26030  0.88532  0.70216  Biso   1.000  C
  C111     1.0000 0.27088  0.89220  0.86351  Biso   1.000  C
  O106     1.0000 0.16963  0.21340  0.22690  Biso   1.000  O
  C112     1.0000 0.06850  0.23620  0.28370  Biso   1.000  C
  H128     1.0000 0.07212  0.17049  0.20083  Biso   1.000  H
  C113     1.0000 0.67614  0.01922  0.59975  Biso   1.000  C
  H129     1.0000 0.77620  0.05089  0.59079  Biso   1.000  H
  O107     1.0000 0.70043  0.09831  0.51594  Biso   1.000  O
  H130     1.0000 0.82493  0.04881  0.76710  Biso   1.000  H
  C114     1.0000 0.78300  0.09200  0.85313  Biso   1.000  C
  O108     1.0000 0.72403  0.01771  0.75902  Biso   1.000  O
  H131     1.0000 0.22612  0.91630  0.68565  Biso   1.000  H
  O109     1.0000 0.24430  0.85072  0.62791  Biso   1.000  O
  C115     1.0000 0.24991  0.85760  0.77970  Biso   1.000  C
  H132     1.0000 0.23561  0.92249  0.85414  Biso   1.000  H
  C116     1.0000 0.27830  0.86598  0.94765  Biso   1.000  C
  C117     1.0000 0.21089  0.19252  0.31233  Biso   1.000  C
  C118     1.0000 0.11232  0.21511  0.37229  Biso   1.000  C
  H133     1.0000 0.07441  0.27569  0.28161  Biso   1.000  H
  O110     1.0000 0.98967  0.22211  0.26827  Biso   1.000  O
  C119     1.0000 0.70770  0.98502  0.68134  Biso   1.000  C
  O111     1.0000 0.66182  0.98612  0.51615  Biso   1.000  O
  H134     1.0000 0.62902  0.03489  0.60002  Biso   1.000  H
  H135     1.0000 0.78864  0.06420  0.89874  Biso   1.000  H
  H136     1.0000 0.82781  0.11391  0.87173  Biso   1.000  H
  O112     1.0000 0.72499  0.12400  0.85003  Biso   1.000  O
  O113     1.0000 0.81400  0.06200  0.92879  Biso   1.000  O
  H137     1.0000 0.28121  0.82499  0.79304  Biso   1.000  H
  O114     1.0000 0.17449  0.84099  0.76131  Biso   1.000  O
  H138     1.0000 0.22970  0.85340  0.94583  Biso   1.000  H
  H139     1.0000 0.29569  0.89228  0.99582  Biso   1.000  H
  O115     1.0000 0.32971  0.81929  0.96834  Biso   1.000  O
  O116     1.0000 0.19679  0.13512  0.31711  Biso   1.000  O
  H140     1.0000 0.26389  0.19761  0.32223  Biso   1.000  H
  C120     1.0000 0.19198  0.22179  0.38617  Biso   1.000  C
  H141     1.0000 0.10131  0.17640  0.37559  Biso   1.000  H
  O117     1.0000 0.09639  0.24410  0.44330  Biso   1.000  O
  C121     1.0000 0.93400  0.26620  0.24098  Biso   1.000  C
  O118     1.0000 0.77373  0.95538  0.67999  Biso   1.000  O
  H142     1.0000 0.67001  0.95811  0.68262  Biso   1.000  H
  C122     1.0000 0.15732  0.78798  0.77310  Biso   1.000  C
  C123     1.0000 0.25332  0.09441  0.31940  Biso   1.000  C
  H143     1.0000 0.20200  0.26071  0.38233  Biso   1.000  H
  O119     1.0000 0.24168  0.20151  0.47240  Biso   1.000  O
  H144     1.0000 0.95939  0.30040  0.23822  Biso   1.000  H
  C124     1.0000 0.89959  0.27088  0.31253  Biso   1.000  C
  O120     1.0000 0.88160  0.25480  0.15387  Biso   1.000  O
  C125     1.0000 0.77473  0.89851  0.68882  Biso   1.000  C
  C126     1.0000 0.10360  0.76620  0.68464  Biso   1.000  C
  O121     1.0000 0.12379  0.78200  0.84181  Biso   1.000  O
  H145     1.0000 0.20291  0.76600  0.79014  Biso   1.000  H
  C127     1.0000 0.27000  0.06701  0.40732  Biso   1.000  C
  H146     1.0000 0.29818  0.11342  0.31873  Biso   1.000  H
  C128     1.0000 0.22368  0.06371  0.23701  Biso   1.000  C
  H147     1.0000 0.86489  0.30162  0.29811  Biso   1.000  H
  O122     1.0000 0.95292  0.27988  0.39452  Biso   1.000  O
  C129     1.0000 0.85512  0.21772  0.30862  Biso   1.000  C
  C130     1.0000 0.84201  0.20502  0.15360  Biso   1.000  C
  C131     1.0000 0.79560  0.87710  0.61020  Biso   1.000  C
  H148     1.0000 0.72539  0.88520  0.68491  Biso   1.000  H
  C132     1.0000 0.83173  0.88361  0.77963  Biso   1.000  C
  C133     1.0000 0.02961  0.79702  0.65884  Biso   1.000  C
  H149     1.0000 0.09358  0.72781  0.69299  Biso   1.000  H
  O123     1.0000 0.13461  0.76950  0.61404  Biso   1.000  O
  C134     1.0000 0.05629  0.81098  0.82423  Biso   1.000  C
  C135     1.0000 0.32393  0.01922  0.40031  Biso   1.000  C
  H150     1.0000 0.22380  0.05089  0.40921  Biso   1.000  H
  O124     1.0000 0.29959  0.09831  0.48412  Biso   1.000  O
  H151     1.0000 0.17512  0.04881  0.23290  Biso   1.000  H
  C136     1.0000 0.21700  0.09200  0.14687  Biso   1.000  C
  O125     1.0000 0.27597  0.01771  0.24098  Biso   1.000  O
  H152     1.0000 0.88953  0.18670  0.32183  Biso   1.000  H
  O126     1.0000 0.81798  0.22069  0.38017  Biso   1.000  O
  C137     1.0000 0.80061  0.21100  0.21889  Biso   1.000  C
  H153     1.0000 0.87327  0.17192  0.16378  Biso   1.000  H
  C138     1.0000 0.78450  0.20799  0.06003  Biso   1.000  C
  C139     1.0000 0.81049  0.81530  0.62434  Biso   1.000  C
  H154     1.0000 0.84122  0.89521  0.60979  Biso   1.000  H
  O127     1.0000 0.73870  0.88691  0.52760  Biso   1.000  O
  H155     1.0000 0.87803  0.90380  0.78913  Biso   1.000  H
  O128     1.0000 0.84644  0.82560  0.78563  Biso   1.000  O
  C140     1.0000 0.80119  0.89501  0.85792  Biso   1.000  C
  C141     1.0000 0.99962  0.79140  0.73705  Biso   1.000  C
  O129     1.0000 0.97879  0.77780  0.57779  Biso   1.000  O
  H156     1.0000 0.03910  0.83602  0.65143  Biso   1.000  H
  H157     1.0000 0.06532  0.85039  0.81965  Biso   1.000  H
  C142     1.0000 0.03221  0.80101  0.90615  Biso   1.000  C
  H158     1.0000 0.37098  0.03489  0.39998  Biso   1.000  H
  C143     1.0000 0.29232  0.98502  0.31873  Biso   1.000  C
  O130     1.0000 0.33820  0.98612  0.48392  Biso   1.000  O
  H159     1.0000 0.21143  0.06420  0.10132  Biso   1.000  H
  H160     1.0000 0.17219  0.11391  0.12827  Biso   1.000  H
  O131     1.0000 0.27503  0.12400  0.15003  Biso   1.000  O
  O132     1.0000 0.18600  0.06200  0.07121  Biso   1.000  O
  H161     1.0000 0.84058  0.20990  0.45219  Biso   1.000  H
  H162     1.0000 0.76518  0.24129  0.20238  Biso   1.000  H
  O133     1.0000 0.76257  0.15771  0.22077  Biso   1.000  O
  O134     1.0000 0.80503  0.20701  0.98693  Biso   1.000  O
  H163     1.0000 0.74999  0.17811  0.05450  Biso   1.000  H
  H164     1.0000 0.75682  0.24129  0.05760  Biso   1.000  H
  O135     1.0000 0.74009  0.25199  0.03800  Biso   1.000  O
  C144     1.0000 0.86601  0.80300  0.71341  Biso   1.000  C
  H165     1.0000 0.76361  0.79881  0.62360  Biso   1.000  H
  O136     1.0000 0.82732  0.79230  0.55165  Biso   1.000  O
  H166     1.0000 0.83973  0.88719  0.91491  Biso   1.000  H
  H167     1.0000 0.78952  0.93381  0.85771  Biso   1.000  H
  O137     1.0000 0.73794  0.86501  0.85104  Biso   1.000  O
  O138     1.0000 0.85400  0.90099  0.94105  Biso   1.000  O
  O139     1.0000 0.93650  0.82739  0.71603  Biso   1.000  O
  H168     1.0000 0.98513  0.75370  0.74285  Biso   1.000  H
  H169     1.0000 0.99324  0.82641  0.90433  Biso   1.000  H
  H170     1.0000 0.07412  0.80830  0.96005  Biso   1.000  H
  O140     1.0000 0.00789  0.75102  0.91370  Biso   1.000  O
  O141     1.0000 0.08800  0.79299  0.98403  Biso   1.000  O
  O142     1.0000 0.22633  0.95538  0.32001  Biso   1.000  O
  H171     1.0000 0.32999  0.95811  0.31738  Biso   1.000  H
  C145     1.0000 0.68359  0.15551  0.18102  Biso   1.000  C
  H172     1.0000 0.87194  0.76319  0.72115  Biso   1.000  H
  C146     1.0000 0.22527  0.89851  0.31118  Biso   1.000  C
  H173     1.0000 0.66419  0.19240  0.16479  Biso   1.000  H
  C147     1.0000 0.65700  0.13381  0.25493  Biso   1.000  C
  O143     1.0000 0.66119  0.12351  0.10597  Biso   1.000  O
  C148     1.0000 0.20440  0.87710  0.38980  Biso   1.000  C
  H174     1.0000 0.27461  0.88520  0.31509  Biso   1.000  H
  C149     1.0000 0.16827  0.88361  0.22037  Biso   1.000  C
  H175     1.0000 0.60247  0.13451  0.23209  Biso   1.000  H
  O144     1.0000 0.68151  0.16418  0.33847  Biso   1.000  O
  C150     1.0000 0.68161  0.07291  0.27501  Biso   1.000  C
  C151     1.0000 0.68871  0.06990  0.12672  Biso   1.000  C
  C152     1.0000 0.18953  0.81530  0.37572  Biso   1.000  C
  H176     1.0000 0.15878  0.89521  0.39021  Biso   1.000  H
  O145     1.0000 0.26130  0.88691  0.47240  Biso   1.000  O
  H177     1.0000 0.12197  0.90380  0.21087  Biso   1.000  H
  O146     1.0000 0.15362  0.82560  0.21437  Biso   1.000  O
  C153     1.0000 0.19881  0.89501  0.14208  Biso   1.000  C
  H178     1.0000 0.73603  0.07222  0.30081  Biso   1.000  H
  O147     1.0000 0.65173  0.04999  0.34143  Biso   1.000  O
  C154     1.0000 0.66117  0.04421  0.19349  Biso   1.000  C
  H179     1.0000 0.74321  0.06961  0.14761  Biso   1.000  H
  C155     1.0000 0.65759  0.03798  0.04110  Biso   1.000  C
  C156     1.0000 0.13399  0.80300  0.28659  Biso   1.000  C
  H180     1.0000 0.23639  0.79881  0.37640  Biso   1.000  H
  O148     1.0000 0.17270  0.79230  0.44842  Biso   1.000  O
  H181     1.0000 0.16032  0.88719  0.08509  Biso   1.000  H
  H182     1.0000 0.21048  0.93381  0.14229  Biso   1.000  H
  O149     1.0000 0.26208  0.86501  0.14902  Biso   1.000  O
  O150     1.0000 0.14602  0.90099  0.05902  Biso   1.000  O
  O151     1.0000 0.69132  0.98889  0.21390  Biso   1.000  O
  H183     1.0000 0.60677  0.04209  0.16849  Biso   1.000  H
  O152     1.0000 0.58378  0.04299  0.99252  Biso   1.000  O
  O153     1.0000 0.67697  0.04901  0.96800  Biso   1.000  O
  H184     1.0000 0.68520  0.04881  0.00209  Biso   1.000  H
  H185     1.0000 0.66790  0.00020  0.05551  Biso   1.000  H
  O154     1.0000 0.06352  0.82739  0.28403  Biso   1.000  O
  H186     1.0000 0.12813  0.76319  0.27891  Biso   1.000  H
  C157     1.0000 0.64639  0.93922  0.19322  Biso   1.000  C
  C158     1.0000 0.00039  0.79140  0.26301  Biso   1.000  C
  H187     1.0000 0.59452  0.95090  0.17671  Biso   1.000  H
  C159     1.0000 0.66168  0.90641  0.27447  Biso   1.000  C
  O155     1.0000 0.65337  0.91418  0.11487  Biso   1.000  O
  C160     1.0000 0.97041  0.79702  0.34123  Biso   1.000  C
  C161     1.0000 0.94371  0.81098  0.17577  Biso   1.000  C
  H188     1.0000 0.01489  0.75370  0.25722  Biso   1.000  H
  H189     1.0000 0.62769  0.87518  0.26032  Biso   1.000  H
  O156     1.0000 0.65081  0.93499  0.34487  Biso   1.000  O
  C162     1.0000 0.73972  0.88532  0.29791  Biso   1.000  C
  C163     1.0000 0.72912  0.89220  0.13649  Biso   1.000  C
  C164     1.0000 0.89642  0.76620  0.31543  Biso   1.000  C
  H190     1.0000 0.96090  0.83602  0.34857  Biso   1.000  H
  O157     1.0000 0.02121  0.77780  0.42221  Biso   1.000  O
  H191     1.0000 0.93470  0.85039  0.18042  Biso   1.000  H
  C165     1.0000 0.96781  0.80101  0.09391  Biso   1.000  C
  O158     1.0000 0.87621  0.78200  0.15819  Biso   1.000  O
  H192     1.0000 0.77390  0.91630  0.31442  Biso   1.000  H
  O159     1.0000 0.75570  0.85072  0.37209  Biso   1.000  O
  C166     1.0000 0.75009  0.85760  0.22030  Biso   1.000  C
  H193     1.0000 0.76441  0.92249  0.14592  Biso   1.000  H
  C167     1.0000 0.72172  0.86598  0.05241  Biso   1.000  C
  C168     1.0000 0.84268  0.78798  0.22690  Biso   1.000  C
  H194     1.0000 0.90642  0.72781  0.30701  Biso   1.000  H
  O160     1.0000 0.86541  0.76950  0.38603  Biso   1.000  O
  H195     1.0000 0.92589  0.80830  0.04002  Biso   1.000  H
  O161     1.0000 0.99211  0.75102  0.08630  Biso   1.000  O
  O162     1.0000 0.91200  0.79299  0.01597  Biso   1.000  O
  H196     1.0000 0.00683  0.82641  0.09573  Biso   1.000  H
  O163     1.0000 0.82551  0.84099  0.23869  Biso   1.000  O
  H197     1.0000 0.71880  0.82499  0.20703  Biso   1.000  H
  H198     1.0000 0.77032  0.85340  0.05423  Biso   1.000  H
  H199     1.0000 0.70431  0.89228  0.00418  Biso   1.000  H
  O164     1.0000 0.67031  0.81929  0.03173  Biso   1.000  O
  H200     1.0000 0.79711  0.76600  0.20993  Biso   1.000  H
