data_image0
_cell_length_a       15.274
_cell_length_b       10.178
_cell_length_c       20.961
_cell_angle_alpha    90
_cell_angle_beta     110.25
_cell_angle_gamma    90

_symmetry_space_group_name_H-M    "P 1"
_symmetry_int_tables_number       1

loop_
  _symmetry_equiv_pos_as_xyz
  'x, y, z'

loop_
  _atom_site_label
  _atom_site_occupancy
  _atom_site_fract_x
  _atom_site_fract_y
  _atom_site_fract_z
  _atom_site_thermal_displace_type
  _atom_site_B_iso_or_equiv
  _atom_site_type_symbol
  O1       1.0000 0.53343  0.63726  0.41662  Biso   1.000  O
  C1       1.0000 0.49286  0.66447  0.34568  Biso   1.000  C
  H1       1.0000 0.52520  0.55767  0.42369  Biso   1.000  H
  C2       1.0000 0.54807  0.60886  0.30368  Biso   1.000  C
  C3       1.0000 0.48439  0.81313  0.33668  Biso   1.000  C
  H2       1.0000 0.42872  0.62576  0.32850  Biso   1.000  H
  O2       1.0000 0.54422  0.47062  0.30729  Biso   1.000  O
  H3       1.0000 0.61439  0.63912  0.32270  Biso   1.000  H
  C4       1.0000 0.50429  0.65219  0.22929  Biso   1.000  C
  O3       1.0000 0.57682  0.86667  0.36531  Biso   1.000  O
  O4       1.0000 0.44361  0.84643  0.26681  Biso   1.000  O
  H4       1.0000 0.44472  0.84840  0.36190  Biso   1.000  H
  H5       1.0000 0.59620  0.44174  0.33251  Biso   1.000  H
  O5       1.0000 0.56311  0.60542  0.19420  Biso   1.000  O
  H6       1.0000 0.44072  0.61260  0.20889  Biso   1.000  H
  C5       1.0000 0.49676  0.80212  0.22598  Biso   1.000  C
  C6       1.0000 0.59137  0.97426  0.41138  Biso   1.000  C
  C7       1.0000 0.52211  0.52977  0.13491  Biso   1.000  C
  H7       1.0000 0.56080  0.84142  0.24378  Biso   1.000  H
  C8       1.0000 0.44601  0.85105  0.15331  Biso   1.000  C
  C9       1.0000 0.67198  0.93633  0.47550  Biso   1.000  C
  H8       1.0000 0.53389  0.98831  0.42298  Biso   1.000  H
  C10      1.0000 0.61011  0.09658  0.37599  Biso   1.000  C
  O6       1.0000 0.52352  0.59894  0.07612  Biso   1.000  O
  H9       1.0000 0.45571  0.51120  0.12992  Biso   1.000  H
  C11      1.0000 0.57385  0.40008  0.14198  Biso   1.000  C
  O7       1.0000 0.35723  0.80153  0.12382  Biso   1.000  O
  H10      1.0000 0.44241  0.94822  0.15387  Biso   1.000  H
  H11      1.0000 0.48328  0.82688  0.12469  Biso   1.000  H
  O8       1.0000 0.64598  0.82993  0.50830  Biso   1.000  O
  H12      1.0000 0.72470  0.90607  0.46122  Biso   1.000  H
  C12      1.0000 0.70538  0.05581  0.52061  Biso   1.000  C
  O9       1.0000 0.64471  0.20397  0.42430  Biso   1.000  O
  H13      1.0000 0.65728  0.07546  0.35428  Biso   1.000  H
  C13      1.0000 0.52268  0.15199  0.32260  Biso   1.000  C
  C14      1.0000 0.61913  0.62802  0.07851  Biso   1.000  C
  O10      1.0000 0.57018  0.33189  0.20081  Biso   1.000  O
  H14      1.0000 0.54196  0.34535  0.10089  Biso   1.000  H
  C15      1.0000 0.67368  0.42592  0.14538  Biso   1.000  C
  H15      1.0000 0.31829  0.86323  0.11599  Biso   1.000  H
  H16      1.0000 0.59622  0.84820  0.51491  Biso   1.000  H
  O11      1.0000 0.78476  0.02456  0.57980  Biso   1.000  O
  C16      1.0000 0.72511  0.17017  0.48069  Biso   1.000  C
  H17      1.0000 0.65365  0.08332  0.53658  Biso   1.000  H
  O12      1.0000 0.45458  0.18805  0.35331  Biso   1.000  O
  H18      1.0000 0.53931  0.23030  0.30109  Biso   1.000  H
  H19      1.0000 0.49561  0.08548  0.28670  Biso   1.000  H
  C17      1.0000 0.67041  0.49774  0.08212  Biso   1.000  C
  H20      1.0000 0.65181  0.67960  0.12072  Biso   1.000  H
  C18      1.0000 0.61179  0.71262  0.01648  Biso   1.000  C
  H21      1.0000 0.57139  0.38662  0.23122  Biso   1.000  H
  O13      1.0000 0.72228  0.30212  0.15220  Biso   1.000  O
  H22      1.0000 0.70589  0.48192  0.18591  Biso   1.000  H
  H23      1.0000 0.80956  0.09442  0.59907  Biso   1.000  H
  O14      1.0000 0.80139  0.13343  0.46030  Biso   1.000  O
  H24      1.0000 0.74401  0.24808  0.51151  Biso   1.000  H
  H25      1.0000 0.48049  0.23325  0.38830  Biso   1.000  H
  O15      1.0000 0.76428  0.52289  0.08528  Biso   1.000  O
  H26      1.0000 0.63730  0.44321  0.04109  Biso   1.000  H
  H27      1.0000 0.57102  0.78896  0.01500  Biso   1.000  H
  H28      1.0000 0.67442  0.74641  0.02110  Biso   1.000  H
  O16      1.0000 0.57529  0.64158  0.95479  Biso   1.000  O
  H29      1.0000 0.72714  0.28169  0.11472  Biso   1.000  H
  C19      1.0000 0.87369  0.22883  0.46930  Biso   1.000  C
  C20      1.0000 0.79130  0.48654  0.02898  Biso   1.000  C
  H30      1.0000 0.54169  0.57978  0.95973  Biso   1.000  H
  C21      1.0000 0.96432  0.17076  0.52061  Biso   1.000  C
  H31      1.0000 0.85718  0.31185  0.48801  Biso   1.000  H
  C22      1.0000 0.88483  0.25693  0.40080  Biso   1.000  C
  O17      1.0000 0.82080  0.60100  0.00219  Biso   1.000  O
  C23      1.0000 0.86940  0.38583  0.05212  Biso   1.000  C
  H32      1.0000 0.73648  0.44675  0.99283  Biso   1.000  H
  O18      1.0000 0.95331  0.15868  0.58509  Biso   1.000  O
  H33      1.0000 0.97496  0.08165  0.50469  Biso   1.000  H
  C24      1.0000 0.04730  0.25801  0.52549  Biso   1.000  C
  O19      1.0000 0.96549  0.34457  0.41281  Biso   1.000  O
  H34      1.0000 0.89529  0.17292  0.37970  Biso   1.000  H
  C25      1.0000 0.80388  0.32953  0.35209  Biso   1.000  C
  C26      1.0000 0.89769  0.66781  0.05227  Biso   1.000  C
  O20      1.0000 0.83788  0.27127  0.07729  Biso   1.000  O
  H35      1.0000 0.88718  0.36019  0.01210  Biso   1.000  H
  C27      1.0000 0.95309  0.44547  0.10552  Biso   1.000  C
  H36      1.0000 0.90170  0.12311  0.58010  Biso   1.000  H
  O21      1.0000 0.13380  0.20033  0.56770  Biso   1.000  O
  C28      1.0000 0.05211  0.28964  0.45567  Biso   1.000  C
  H37      1.0000 0.03931  0.34280  0.54700  Biso   1.000  H
  O22      1.0000 0.81167  0.35390  0.28980  Biso   1.000  O
  H38      1.0000 0.74640  0.27776  0.34507  Biso   1.000  H
  H39      1.0000 0.79691  0.41433  0.37299  Biso   1.000  H
  C29      1.0000 0.98132  0.57398  0.08141  Biso   1.000  C
  H40      1.0000 0.87737  0.70073  0.09001  Biso   1.000  H
  C30      1.0000 0.92002  0.78345  0.01480  Biso   1.000  C
  H41      1.0000 0.81579  0.29318  0.10729  Biso   1.000  H
  H42      1.0000 0.93650  0.46375  0.14681  Biso   1.000  H
  O23      1.0000 0.02880  0.35370  0.12362  Biso   1.000  O
  H43      1.0000 0.12787  0.17155  0.60360  Biso   1.000  H
  O24      1.0000 0.07111  0.16909  0.42801  Biso   1.000  O
  H44      1.0000 0.10380  0.35351  0.46071  Biso   1.000  H
  H45      1.0000 0.86815  0.36412  0.29458  Biso   1.000  H
  O25      1.0000 0.04840  0.63549  0.13897  Biso   1.000  O
  H46      1.0000 0.00988  0.55590  0.04602  Biso   1.000  H
  H47      1.0000 0.97513  0.83091  0.04551  Biso   1.000  H
  O26      1.0000 0.84259  0.87168  0.99141  Biso   1.000  O
  H48      1.0000 0.93548  0.75103  0.97554  Biso   1.000  H
  H49      1.0000 0.07369  0.38397  0.15611  Biso   1.000  H
  C31      1.0000 0.14496  0.16968  0.40030  Biso   1.000  C
  C32      1.0000 0.14090  0.65386  0.13882  Biso   1.000  C
  H50      1.0000 0.84457  0.91246  0.95713  Biso   1.000  H
  C33      1.0000 0.20396  0.04863  0.42720  Biso   1.000  C
  H51      1.0000 0.18371  0.25103  0.41448  Biso   1.000  H
  C34      1.0000 0.10399  0.15936  0.32051  Biso   1.000  C
  O27      1.0000 0.15761  0.78424  0.12519  Biso   1.000  O
  H52      1.0000 0.15052  0.59579  0.10338  Biso   1.000  H
  C35      1.0000 0.20748  0.60906  0.21022  Biso   1.000  C
  H53      1.0000 0.16188  0.97043  0.41428  Biso   1.000  H
  O28      1.0000 0.24519  0.05148  0.50118  Biso   1.000  O
  C36      1.0000 0.27956  0.03144  0.39587  Biso   1.000  C
  O29      1.0000 0.18279  0.15504  0.29758  Biso   1.000  O
  H54      1.0000 0.06991  0.07398  0.30831  Biso   1.000  H
  C37      1.0000 0.03867  0.26705  0.28431  Biso   1.000  C
  C38      1.0000 0.14280  0.87945  0.17162  Biso   1.000  C
  O30      1.0000 0.18792  0.47642  0.22278  Biso   1.000  O
  H55      1.0000 0.27328  0.61456  0.21118  Biso   1.000  H
  C39      1.0000 0.19539  0.70515  0.26402  Biso   1.000  C
  H56      1.0000 0.30347  0.05826  0.51278  Biso   1.000  H
  O31      1.0000 0.32626  0.90814  0.41438  Biso   1.000  O
  C40      1.0000 0.23869  0.04294  0.31838  Biso   1.000  C
  H57      1.0000 0.32657  0.10297  0.41352  Biso   1.000  H
  H58      1.0000 0.98160  0.26037  0.29621  Biso   1.000  H
  O32      1.0000 0.07306  0.39625  0.29798  Biso   1.000  O
  H59      1.0000 0.02032  0.25162  0.23478  Biso   1.000  H
  C41      1.0000 0.20666  0.84545  0.24418  Biso   1.000  C
  H60      1.0000 0.07620  0.87512  0.16898  Biso   1.000  H
  C42      1.0000 0.16178  0.01277  0.14818  Biso   1.000  C
  H61      1.0000 0.23790  0.43319  0.23620  Biso   1.000  H
  O33      1.0000 0.26313  0.67666  0.32972  Biso   1.000  O
  H62      1.0000 0.13137  0.69395  0.26610  Biso   1.000  H
  H63      1.0000 0.37031  0.91580  0.45171  Biso   1.000  H
  O34      1.0000 0.18309  0.92690  0.29310  Biso   1.000  O
  H64      1.0000 0.29072  0.04637  0.29971  Biso   1.000  H
  H65      1.0000 0.09711  0.41875  0.26910  Biso   1.000  H
  H66      1.0000 0.27317  0.86127  0.24871  Biso   1.000  H
  O35      1.0000 0.25956  0.01395  0.15459  Biso   1.000  O
  H67      1.0000 0.12161  0.02800  0.10028  Biso   1.000  H
  H68      1.0000 0.14912  0.08253  0.17681  Biso   1.000  H
  H69      1.0000 0.31409  0.65661  0.32550  Biso   1.000  H
  H70      1.0000 0.26703  0.06426  0.12509  Biso   1.000  H
  C43      1.0000 0.40855  0.47426  0.58860  Biso   1.000  C
  C44      1.0000 0.32795  0.43633  0.52447  Biso   1.000  C
  C45      1.0000 0.38988  0.59658  0.62399  Biso   1.000  C
  O36      1.0000 0.42319  0.36667  0.63472  Biso   1.000  O
  H71      1.0000 0.46609  0.48831  0.57700  Biso   1.000  H
  C46      1.0000 0.29463  0.55581  0.47942  Biso   1.000  C
  O37      1.0000 0.35401  0.32993  0.49168  Biso   1.000  O
  H72      1.0000 0.27531  0.40607  0.53881  Biso   1.000  H
  O38      1.0000 0.35528  0.70397  0.57568  Biso   1.000  O
  H73      1.0000 0.34271  0.57546  0.64570  Biso   1.000  H
  C47      1.0000 0.47731  0.65199  0.67738  Biso   1.000  C
  C48      1.0000 0.51559  0.31313  0.66330  Biso   1.000  C
  O39      1.0000 0.21516  0.52456  0.42018  Biso   1.000  O
  C49      1.0000 0.27487  0.67017  0.51929  Biso   1.000  C
  H74      1.0000 0.34627  0.58332  0.46340  Biso   1.000  H
  H75      1.0000 0.40379  0.34820  0.48512  Biso   1.000  H
  O40      1.0000 0.54537  0.68805  0.64672  Biso   1.000  O
  H76      1.0000 0.46068  0.73030  0.69889  Biso   1.000  H
  H77      1.0000 0.50438  0.58548  0.71328  Biso   1.000  H
  O41      1.0000 0.55640  0.34643  0.73322  Biso   1.000  O
  H78      1.0000 0.55527  0.34840  0.63807  Biso   1.000  H
  C50      1.0000 0.50706  0.16447  0.65430  Biso   1.000  C
  H79      1.0000 0.19043  0.59442  0.40091  Biso   1.000  H
  O42      1.0000 0.19860  0.63343  0.53968  Biso   1.000  O
  H80      1.0000 0.25600  0.74808  0.48852  Biso   1.000  H
  H81      1.0000 0.51949  0.73325  0.61168  Biso   1.000  H
  C51      1.0000 0.50316  0.30212  0.77400  Biso   1.000  C
  O43      1.0000 0.46658  0.13726  0.58341  Biso   1.000  O
  H82      1.0000 0.57127  0.12576  0.67148  Biso   1.000  H
  C52      1.0000 0.45185  0.10886  0.69630  Biso   1.000  C
  C53      1.0000 0.12630  0.72883  0.53068  Biso   1.000  C
  C54      1.0000 0.49570  0.15219  0.77069  Biso   1.000  C
  H83      1.0000 0.43919  0.34142  0.75620  Biso   1.000  H
  C55      1.0000 0.55401  0.35105  0.84671  Biso   1.000  C
  H84      1.0000 0.47479  0.05767  0.57629  Biso   1.000  H
  H85      1.0000 0.38560  0.13912  0.67728  Biso   1.000  H
  O44      1.0000 0.45577  0.97062  0.69269  Biso   1.000  O
  C56      1.0000 0.03569  0.67076  0.47942  Biso   1.000  C
  H86      1.0000 0.14277  0.81185  0.51202  Biso   1.000  H
  C57      1.0000 0.11516  0.75693  0.59917  Biso   1.000  C
  O45      1.0000 0.43688  0.10542  0.80578  Biso   1.000  O
  H87      1.0000 0.55927  0.11260  0.79108  Biso   1.000  H
  O46      1.0000 0.64278  0.30153  0.87621  Biso   1.000  O
  H88      1.0000 0.55758  0.44822  0.84610  Biso   1.000  H
  H89      1.0000 0.51671  0.32688  0.87529  Biso   1.000  H
  H90      1.0000 0.40381  0.94174  0.66752  Biso   1.000  H
  O47      1.0000 0.04668  0.65868  0.41489  Biso   1.000  O
  H91      1.0000 0.02496  0.58165  0.49529  Biso   1.000  H
  C58      1.0000 0.95269  0.75801  0.47449  Biso   1.000  C
  O48      1.0000 0.03450  0.84457  0.58717  Biso   1.000  O
  H92      1.0000 0.10469  0.67292  0.62028  Biso   1.000  H
  C59      1.0000 0.19611  0.82953  0.64789  Biso   1.000  C
  C60      1.0000 0.47787  0.02977  0.86507  Biso   1.000  C
  H93      1.0000 0.68170  0.36323  0.88399  Biso   1.000  H
  H94      1.0000 0.09828  0.62311  0.41987  Biso   1.000  H
  O49      1.0000 0.86619  0.70033  0.43228  Biso   1.000  O
  C61      1.0000 0.94788  0.78964  0.54431  Biso   1.000  C
  H95      1.0000 0.96067  0.84280  0.45298  Biso   1.000  H
  O50      1.0000 0.18825  0.85390  0.71018  Biso   1.000  O
  H96      1.0000 0.25359  0.77776  0.65491  Biso   1.000  H
  H97      1.0000 0.20308  0.91433  0.62699  Biso   1.000  H
  O51      1.0000 0.47649  0.09894  0.92391  Biso   1.000  O
  H98      1.0000 0.54430  0.01120  0.87011  Biso   1.000  H
  C62      1.0000 0.42607  0.90008  0.85800  Biso   1.000  C
  H99      1.0000 0.87205  0.67155  0.39638  Biso   1.000  H
  O52      1.0000 0.92890  0.66909  0.57202  Biso   1.000  O
  H100     1.0000 0.89619  0.85351  0.53927  Biso   1.000  H
  H101     1.0000 0.13177  0.86412  0.70540  Biso   1.000  H
  C63      1.0000 0.38088  0.12802  0.92152  Biso   1.000  C
  O53      1.0000 0.42977  0.83189  0.79922  Biso   1.000  O
  H102     1.0000 0.45796  0.84535  0.89909  Biso   1.000  H
  C64      1.0000 0.32631  0.92592  0.85460  Biso   1.000  C
  C65      1.0000 0.85496  0.66968  0.59968  Biso   1.000  C
  H103     1.0000 0.34820  0.17960  0.87931  Biso   1.000  H
  C66      1.0000 0.38819  0.21262  0.98350  Biso   1.000  C
  C67      1.0000 0.32960  0.99774  0.91791  Biso   1.000  C
  H104     1.0000 0.42862  0.88662  0.76881  Biso   1.000  H
  O54      1.0000 0.27770  0.80212  0.84778  Biso   1.000  O
  H105     1.0000 0.29412  0.98192  0.81412  Biso   1.000  H
  C68      1.0000 0.79596  0.54863  0.57278  Biso   1.000  C
  H106     1.0000 0.81627  0.75103  0.58549  Biso   1.000  H
  C69      1.0000 0.89602  0.65936  0.67952  Biso   1.000  C
  H107     1.0000 0.42896  0.28896  0.98498  Biso   1.000  H
  H108     1.0000 0.32557  0.24641  0.97888  Biso   1.000  H
  O55      1.0000 0.42469  0.14158  0.04518  Biso   1.000  O
  O56      1.0000 0.23570  0.02289  0.91470  Biso   1.000  O
  H109     1.0000 0.36269  0.94321  0.95889  Biso   1.000  H
  H110     1.0000 0.27287  0.78169  0.88531  Biso   1.000  H
  O57      1.0000 0.75479  0.55148  0.49879  Biso   1.000  O
  C70      1.0000 0.72036  0.53144  0.60411  Biso   1.000  C
  H111     1.0000 0.83810  0.47043  0.58570  Biso   1.000  H
  O58      1.0000 0.81720  0.65504  0.70240  Biso   1.000  O
  H112     1.0000 0.93008  0.57398  0.69167  Biso   1.000  H
  C71      1.0000 0.96125  0.76705  0.71567  Biso   1.000  C
  H113     1.0000 0.45832  0.07978  0.04030  Biso   1.000  H
  C72      1.0000 0.20869  0.98654  0.97099  Biso   1.000  C
  H114     1.0000 0.69652  0.55826  0.48720  Biso   1.000  H
  O59      1.0000 0.67366  0.40814  0.58560  Biso   1.000  O
  C73      1.0000 0.76129  0.54294  0.68160  Biso   1.000  C
  H115     1.0000 0.67337  0.60297  0.58651  Biso   1.000  H
  H116     1.0000 0.01839  0.76037  0.70377  Biso   1.000  H
  O60      1.0000 0.92686  0.89625  0.70199  Biso   1.000  O
  H117     1.0000 0.97967  0.75162  0.76520  Biso   1.000  H
  O61      1.0000 0.17919  0.10100  0.99779  Biso   1.000  O
  C74      1.0000 0.13055  0.88583  0.94791  Biso   1.000  C
  H118     1.0000 0.26347  0.94675  0.00720  Biso   1.000  H
  H119     1.0000 0.62968  0.41580  0.54827  Biso   1.000  H
  O62      1.0000 0.81690  0.42690  0.70688  Biso   1.000  O
  H120     1.0000 0.70929  0.54637  0.70032  Biso   1.000  H
  H121     1.0000 0.90287  0.91875  0.73088  Biso   1.000  H
  C75      1.0000 0.10230  0.16781  0.94770  Biso   1.000  C
  O63      1.0000 0.16204  0.77127  0.92269  Biso   1.000  O
  H122     1.0000 0.11274  0.86019  0.98788  Biso   1.000  H
  C76      1.0000 0.04685  0.94547  0.89451  Biso   1.000  C
  C77      1.0000 0.79326  0.34545  0.75579  Biso   1.000  C
  C78      1.0000 0.01869  0.07398  0.91862  Biso   1.000  C
  H123     1.0000 0.12255  0.20073  0.90997  Biso   1.000  H
  C79      1.0000 0.07997  0.28345  0.98518  Biso   1.000  C
  H124     1.0000 0.18419  0.79318  0.89268  Biso   1.000  H
  O64      1.0000 0.97121  0.85370  0.87641  Biso   1.000  O
  H125     1.0000 0.06349  0.96375  0.85317  Biso   1.000  H
  C80      1.0000 0.80462  0.20515  0.73601  Biso   1.000  C
  H126     1.0000 0.72678  0.36127  0.75132  Biso   1.000  H
  C81      1.0000 0.85721  0.37945  0.82841  Biso   1.000  C
  O65      1.0000 0.95159  0.13549  0.86100  Biso   1.000  O
  H127     1.0000 0.99007  0.05590  0.95401  Biso   1.000  H
  H128     1.0000 0.02488  0.33091  0.95452  Biso   1.000  H
  O66      1.0000 0.15740  0.37168  0.00857  Biso   1.000  O
  H129     1.0000 0.06446  0.25103  0.02449  Biso   1.000  H
  H130     1.0000 0.92632  0.88397  0.84392  Biso   1.000  H
  O67      1.0000 0.73688  0.17666  0.67031  Biso   1.000  O
  C82      1.0000 0.79246  0.10906  0.78981  Biso   1.000  C
  H131     1.0000 0.86855  0.19395  0.73388  Biso   1.000  H
  O68      1.0000 0.84238  0.28424  0.87478  Biso   1.000  O
  H132     1.0000 0.92378  0.37512  0.83100  Biso   1.000  H
  C83      1.0000 0.83821  0.51277  0.85180  Biso   1.000  C
  C84      1.0000 0.85911  0.15386  0.86121  Biso   1.000  C
  H133     1.0000 0.15537  0.41246  0.04290  Biso   1.000  H
  H134     1.0000 0.68589  0.15661  0.67448  Biso   1.000  H
  O69      1.0000 0.81207  0.97642  0.77720  Biso   1.000  O
  H135     1.0000 0.72670  0.11456  0.78880  Biso   1.000  H
  O70      1.0000 0.74036  0.51395  0.84539  Biso   1.000  O
  H136     1.0000 0.87837  0.52800  0.89970  Biso   1.000  H
  H137     1.0000 0.85086  0.58253  0.82317  Biso   1.000  H
  H138     1.0000 0.84947  0.09579  0.89660  Biso   1.000  H
  H139     1.0000 0.76209  0.93319  0.76378  Biso   1.000  H
  H140     1.0000 0.73296  0.56426  0.87489  Biso   1.000  H
  Ne1      1.0000 0.85063  0.85164  0.27171  Biso   1.000  Ne
  He1      1.0000 0.00000  0.00000  0.00000  Biso   1.000  He
  He2      1.0000 0.82185  0.93897  0.22709  Biso   1.000  He
  Ar1      1.0000 0.95448  0.57634  0.41419  Biso   1.000  Ar
  Ne2      1.0000 0.14934  0.35164  0.72829  Biso   1.000  Ne
  He3      1.0000 0.18341  0.45640  0.78147  Biso   1.000  He
  He4      1.0000 0.15099  0.34878  0.72861  Biso   1.000  He
  Ar2      1.0000 0.15184  0.34866  0.72826  Biso   1.000  Ar
