data_image0
_cell_length_a       12.966
_cell_length_b       19.274
_cell_length_c       28.12
_cell_angle_alpha    90
_cell_angle_beta     90
_cell_angle_gamma    90

_symmetry_space_group_name_H-M    "P 1"
_symmetry_int_tables_number       1

loop_
  _symmetry_equiv_pos_as_xyz
  'x, y, z'

loop_
  _atom_site_label
  _atom_site_occupancy
  _atom_site_fract_x
  _atom_site_fract_y
  _atom_site_fract_z
  _atom_site_thermal_displace_type
  _atom_site_B_iso_or_equiv
  _atom_site_type_symbol
  O1       1.0000 0.40838  0.53429  0.50349  Biso   1.000  O
  C1       1.0000 0.33102  0.57980  0.52269  Biso   1.000  C
  H1       1.0000 0.46267  0.53782  0.51959  Biso   1.000  H
  C2       1.0000 0.23068  0.57212  0.49570  Biso   1.000  C
  C3       1.0000 0.31521  0.56600  0.57671  Biso   1.000  C
  H2       1.0000 0.35562  0.62862  0.51881  Biso   1.000  H
  O2       1.0000 0.25312  0.59650  0.44932  Biso   1.000  O
  H3       1.0000 0.21094  0.52200  0.49431  Biso   1.000  H
  C4       1.0000 0.14492  0.61352  0.51942  Biso   1.000  C
  O3       1.0000 0.40722  0.58628  0.60363  Biso   1.000  O
  C5       1.0000 0.22150  0.60729  0.59619  Biso   1.000  C
  H4       1.0000 0.30248  0.51531  0.58161  Biso   1.000  H
  C6       1.0000 0.20947  0.56070  0.41014  Biso   1.000  C
  O4       1.0000 0.13258  0.59240  0.56807  Biso   1.000  O
  H5       1.0000 0.16389  0.66369  0.51881  Biso   1.000  H
  C7       1.0000 0.03856  0.60408  0.49310  Biso   1.000  C
  H6       1.0000 0.39149  0.61710  0.62351  Biso   1.000  H
  O5       1.0000 0.24757  0.67889  0.59470  Biso   1.000  O
  H7       1.0000 0.20824  0.59329  0.62991  Biso   1.000  H
  C8       1.0000 0.29847  0.53590  0.37728  Biso   1.000  C
  O6       1.0000 0.14222  0.60621  0.38450  Biso   1.000  O
  H8       1.0000 0.16967  0.51972  0.42180  Biso   1.000  H
  H9       1.0000 0.04512  0.62120  0.45999  Biso   1.000  H
  H10      1.0000 0.02113  0.55422  0.49179  Biso   1.000  H
  N1       1.0000 0.95311  0.64278  0.51778  Biso   1.000  N
  C9       1.0000 0.22274  0.71931  0.63684  Biso   1.000  C
  O7       1.0000 0.36896  0.49460  0.40569  Biso   1.000  O
  H11      1.0000 0.26878  0.50581  0.35181  Biso   1.000  H
  C10      1.0000 0.35231  0.59661  0.35423  Biso   1.000  C
  C11      1.0000 0.19312  0.66841  0.36750  Biso   1.000  C
  C12      1.0000 0.89812  0.59858  0.55309  Biso   1.000  C
  C13      1.0000 0.87660  0.67080  0.48279  Biso   1.000  C
  C14      1.0000 0.32068  0.74349  0.66142  Biso   1.000  C
  H12      1.0000 0.18178  0.69000  0.65932  Biso   1.000  H
  C15      1.0000 0.15656  0.78022  0.62041  Biso   1.000  C
  H13      1.0000 0.42712  0.49372  0.39250  Biso   1.000  H
  O8       1.0000 0.42642  0.57035  0.32002  Biso   1.000  O
  H14      1.0000 0.39002  0.62338  0.37930  Biso   1.000  H
  C16      1.0000 0.27387  0.64481  0.33023  Biso   1.000  C
  H15      1.0000 0.22937  0.69129  0.39459  Biso   1.000  H
  C17      1.0000 0.10890  0.71708  0.34861  Biso   1.000  C
  H16      1.0000 0.94817  0.58042  0.57660  Biso   1.000  H
  H17      1.0000 0.86611  0.55858  0.53670  Biso   1.000  H
  C18      1.0000 0.81567  0.63998  0.57849  Biso   1.000  C
  C19      1.0000 0.79277  0.71231  0.50850  Biso   1.000  C
  H18      1.0000 0.84459  0.63199  0.46511  Biso   1.000  H
  H19      1.0000 0.91231  0.70110  0.45960  Biso   1.000  H
  O9       1.0000 0.37791  0.68678  0.67891  Biso   1.000  O
  C20      1.0000 0.29801  0.79449  0.70071  Biso   1.000  C
  H20      1.0000 0.36411  0.76782  0.63720  Biso   1.000  H
  O10      1.0000 0.13921  0.82832  0.66035  Biso   1.000  O
  H21      1.0000 0.19297  0.80518  0.59410  Biso   1.000  H
  C21      1.0000 0.04928  0.75719  0.60299  Biso   1.000  C
  H22      1.0000 0.46869  0.60180  0.31319  Biso   1.000  H
  O11      1.0000 0.32909  0.70421  0.31209  Biso   1.000  O
  H23      1.0000 0.23893  0.61980  0.30349  Biso   1.000  H
  O12      1.0000 0.07057  0.75828  0.38880  Biso   1.000  O
  H24      1.0000 0.13767  0.74811  0.32379  Biso   1.000  H
  H25      1.0000 0.05198  0.68989  0.33439  Biso   1.000  H
  N2       1.0000 0.74171  0.66618  0.54371  Biso   1.000  N
  H26      1.0000 0.77989  0.61010  0.60199  Biso   1.000  H
  H27      1.0000 0.84768  0.67921  0.59580  Biso   1.000  H
  H28      1.0000 0.82400  0.75262  0.52489  Biso   1.000  H
  H29      1.0000 0.74163  0.72969  0.48531  Biso   1.000  H
  H30      1.0000 0.33812  0.65321  0.68378  Biso   1.000  H
  O13      1.0000 0.38747  0.82168  0.72230  Biso   1.000  O
  C22      1.0000 0.23168  0.85348  0.68108  Biso   1.000  C
  H31      1.0000 0.25713  0.76990  0.72571  Biso   1.000  H
  O14      1.0000 0.03363  0.76642  0.55551  Biso   1.000  O
  H32      1.0000 0.03980  0.70748  0.61070  Biso   1.000  H
  H33      1.0000 0.99630  0.78370  0.62070  Biso   1.000  H
  C23      1.0000 0.32277  0.72061  0.26238  Biso   1.000  C
  H34      1.0000 0.06934  0.80040  0.38119  Biso   1.000  H
  H35      1.0000 0.69219  0.69010  0.55889  Biso   1.000  H
  H36      1.0000 0.38763  0.86510  0.71970  Biso   1.000  H
  O15      1.0000 0.29253  0.88938  0.64584  Biso   1.000  O
  H37      1.0000 0.21433  0.88632  0.70750  Biso   1.000  H
  H38      1.0000 0.02229  0.80860  0.54989  Biso   1.000  H
  O16      1.0000 0.25513  0.77882  0.25480  Biso   1.000  O
  H39      1.0000 0.29369  0.67952  0.24531  Biso   1.000  H
  C24      1.0000 0.42820  0.73399  0.24367  Biso   1.000  C
  C25      1.0000 0.30433  0.96508  0.64861  Biso   1.000  C
  C26      1.0000 0.28960  0.84119  0.27891  Biso   1.000  C
  O17      1.0000 0.48812  0.67402  0.25235  Biso   1.000  O
  H40      1.0000 0.42357  0.74152  0.20850  Biso   1.000  H
  C27      1.0000 0.47139  0.79978  0.26661  Biso   1.000  C
  C28      1.0000 0.41840  0.97930  0.64371  Biso   1.000  C
  H41      1.0000 0.27827  0.98272  0.67980  Biso   1.000  H
  C29      1.0000 0.24580  1.00000  0.60743  Biso   1.000  C
  C30      1.0000 0.39719  0.86168  0.26312  Biso   1.000  C
  H42      1.0000 0.28922  0.83319  0.31408  Biso   1.000  H
  C31      1.0000 0.20762  0.89660  0.26600  Biso   1.000  C
  H43      1.0000 0.55059  0.68289  0.24740  Biso   1.000  H
  O18      1.0000 0.56687  0.81680  0.24470  Biso   1.000  O
  H44      1.0000 0.48458  0.78998  0.30100  Biso   1.000  H
  O19      1.0000 0.47301  0.95092  0.68289  Biso   1.000  O
  H45      1.0000 0.44331  0.95569  0.61419  Biso   1.000  H
  C32      1.0000 0.43907  0.05749  0.63830  Biso   1.000  C
  H46      1.0000 0.27279  0.98122  0.57671  Biso   1.000  H
  C33      1.0000 0.12888  0.99108  0.60811  Biso   1.000  C
  O20      1.0000 0.26608  0.07440  0.60893  Biso   1.000  O
  O21      1.0000 0.43653  0.91636  0.29260  Biso   1.000  O
  H47      1.0000 0.39449  0.87807  0.22941  Biso   1.000  H
  O22      1.0000 0.10898  0.88072  0.28489  Biso   1.000  O
  H48      1.0000 0.23022  0.94231  0.27841  Biso   1.000  H
  H49      1.0000 0.20253  0.90018  0.23101  Biso   1.000  H
  H50      1.0000 0.60273  0.84051  0.26351  Biso   1.000  H
  H51      1.0000 0.53640  0.95050  0.67681  Biso   1.000  H
  O23      1.0000 0.54658  0.06932  0.62550  Biso   1.000  O
  C34      1.0000 0.37089  0.09069  0.60132  Biso   1.000  C
  H52      1.0000 0.42557  0.08052  0.66959  Biso   1.000  H
  H53      1.0000 0.11129  0.94148  0.60420  Biso   1.000  H
  O24      1.0000 0.08707  0.01629  0.65238  Biso   1.000  O
  H54      1.0000 0.09803  0.01712  0.58129  Biso   1.000  H
  C35      1.0000 0.46992  0.97961  0.26988  Biso   1.000  C
  H55      1.0000 0.11322  0.87678  0.31451  Biso   1.000  H
  H56      1.0000 0.58468  0.05832  0.64851  Biso   1.000  H
  O25      1.0000 0.40467  0.06792  0.55487  Biso   1.000  O
  H57      1.0000 0.37930  0.14221  0.60320  Biso   1.000  H
  H58      1.0000 0.06733  0.05749  0.64890  Biso   1.000  H
  H59      1.0000 0.47787  0.97069  0.23499  Biso   1.000  H
  C36      1.0000 0.57327  0.99881  0.29001  Biso   1.000  C
  O26      1.0000 0.39681  0.03362  0.27639  Biso   1.000  O
  C37      1.0000 0.42002  0.12011  0.51942  Biso   1.000  C
  O27      1.0000 0.64592  0.94282  0.28403  Biso   1.000  O
  H60      1.0000 0.59972  0.03990  0.27201  Biso   1.000  H
  C38      1.0000 0.56448  0.01909  0.34200  Biso   1.000  C
  C39      1.0000 0.37953  0.05209  0.32656  Biso   1.000  C
  C40      1.0000 0.34012  0.11238  0.47859  Biso   1.000  C
  C41      1.0000 0.52630  0.10688  0.49812  Biso   1.000  C
  H61      1.0000 0.41632  0.16748  0.53371  Biso   1.000  H
  H62      1.0000 0.70137  0.95849  0.27301  Biso   1.000  H
  H63      1.0000 0.54543  0.97691  0.36081  Biso   1.000  H
  O28      1.0000 0.66142  0.04472  0.35917  Biso   1.000  O
  C42      1.0000 0.48080  0.07310  0.34861  Biso   1.000  C
  H64      1.0000 0.35223  0.01048  0.34381  Biso   1.000  H
  C43      1.0000 0.29523  0.10849  0.32539  Biso   1.000  C
  O29      1.0000 0.36542  0.16141  0.44100  Biso   1.000  O
  H65      1.0000 0.34421  0.06418  0.46561  Biso   1.000  H
  C44      1.0000 0.22929  0.12618  0.49548  Biso   1.000  C
  C45      1.0000 0.54813  0.15679  0.45669  Biso   1.000  C
  O30      1.0000 0.60620  0.11440  0.53361  Biso   1.000  O
  H66      1.0000 0.52830  0.05832  0.48570  Biso   1.000  H
  H67      1.0000 0.65294  0.06340  0.38592  Biso   1.000  H
  O31      1.0000 0.46822  0.08151  0.40021  Biso   1.000  O
  H68      1.0000 0.50401  0.11809  0.33450  Biso   1.000  H
  O32      1.0000 0.34143  0.17018  0.30455  Biso   1.000  O
  H69      1.0000 0.23600  0.09282  0.30590  Biso   1.000  H
  H70      1.0000 0.27040  0.11850  0.35789  Biso   1.000  H
  C46      1.0000 0.46352  0.15031  0.41899  Biso   1.000  C
  O33      1.0000 0.22412  0.19072  0.51760  Biso   1.000  O
  H71      1.0000 0.18178  0.12519  0.46799  Biso   1.000  H
  H72      1.0000 0.20793  0.08960  0.51810  Biso   1.000  H
  O34      1.0000 0.64569  0.14200  0.43585  Biso   1.000  O
  H73      1.0000 0.54867  0.20541  0.46910  Biso   1.000  H
  H74      1.0000 0.59371  0.14932  0.55050  Biso   1.000  H
  H75      1.0000 0.32022  0.20561  0.31910  Biso   1.000  H
  H76      1.0000 0.47478  0.18502  0.39310  Biso   1.000  H
  H77      1.0000 0.23292  0.18579  0.54701  Biso   1.000  H
  H78      1.0000 0.66111  0.17371  0.41661  Biso   1.000  H
  C47      1.0000 0.62888  0.50892  0.39189  Biso   1.000  C
  O35      1.0000 0.58707  0.48371  0.34762  Biso   1.000  O
  C48      1.0000 0.74580  0.50000  0.39257  Biso   1.000  C
  H79      1.0000 0.59803  0.48288  0.41871  Biso   1.000  H
  H80      1.0000 0.61129  0.55852  0.39580  Biso   1.000  H
  H81      1.0000 0.56733  0.44251  0.35110  Biso   1.000  H
  O36      1.0000 0.76608  0.42560  0.39107  Biso   1.000  O
  C49      1.0000 0.80433  0.53492  0.35139  Biso   1.000  C
  H82      1.0000 0.77279  0.51878  0.42329  Biso   1.000  H
  C50      1.0000 0.87089  0.40931  0.39868  Biso   1.000  C
  O37      1.0000 0.79253  0.61062  0.35416  Biso   1.000  O
  C51      1.0000 0.91840  0.52070  0.35629  Biso   1.000  C
  H83      1.0000 0.77827  0.51728  0.32020  Biso   1.000  H
  O38      1.0000 0.90467  0.43208  0.44513  Biso   1.000  O
  H84      1.0000 0.87930  0.35779  0.39680  Biso   1.000  H
  C52      1.0000 0.93907  0.44251  0.36170  Biso   1.000  C
  C53      1.0000 0.73168  0.64652  0.31892  Biso   1.000  C
  O39      1.0000 0.97301  0.54908  0.31711  Biso   1.000  O
  H85      1.0000 0.94331  0.54431  0.38581  Biso   1.000  H
  C54      1.0000 0.92002  0.37989  0.48058  Biso   1.000  C
  H86      1.0000 0.92557  0.41948  0.33041  Biso   1.000  H
  O40      1.0000 0.04658  0.43068  0.37450  Biso   1.000  O
  O41      1.0000 0.63921  0.67168  0.33965  Biso   1.000  O
  H87      1.0000 0.71433  0.61368  0.29250  Biso   1.000  H
  C55      1.0000 0.79801  0.70551  0.29929  Biso   1.000  C
  H88      1.0000 0.03640  0.54950  0.32319  Biso   1.000  H
  H89      1.0000 0.91632  0.33252  0.46629  Biso   1.000  H
  C56      1.0000 0.84012  0.38762  0.52141  Biso   1.000  C
  C57      1.0000 0.02630  0.39312  0.50188  Biso   1.000  C
  H90      1.0000 0.08468  0.44168  0.35149  Biso   1.000  H
  C58      1.0000 0.65656  0.71978  0.37959  Biso   1.000  C
  O42      1.0000 0.88747  0.67832  0.27770  Biso   1.000  O
  H91      1.0000 0.75713  0.73010  0.27429  Biso   1.000  H
  C59      1.0000 0.82068  0.75651  0.33858  Biso   1.000  C
  O43      1.0000 0.86542  0.33859  0.55900  Biso   1.000  O
  H92      1.0000 0.84421  0.43582  0.53439  Biso   1.000  H
  C60      1.0000 0.72929  0.37382  0.50452  Biso   1.000  C
  O44      1.0000 0.10620  0.38560  0.46639  Biso   1.000  O
  C61      1.0000 0.04813  0.34321  0.54331  Biso   1.000  C
  H93      1.0000 0.02830  0.44168  0.51430  Biso   1.000  H
  C62      1.0000 0.72274  0.78069  0.36316  Biso   1.000  C
  H94      1.0000 0.69297  0.69482  0.40590  Biso   1.000  H
  C63      1.0000 0.54928  0.74281  0.39701  Biso   1.000  C
  H95      1.0000 0.88763  0.63490  0.28030  Biso   1.000  H
  O45      1.0000 0.87791  0.81322  0.32109  Biso   1.000  O
  H96      1.0000 0.86411  0.73218  0.36280  Biso   1.000  H
  C64      1.0000 0.96352  0.34969  0.58101  Biso   1.000  C
  O46      1.0000 0.72412  0.30928  0.48240  Biso   1.000  O
  H97      1.0000 0.68178  0.37481  0.53201  Biso   1.000  H
  H98      1.0000 0.70793  0.41040  0.48190  Biso   1.000  H
  H99      1.0000 0.09371  0.35068  0.44950  Biso   1.000  H
  O47      1.0000 0.14569  0.35800  0.56415  Biso   1.000  O
  H100     1.0000 0.04867  0.29459  0.53090  Biso   1.000  H
  O48      1.0000 0.74757  0.82111  0.40530  Biso   1.000  O
  H101     1.0000 0.68178  0.81000  0.34068  Biso   1.000  H
  O49      1.0000 0.53363  0.73358  0.44449  Biso   1.000  O
  H102     1.0000 0.53980  0.79252  0.38930  Biso   1.000  H
  H103     1.0000 0.49630  0.71630  0.37930  Biso   1.000  H
  H104     1.0000 0.83812  0.84679  0.31622  Biso   1.000  H
  O50      1.0000 0.96822  0.41849  0.59979  Biso   1.000  O
  H105     1.0000 0.97478  0.31498  0.60690  Biso   1.000  H
  H106     1.0000 0.73292  0.31421  0.45299  Biso   1.000  H
  H107     1.0000 0.16111  0.32629  0.58339  Biso   1.000  H
  C65      1.0000 0.72150  0.89271  0.40381  Biso   1.000  C
  H108     1.0000 0.52229  0.69140  0.45011  Biso   1.000  H
  C66      1.0000 0.98080  0.42690  0.65139  Biso   1.000  C
  O51      1.0000 0.63258  0.90760  0.43193  Biso   1.000  O
  H109     1.0000 0.70824  0.90671  0.37009  Biso   1.000  H
  C67      1.0000 0.81521  0.93400  0.42329  Biso   1.000  C
  C68      1.0000 0.87953  0.44791  0.67344  Biso   1.000  C
  C69      1.0000 0.06448  0.48091  0.65800  Biso   1.000  C
  H110     1.0000 0.00401  0.38191  0.66550  Biso   1.000  H
  C70      1.0000 0.64492  0.88648  0.48058  Biso   1.000  C
  O52      1.0000 0.90722  0.91372  0.39637  Biso   1.000  O
  H111     1.0000 0.80248  0.98469  0.41839  Biso   1.000  H
  C71      1.0000 0.83102  0.92020  0.47731  Biso   1.000  C
  O53      1.0000 0.89681  0.46638  0.72361  Biso   1.000  O
  H112     1.0000 0.85223  0.48952  0.65619  Biso   1.000  H
  C72      1.0000 0.79523  0.39151  0.67461  Biso   1.000  C
  O54      1.0000 0.16142  0.45528  0.64083  Biso   1.000  O
  C73      1.0000 0.07327  0.50119  0.70999  Biso   1.000  C
  H113     1.0000 0.04543  0.52309  0.63919  Biso   1.000  H
  C74      1.0000 0.73068  0.92788  0.50430  Biso   1.000  C
  H114     1.0000 0.66389  0.83631  0.48119  Biso   1.000  H
  C75      1.0000 0.53856  0.89592  0.50690  Biso   1.000  C
  H115     1.0000 0.89149  0.88290  0.37649  Biso   1.000  H
  O55      1.0000 0.90838  0.96571  0.49651  Biso   1.000  O
  H116     1.0000 0.85562  0.87138  0.48119  Biso   1.000  H
  C76      1.0000 0.96992  0.52039  0.73012  Biso   1.000  C
  O56      1.0000 0.84143  0.32982  0.69545  Biso   1.000  O
  H117     1.0000 0.73600  0.40718  0.69410  Biso   1.000  H
  H118     1.0000 0.77040  0.38150  0.64211  Biso   1.000  H
  H119     1.0000 0.15294  0.43660  0.61408  Biso   1.000  H
  O57      1.0000 0.14592  0.55718  0.71597  Biso   1.000  O
  H120     1.0000 0.09972  0.46010  0.72799  Biso   1.000  H
  O58      1.0000 0.75312  0.90350  0.55068  Biso   1.000  O
  H121     1.0000 0.71094  0.97800  0.50569  Biso   1.000  H
  N3       1.0000 0.45311  0.85722  0.48222  Biso   1.000  N
  H122     1.0000 0.54512  0.87880  0.54001  Biso   1.000  H
  H123     1.0000 0.52113  0.94578  0.50821  Biso   1.000  H
  H124     1.0000 0.96267  0.96218  0.48041  Biso   1.000  H
  O59      1.0000 0.93653  0.58364  0.70740  Biso   1.000  O
  H125     1.0000 0.97787  0.52931  0.76501  Biso   1.000  H
  H126     1.0000 0.82022  0.29439  0.68090  Biso   1.000  H
  H127     1.0000 0.20137  0.54151  0.72699  Biso   1.000  H
  C77      1.0000 0.70947  0.93930  0.58986  Biso   1.000  C
  C78      1.0000 0.39812  0.90142  0.44691  Biso   1.000  C
  C79      1.0000 0.37660  0.82920  0.51721  Biso   1.000  C
  C80      1.0000 0.89719  0.63832  0.73688  Biso   1.000  C
  O60      1.0000 0.64222  0.89379  0.61550  Biso   1.000  O
  H128     1.0000 0.66967  0.98028  0.57820  Biso   1.000  H
  C81      1.0000 0.79847  0.96410  0.62272  Biso   1.000  C
  H129     1.0000 0.44817  0.91958  0.42340  Biso   1.000  H
  H130     1.0000 0.36611  0.94142  0.46330  Biso   1.000  H
  C82      1.0000 0.31567  0.86002  0.42151  Biso   1.000  C
  C83      1.0000 0.29277  0.78769  0.49150  Biso   1.000  C
  H131     1.0000 0.34459  0.86801  0.53489  Biso   1.000  H
  H132     1.0000 0.41231  0.79890  0.54040  Biso   1.000  H
  C84      1.0000 0.97139  0.70022  0.73339  Biso   1.000  C
  H133     1.0000 0.89449  0.62193  0.77059  Biso   1.000  H
  C85      1.0000 0.78960  0.65881  0.72109  Biso   1.000  C
  C86      1.0000 0.69312  0.83159  0.63250  Biso   1.000  C
  H134     1.0000 0.76878  0.99419  0.64819  Biso   1.000  H
  C87      1.0000 0.85231  0.90339  0.64577  Biso   1.000  C
  O61      1.0000 0.86896  0.00540  0.59431  Biso   1.000  O
  N4       1.0000 0.24171  0.83382  0.45629  Biso   1.000  N
  H135     1.0000 0.27989  0.88990  0.39801  Biso   1.000  H
  H136     1.0000 0.34768  0.82079  0.40420  Biso   1.000  H
  H137     1.0000 0.32400  0.74738  0.47511  Biso   1.000  H
  H138     1.0000 0.24163  0.77031  0.51469  Biso   1.000  H
  C88      1.0000 0.92820  0.76601  0.75633  Biso   1.000  C
  H139     1.0000 0.98458  0.71002  0.69900  Biso   1.000  H
  O62      1.0000 0.06687  0.68320  0.75530  Biso   1.000  O
  O63      1.0000 0.75513  0.72118  0.74520  Biso   1.000  O
  H140     1.0000 0.78922  0.66681  0.68592  Biso   1.000  H
  C89      1.0000 0.70762  0.60340  0.73400  Biso   1.000  C
  C90      1.0000 0.77387  0.85519  0.66977  Biso   1.000  C
  H141     1.0000 0.72937  0.80871  0.60541  Biso   1.000  H
  C91      1.0000 0.60890  0.78292  0.65139  Biso   1.000  C
  O64      1.0000 0.92642  0.92965  0.67998  Biso   1.000  O
  H142     1.0000 0.89002  0.87662  0.62070  Biso   1.000  H
  H143     1.0000 0.92712  0.00628  0.60750  Biso   1.000  H
  H144     1.0000 0.19219  0.80990  0.44111  Biso   1.000  H
  O65      1.0000 0.98812  0.82598  0.74765  Biso   1.000  O
  C92      1.0000 0.82277  0.77939  0.73762  Biso   1.000  C
  H145     1.0000 0.92357  0.75848  0.79150  Biso   1.000  H
  H146     1.0000 0.10273  0.65949  0.73649  Biso   1.000  H
  O66      1.0000 0.60898  0.61928  0.71511  Biso   1.000  O
  H147     1.0000 0.73022  0.55769  0.72159  Biso   1.000  H
  H148     1.0000 0.70253  0.59982  0.76899  Biso   1.000  H
  O67      1.0000 0.82909  0.79579  0.68791  Biso   1.000  O
  H149     1.0000 0.73893  0.88020  0.69651  Biso   1.000  H
  O68      1.0000 0.57057  0.74172  0.61120  Biso   1.000  O
  H150     1.0000 0.63767  0.75189  0.67621  Biso   1.000  H
  H151     1.0000 0.55198  0.81011  0.66561  Biso   1.000  H
  H152     1.0000 0.96869  0.89820  0.68681  Biso   1.000  H
  H153     1.0000 0.05059  0.81711  0.75260  Biso   1.000  H
  H154     1.0000 0.79369  0.82048  0.75469  Biso   1.000  H
  H155     1.0000 0.61322  0.62322  0.68549  Biso   1.000  H
  H156     1.0000 0.56934  0.69960  0.61881  Biso   1.000  H
  C93      1.0000 0.53008  0.47961  0.23012  Biso   1.000  C
  O69      1.0000 0.56347  0.41636  0.20740  Biso   1.000  O
  O70      1.0000 0.60319  0.53362  0.22361  Biso   1.000  O
  H157     1.0000 0.52213  0.47069  0.26501  Biso   1.000  H
  C94      1.0000 0.42673  0.49881  0.20999  Biso   1.000  C
  C95      1.0000 0.60281  0.36168  0.23688  Biso   1.000  C
  C96      1.0000 0.62047  0.55209  0.17344  Biso   1.000  C
  O71      1.0000 0.35408  0.44282  0.21597  Biso   1.000  O
  H158     1.0000 0.40028  0.53990  0.22799  Biso   1.000  H
  C97      1.0000 0.43552  0.51909  0.15800  Biso   1.000  C
  C98      1.0000 0.52861  0.29978  0.23339  Biso   1.000  C
  H159     1.0000 0.60551  0.37807  0.27059  Biso   1.000  H
  C99      1.0000 0.71040  0.34119  0.22109  Biso   1.000  C
  C100     1.0000 0.51920  0.57310  0.15139  Biso   1.000  C
  H160     1.0000 0.64777  0.51048  0.15619  Biso   1.000  H
  C101     1.0000 0.70477  0.60849  0.17461  Biso   1.000  C
  H161     1.0000 0.29863  0.45849  0.22699  Biso   1.000  H
  O72      1.0000 0.33858  0.54472  0.14083  Biso   1.000  O
  H162     1.0000 0.45457  0.47691  0.13919  Biso   1.000  H
  O73      1.0000 0.43313  0.31680  0.25530  Biso   1.000  O
  C102     1.0000 0.57180  0.23399  0.25633  Biso   1.000  C
  H163     1.0000 0.51542  0.28998  0.19900  Biso   1.000  H
  O74      1.0000 0.74487  0.27882  0.24520  Biso   1.000  O
  H164     1.0000 0.71078  0.33319  0.18592  Biso   1.000  H
  C103     1.0000 0.79238  0.39660  0.23400  Biso   1.000  C
  O75      1.0000 0.53178  0.58151  0.09979  Biso   1.000  O
  H165     1.0000 0.49599  0.61809  0.16550  Biso   1.000  H
  O76      1.0000 0.65857  0.67018  0.19545  Biso   1.000  O
  H166     1.0000 0.76400  0.59282  0.19410  Biso   1.000  H
  H167     1.0000 0.72960  0.61850  0.14211  Biso   1.000  H
  H168     1.0000 0.34706  0.56340  0.11408  Biso   1.000  H
  H169     1.0000 0.39727  0.34051  0.23649  Biso   1.000  H
  O77      1.0000 0.51188  0.17402  0.24765  Biso   1.000  O
  C104     1.0000 0.67723  0.22061  0.23762  Biso   1.000  C
  H170     1.0000 0.57643  0.24152  0.29150  Biso   1.000  H
  O78      1.0000 0.89102  0.38072  0.21511  Biso   1.000  O
  H171     1.0000 0.76978  0.44231  0.22159  Biso   1.000  H
  H172     1.0000 0.79747  0.40018  0.26899  Biso   1.000  H
  C105     1.0000 0.53648  0.65031  0.08101  Biso   1.000  C
  H173     1.0000 0.67978  0.70561  0.18090  Biso   1.000  H
  H174     1.0000 0.44941  0.18289  0.25260  Biso   1.000  H
  O79      1.0000 0.67091  0.20421  0.18791  Biso   1.000  O
  H175     1.0000 0.70631  0.17952  0.25469  Biso   1.000  H
  H176     1.0000 0.88678  0.37678  0.18549  Biso   1.000  H
  O80      1.0000 0.63458  0.66141  0.05900  Biso   1.000  O
  H177     1.0000 0.52522  0.68502  0.10690  Biso   1.000  H
  C106     1.0000 0.45187  0.65679  0.04331  Biso   1.000  C
  C107     1.0000 0.72613  0.14481  0.16977  Biso   1.000  C
  C108     1.0000 0.65988  0.61238  0.02141  Biso   1.000  C
  O81      1.0000 0.35431  0.64200  0.06415  Biso   1.000  O
  H178     1.0000 0.45133  0.70541  0.03090  Biso   1.000  H
  C109     1.0000 0.47370  0.60688  0.00188  Biso   1.000  C
  C110     1.0000 0.64769  0.09661  0.14577  Biso   1.000  C
  H179     1.0000 0.76107  0.11980  0.19651  Biso   1.000  H
  C111     1.0000 0.80688  0.16841  0.13250  Biso   1.000  C
  H180     1.0000 0.65579  0.56418  0.03439  Biso   1.000  H
  C112     1.0000 0.77071  0.62618  0.00452  Biso   1.000  C
  C113     1.0000 0.57998  0.62011  0.98058  Biso   1.000  C
  H181     1.0000 0.33889  0.67371  0.08339  Biso   1.000  H
  H182     1.0000 0.47170  0.55832  0.01430  Biso   1.000  H
  O82      1.0000 0.39380  0.61440  0.96639  Biso   1.000  O
  O83      1.0000 0.57358  0.07035  0.17998  Biso   1.000  O
  C114     1.0000 0.70153  0.03590  0.12272  Biso   1.000  C
  H183     1.0000 0.60998  0.12338  0.12070  Biso   1.000  H
  O84      1.0000 0.85778  0.10621  0.11550  Biso   1.000  O
  H184     1.0000 0.77063  0.19129  0.10541  Biso   1.000  H
  C115     1.0000 0.89110  0.21708  0.15139  Biso   1.000  C
  H185     1.0000 0.81822  0.62519  0.03201  Biso   1.000  H
  O85      1.0000 0.77588  0.69072  0.98240  Biso   1.000  O
  H186     1.0000 0.79207  0.58960  0.98190  Biso   1.000  H
  O86      1.0000 0.59533  0.56792  0.94513  Biso   1.000  O
  H187     1.0000 0.58368  0.66748  0.96629  Biso   1.000  H
  H188     1.0000 0.40629  0.64932  0.94950  Biso   1.000  H
  H189     1.0000 0.53131  0.10180  0.18681  Biso   1.000  H
  C116     1.0000 0.79053  0.06070  0.08986  Biso   1.000  C
  H190     1.0000 0.73122  0.00581  0.14819  Biso   1.000  H
  O87      1.0000 0.63104  0.99460  0.09431  Biso   1.000  O
  O88      1.0000 0.92943  0.25828  0.11120  Biso   1.000  O
  H191     1.0000 0.86233  0.24811  0.17621  Biso   1.000  H
  H192     1.0000 0.94802  0.18989  0.16561  Biso   1.000  H
  H193     1.0000 0.76708  0.68579  0.95299  Biso   1.000  H
  C117     1.0000 0.62911  0.59069  0.89868  Biso   1.000  C
  O89      1.0000 0.74688  0.09650  0.05068  Biso   1.000  O
  H194     1.0000 0.83033  0.01972  0.07820  Biso   1.000  H
  H195     1.0000 0.57288  0.99372  0.10750  Biso   1.000  H
  H196     1.0000 0.93066  0.30040  0.11881  Biso   1.000  H
  O90      1.0000 0.73392  0.57440  0.89107  Biso   1.000  O
  H197     1.0000 0.62070  0.64221  0.89680  Biso   1.000  H
  C118     1.0000 0.56093  0.55749  0.86170  Biso   1.000  C
  C119     1.0000 0.76932  0.07212  0.00430  Biso   1.000  C
  C120     1.0000 0.75420  0.50000  0.89257  Biso   1.000  C
  O91      1.0000 0.45342  0.56932  0.87450  Biso   1.000  O
  H198     1.0000 0.57443  0.58052  0.83041  Biso   1.000  H
  C121     1.0000 0.58160  0.47930  0.85629  Biso   1.000  C
  H199     1.0000 0.78906  0.02200  0.00569  Biso   1.000  H
  C122     1.0000 0.66898  0.07980  0.97731  Biso   1.000  C
  C123     1.0000 0.85508  0.11352  0.98058  Biso   1.000  C
  C124     1.0000 0.69567  0.46508  0.85139  Biso   1.000  C
  H200     1.0000 0.72721  0.48122  0.92329  Biso   1.000  H
  C125     1.0000 0.87112  0.49108  0.89189  Biso   1.000  C
  H201     1.0000 0.41532  0.55832  0.85149  Biso   1.000  H
  O92      1.0000 0.52699  0.45092  0.81711  Biso   1.000  O
  H202     1.0000 0.55669  0.45569  0.88581  Biso   1.000  H
  O93      1.0000 0.59162  0.03429  0.99651  Biso   1.000  O
  C126     1.0000 0.68479  0.06600  0.92329  Biso   1.000  C
  H203     1.0000 0.64438  0.12862  0.98119  Biso   1.000  H
  C127     1.0000 0.96144  0.10408  0.00690  Biso   1.000  C
  O94      1.0000 0.86742  0.09240  0.93193  Biso   1.000  O
  H204     1.0000 0.83611  0.16369  0.98119  Biso   1.000  H
  O95      1.0000 0.70747  0.38938  0.85416  Biso   1.000  O
  H205     1.0000 0.72173  0.48272  0.82020  Biso   1.000  H
  O96      1.0000 0.91293  0.51629  0.84762  Biso   1.000  O
  H206     1.0000 0.90197  0.51712  0.91871  Biso   1.000  H
  H207     1.0000 0.88871  0.44148  0.89580  Biso   1.000  H
  H208     1.0000 0.46360  0.45050  0.82319  Biso   1.000  H
  H209     1.0000 0.53733  0.03782  0.98041  Biso   1.000  H
  O97      1.0000 0.59278  0.08628  0.89637  Biso   1.000  O
  C128     1.0000 0.77850  0.10729  0.90381  Biso   1.000  C
  H210     1.0000 0.69752  0.01531  0.91839  Biso   1.000  H
  H211     1.0000 0.95488  0.12120  0.04001  Biso   1.000  H
  H212     1.0000 0.97887  0.05422  0.00821  Biso   1.000  H
  N5       1.0000 0.04689  0.14278  0.98222  Biso   1.000  N
  C129     1.0000 0.76832  0.35348  0.81892  Biso   1.000  C
  H213     1.0000 0.93267  0.55749  0.85110  Biso   1.000  H
  H214     1.0000 0.60851  0.11710  0.87649  Biso   1.000  H
  O98      1.0000 0.75243  0.17889  0.90530  Biso   1.000  O
  H215     1.0000 0.79176  0.09329  0.87009  Biso   1.000  H
  C130     1.0000 0.10188  0.09858  0.94691  Biso   1.000  C
  C131     1.0000 0.12340  0.17080  0.01721  Biso   1.000  C
  C132     1.0000 0.70199  0.29449  0.79929  Biso   1.000  C
  O99      1.0000 0.86079  0.32832  0.83965  Biso   1.000  O
  H216     1.0000 0.78567  0.38632  0.79250  Biso   1.000  H
  C133     1.0000 0.77726  0.21931  0.86316  Biso   1.000  C
  H217     1.0000 0.05183  0.08042  0.92340  Biso   1.000  H
  H218     1.0000 0.13389  0.05858  0.96330  Biso   1.000  H
  C134     1.0000 0.18433  0.13998  0.92151  Biso   1.000  C
  C135     1.0000 0.20723  0.21231  0.99150  Biso   1.000  C
  H219     1.0000 0.15541  0.13199  0.03489  Biso   1.000  H
  H220     1.0000 0.08769  0.20110  0.04040  Biso   1.000  H
  C136     1.0000 0.67932  0.24349  0.83858  Biso   1.000  C
  O100     1.0000 0.61253  0.32168  0.77770  Biso   1.000  O
  H221     1.0000 0.74287  0.26990  0.77429  Biso   1.000  H
  C137     1.0000 0.84344  0.28022  0.87959  Biso   1.000  C
  H222     1.0000 0.81822  0.19000  0.84068  Biso   1.000  H
  N6       1.0000 0.25829  0.16618  0.95629  Biso   1.000  N
  H223     1.0000 0.22011  0.11010  0.89801  Biso   1.000  H
  H224     1.0000 0.15232  0.17921  0.90420  Biso   1.000  H
  H225     1.0000 0.17600  0.25262  0.97511  Biso   1.000  H
  H226     1.0000 0.25837  0.22969  0.01469  Biso   1.000  H
  O101     1.0000 0.62209  0.18678  0.82109  Biso   1.000  O
  H227     1.0000 0.63589  0.26782  0.86280  Biso   1.000  H
  H228     1.0000 0.61237  0.36510  0.78030  Biso   1.000  H
  H229     1.0000 0.80703  0.30518  0.90590  Biso   1.000  H
  C138     1.0000 0.95072  0.25719  0.89701  Biso   1.000  C
  H230     1.0000 0.30781  0.19010  0.94111  Biso   1.000  H
  H231     1.0000 0.66188  0.15321  0.81622  Biso   1.000  H
  O102     1.0000 0.96637  0.26642  0.94449  Biso   1.000  O
  H232     1.0000 0.96020  0.20748  0.88930  Biso   1.000  H
  H233     1.0000 0.00370  0.28370  0.87930  Biso   1.000  H
  H234     1.0000 0.97771  0.30860  0.95011  Biso   1.000  H
  C139     1.0000 0.17723  0.27939  0.76238  Biso   1.000  C
  C140     1.0000 0.07180  0.26601  0.74367  Biso   1.000  C
  O103     1.0000 0.17091  0.29579  0.81209  Biso   1.000  O
  O104     1.0000 0.24487  0.22118  0.75480  Biso   1.000  O
  H235     1.0000 0.20631  0.32048  0.74531  Biso   1.000  H
  O105     1.0000 0.01188  0.32598  0.75235  Biso   1.000  O
  H236     1.0000 0.07643  0.25848  0.70850  Biso   1.000  H
  C141     1.0000 0.02861  0.20022  0.76661  Biso   1.000  C
  C142     1.0000 0.22613  0.35519  0.83023  Biso   1.000  C
  C143     1.0000 0.21040  0.15881  0.77891  Biso   1.000  C
  H237     1.0000 0.94941  0.31711  0.74740  Biso   1.000  H
  H238     1.0000 0.01542  0.21002  0.80100  Biso   1.000  H
  C144     1.0000 0.10281  0.13832  0.76312  Biso   1.000  C
  O106     1.0000 0.93313  0.18320  0.74470  Biso   1.000  O
  C145     1.0000 0.14769  0.40339  0.85423  Biso   1.000  C
  H239     1.0000 0.26107  0.38020  0.80349  Biso   1.000  H
  C146     1.0000 0.30688  0.33159  0.86750  Biso   1.000  C
  H240     1.0000 0.21078  0.16681  0.81408  Biso   1.000  H
  C147     1.0000 0.29238  0.10340  0.76600  Biso   1.000  C
  O107     1.0000 0.06347  0.08364  0.79260  Biso   1.000  O
  H241     1.0000 0.10551  0.12193  0.72941  Biso   1.000  H
  H242     1.0000 0.89727  0.15949  0.76351  Biso   1.000  H
  O108     1.0000 0.07358  0.42965  0.82002  Biso   1.000  O
  C148     1.0000 0.20153  0.46410  0.87728  Biso   1.000  C
  H243     1.0000 0.10998  0.37662  0.87930  Biso   1.000  H
  O109     1.0000 0.35778  0.39379  0.88450  Biso   1.000  O
  H244     1.0000 0.27063  0.30871  0.89459  Biso   1.000  H
  C149     1.0000 0.39110  0.28292  0.84861  Biso   1.000  C
  O110     1.0000 0.39102  0.11928  0.78489  Biso   1.000  O
  H245     1.0000 0.26978  0.05769  0.77841  Biso   1.000  H
  H246     1.0000 0.29747  0.09982  0.73101  Biso   1.000  H
  C150     1.0000 0.03008  0.02039  0.76988  Biso   1.000  C
  H247     1.0000 0.03131  0.39820  0.81319  Biso   1.000  H
  O111     1.0000 0.13104  0.50540  0.90569  Biso   1.000  O
  C151     1.0000 0.29053  0.43930  0.91014  Biso   1.000  C
  H248     1.0000 0.23122  0.49419  0.85181  Biso   1.000  H
  O112     1.0000 0.42943  0.24172  0.88880  Biso   1.000  O
  H249     1.0000 0.36233  0.25189  0.82379  Biso   1.000  H
  H250     1.0000 0.44802  0.31011  0.83439  Biso   1.000  H
  H251     1.0000 0.38678  0.12322  0.81451  Biso   1.000  H
  H252     1.0000 0.02213  0.02931  0.73499  Biso   1.000  H
  C152     1.0000 0.92673  0.00119  0.79001  Biso   1.000  C
  O113     1.0000 0.10319  0.96638  0.77639  Biso   1.000  O
  H253     1.0000 0.07288  0.50628  0.89250  Biso   1.000  H
  O114     1.0000 0.24688  0.40350  0.94932  Biso   1.000  O
  H254     1.0000 0.33033  0.48028  0.92180  Biso   1.000  H
  H255     1.0000 0.43066  0.19960  0.88119  Biso   1.000  H
  H256     1.0000 0.90028  0.96010  0.77201  Biso   1.000  H
  C153     1.0000 0.93552  0.98091  0.84200  Biso   1.000  C
  O115     1.0000 0.85408  0.05718  0.78403  Biso   1.000  O
  C154     1.0000 0.12047  0.94791  0.82656  Biso   1.000  C
  C155     1.0000 0.26932  0.42788  0.99570  Biso   1.000  C
  O116     1.0000 0.83858  0.95528  0.85917  Biso   1.000  O
  H257     1.0000 0.95457  0.02309  0.86081  Biso   1.000  H
  C156     1.0000 0.01920  0.92690  0.84861  Biso   1.000  C
  H258     1.0000 0.79863  0.04151  0.77301  Biso   1.000  H
  H259     1.0000 0.14777  0.98952  0.84381  Biso   1.000  H
  C157     1.0000 0.20477  0.89151  0.82539  Biso   1.000  C
  H260     1.0000 0.28906  0.47800  0.99431  Biso   1.000  H
  C158     1.0000 0.16898  0.42020  0.02269  Biso   1.000  C
  C159     1.0000 0.35508  0.38648  0.01942  Biso   1.000  C
  H261     1.0000 0.84706  0.93660  0.88592  Biso   1.000  H
  H262     1.0000 0.99599  0.88191  0.83450  Biso   1.000  H
  O117     1.0000 0.03178  0.91849  0.90021  Biso   1.000  O
  O118     1.0000 0.15857  0.82982  0.80455  Biso   1.000  O
  H263     1.0000 0.26400  0.90718  0.80590  Biso   1.000  H
  H264     1.0000 0.22960  0.88150  0.85789  Biso   1.000  H
  O119     1.0000 0.09162  0.46571  0.00349  Biso   1.000  O
  C160     1.0000 0.18479  0.43400  0.07671  Biso   1.000  C
  H265     1.0000 0.14438  0.37138  0.01881  Biso   1.000  H
  C161     1.0000 0.46144  0.39592  0.99310  Biso   1.000  C
  O120     1.0000 0.36742  0.40760  0.06807  Biso   1.000  O
  H266     1.0000 0.33611  0.33631  0.01881  Biso   1.000  H
  C162     1.0000 0.03648  0.84969  0.91899  Biso   1.000  C
  H267     1.0000 0.17978  0.79439  0.81910  Biso   1.000  H
  H268     1.0000 0.03733  0.46218  0.01959  Biso   1.000  H
  O121     1.0000 0.09278  0.41372  0.10363  Biso   1.000  O
  C163     1.0000 0.27850  0.39271  0.09619  Biso   1.000  C
  H269     1.0000 0.19752  0.48469  0.08161  Biso   1.000  H
  H270     1.0000 0.45488  0.37880  0.95999  Biso   1.000  H
  H271     1.0000 0.47887  0.44578  0.99179  Biso   1.000  H
  N7       1.0000 0.54689  0.35722  0.01778  Biso   1.000  N
  C164     1.0000 0.95187  0.84321  0.95669  Biso   1.000  C
  O122     1.0000 0.13458  0.83859  0.94100  Biso   1.000  O
  H272     1.0000 0.02522  0.81498  0.89310  Biso   1.000  H
  H273     1.0000 0.10851  0.38290  0.12351  Biso   1.000  H
  O123     1.0000 0.25243  0.32111  0.09470  Biso   1.000  O
  H274     1.0000 0.29176  0.40671  0.12991  Biso   1.000  H
  C165     1.0000 0.62340  0.32920  0.98279  Biso   1.000  C
  C166     1.0000 0.60188  0.40142  0.05309  Biso   1.000  C
  O124     1.0000 0.85431  0.85800  0.93585  Biso   1.000  O
  H275     1.0000 0.95133  0.79459  0.96910  Biso   1.000  H
  C167     1.0000 0.97370  0.89312  0.99812  Biso   1.000  C
  C168     1.0000 0.15988  0.88762  0.97859  Biso   1.000  C
  C169     1.0000 0.27726  0.28069  0.13684  Biso   1.000  C
  H276     1.0000 0.65541  0.36801  0.96511  Biso   1.000  H
  H277     1.0000 0.58769  0.29890  0.95960  Biso   1.000  H
  C170     1.0000 0.70723  0.28769  0.00850  Biso   1.000  C
  H278     1.0000 0.55183  0.41958  0.07660  Biso   1.000  H
  H279     1.0000 0.63389  0.44142  0.03670  Biso   1.000  H
  C171     1.0000 0.68433  0.36002  0.07849  Biso   1.000  C
  H280     1.0000 0.83889  0.82629  0.91661  Biso   1.000  H
  H281     1.0000 0.97170  0.94168  0.98570  Biso   1.000  H
  O125     1.0000 0.89380  0.88560  0.03361  Biso   1.000  O
  C172     1.0000 0.07998  0.87989  0.01942  Biso   1.000  C
  H282     1.0000 0.15579  0.93582  0.96561  Biso   1.000  H
  C173     1.0000 0.27071  0.87382  0.99548  Biso   1.000  C
  C174     1.0000 0.17932  0.25651  0.16142  Biso   1.000  C
  H283     1.0000 0.31822  0.31000  0.15932  Biso   1.000  H
  C175     1.0000 0.34344  0.21978  0.12041  Biso   1.000  C
  H284     1.0000 0.75837  0.27031  0.98531  Biso   1.000  H
  N8       1.0000 0.75829  0.33382  0.04371  Biso   1.000  N
  H285     1.0000 0.67600  0.24738  0.02489  Biso   1.000  H
  H286     1.0000 0.72011  0.38990  0.10199  Biso   1.000  H
  H287     1.0000 0.65232  0.32079  0.09580  Biso   1.000  H
  H288     1.0000 0.90629  0.85068  0.05050  Biso   1.000  H
  O126     1.0000 0.09533  0.93208  0.05487  Biso   1.000  O
  H289     1.0000 0.08368  0.83252  0.03371  Biso   1.000  H
  H290     1.0000 0.31822  0.87481  0.96799  Biso   1.000  H
  O127     1.0000 0.27588  0.80928  0.01760  Biso   1.000  O
  H291     1.0000 0.29207  0.91040  0.01810  Biso   1.000  H
  O128     1.0000 0.12209  0.31322  0.17891  Biso   1.000  O
  C176     1.0000 0.20199  0.20551  0.20071  Biso   1.000  C
  H292     1.0000 0.13589  0.23218  0.13720  Biso   1.000  H
  O129     1.0000 0.36079  0.17168  0.16035  Biso   1.000  O
  H293     1.0000 0.30703  0.19482  0.09410  Biso   1.000  H
  C177     1.0000 0.45072  0.24281  0.10299  Biso   1.000  C
  H294     1.0000 0.80781  0.30990  0.05889  Biso   1.000  H
  C178     1.0000 0.12911  0.90931  0.10132  Biso   1.000  C
  H295     1.0000 0.26708  0.81421  0.04701  Biso   1.000  H
  H296     1.0000 0.16188  0.34679  0.18378  Biso   1.000  H
  O130     1.0000 0.11253  0.17832  0.22230  Biso   1.000  O
  C179     1.0000 0.26832  0.14652  0.18108  Biso   1.000  C
  H297     1.0000 0.24287  0.23010  0.22571  Biso   1.000  H
  O131     1.0000 0.46637  0.23358  0.05551  Biso   1.000  O
  H298     1.0000 0.46020  0.29252  0.11070  Biso   1.000  H
  H299     1.0000 0.50370  0.21630  0.12070  Biso   1.000  H
  O132     1.0000 0.23392  0.92560  0.10893  Biso   1.000  O
  H300     1.0000 0.12070  0.85779  0.10320  Biso   1.000  H
  C180     1.0000 0.06093  0.94251  0.13830  Biso   1.000  C
  H301     1.0000 0.11237  0.13490  0.21970  Biso   1.000  H
  O133     1.0000 0.20747  0.11062  0.14584  Biso   1.000  O
  H302     1.0000 0.28567  0.11368  0.20750  Biso   1.000  H
  H303     1.0000 0.47771  0.19140  0.04989  Biso   1.000  H
  C181     1.0000 0.25420  0.00000  0.10743  Biso   1.000  C
  O134     1.0000 0.95342  0.93068  0.12550  Biso   1.000  O
  H304     1.0000 0.07443  0.91948  0.16959  Biso   1.000  H
  C182     1.0000 0.08160  0.02070  0.14371  Biso   1.000  C
  C183     1.0000 0.19567  0.03492  0.14861  Biso   1.000  C
  H305     1.0000 0.22721  0.01878  0.07671  Biso   1.000  H
  C184     1.0000 0.37112  0.00892  0.10811  Biso   1.000  C
  H306     1.0000 0.91532  0.94168  0.14851  Biso   1.000  H
  O135     1.0000 0.02699  0.04908  0.18289  Biso   1.000  O
  H307     1.0000 0.05669  0.04431  0.11419  Biso   1.000  H
  H308     1.0000 0.22173  0.01728  0.17980  Biso   1.000  H
  O136     1.0000 0.41293  0.98371  0.15238  Biso   1.000  O
  H309     1.0000 0.40197  0.98288  0.08129  Biso   1.000  H
  H310     1.0000 0.38871  0.05852  0.10420  Biso   1.000  H
  H311     1.0000 0.96360  0.04950  0.17681  Biso   1.000  H
  H312     1.0000 0.43267  0.94251  0.14890  Biso   1.000  H
