data_image0
_cell_length_a       12.938
_cell_length_b       14.613
_cell_length_c       25.703
_cell_angle_alpha    88.61
_cell_angle_beta     89.88
_cell_angle_gamma    76.15

_symmetry_space_group_name_H-M    "P 1"
_symmetry_int_tables_number       1

loop_
  _symmetry_equiv_pos_as_xyz
  'x, y, z'

loop_
  _atom_site_label
  _atom_site_occupancy
  _atom_site_fract_x
  _atom_site_fract_y
  _atom_site_fract_z
  _atom_site_thermal_displace_type
  _atom_site_B_iso_or_equiv
  _atom_site_type_symbol
  N1       1.0000 0.88459  0.26798  0.16349  Biso   1.000  N
  C1       1.0000 0.78239  0.32403  0.14730  Biso   1.000  C
  C2       1.0000 0.89440  0.18300  0.18860  Biso   1.000  C
  C3       1.0000 0.97611  0.30501  0.17100  Biso   1.000  C
  H1       1.0000 0.76712  0.38424  0.16591  Biso   1.000  H
  H2       1.0000 0.72719  0.29019  0.15699  Biso   1.000  H
  N2       1.0000 0.77628  0.34435  0.09122  Biso   1.000  N
  N3       1.0000 0.88457  0.26805  0.16349  Biso   1.000  N
  N4       1.0000 0.99330  0.15534  0.20988  Biso   1.000  N
  N5       1.0000 0.99330  0.15534  0.20992  Biso   1.000  N
  O1       1.0000 0.82568  0.13835  0.19241  Biso   1.000  O
  H3       1.0000 0.95829  0.36371  0.19171  Biso   1.000  H
  N6       1.0000 0.03170  0.31879  0.12391  Biso   1.000  N
  C4       1.0000 0.05540  0.22453  0.20082  Biso   1.000  C
  C5       1.0000 0.70250  0.31840  0.06130  Biso   1.000  C
  C6       1.0000 0.81023  0.42154  0.06702  Biso   1.000  C
  C7       1.0000 0.02303  0.08251  0.24861  Biso   1.000  C
  C8       1.0000 0.00472  0.40081  0.09099  Biso   1.000  C
  C9       1.0000 0.12902  0.25508  0.12072  Biso   1.000  C
  C10      1.0000 0.12900  0.25515  0.12072  Biso   1.000  C
  H4       1.0000 0.08210  0.24591  0.23370  Biso   1.000  H
  N7       1.0000 0.13973  0.19423  0.16248  Biso   1.000  N
  N8       1.0000 0.13973  0.19423  0.16252  Biso   1.000  N
  N9       1.0000 0.69533  0.36392  0.01541  Biso   1.000  N
  O2       1.0000 0.65043  0.26034  0.07519  Biso   1.000  O
  O3       1.0000 0.65043  0.26034  0.07523  Biso   1.000  O
  N10      1.0000 0.92372  0.39967  0.05312  Biso   1.000  N
  H5       1.0000 0.78999  0.47952  0.08823  Biso   1.000  H
  C11      1.0000 0.75376  0.43571  0.01452  Biso   1.000  C
  N11      1.0000 0.92370  0.39974  0.05312  Biso   1.000  N
  H6       1.0000 0.95903  0.06035  0.25872  Biso   1.000  H
  H7       1.0000 0.95911  0.06035  0.25872  Biso   1.000  H
  N12      1.0000 0.10468  0.00260  0.23242  Biso   1.000  N
  H8       1.0000 0.04841  0.10911  0.27982  Biso   1.000  H
  H9       1.0000 0.98027  0.45658  0.11290  Biso   1.000  H
  H10      1.0000 0.98033  0.45665  0.11290  Biso   1.000  H
  H11      1.0000 0.06960  0.40812  0.07250  Biso   1.000  H
  O4       1.0000 0.19150  0.25321  0.08492  Biso   1.000  O
  C12      1.0000 0.24427  0.14065  0.17879  Biso   1.000  C
  C13      1.0000 0.60594  0.36947  0.98070  Biso   1.000  C
  C14      1.0000 0.93687  0.40500  0.00121  Biso   1.000  C
  N13      1.0000 0.84053  0.42038  0.97719  Biso   1.000  N
  H12      1.0000 0.70581  0.50017  0.01039  Biso   1.000  H
  H13      1.0000 0.70579  0.50024  0.01039  Biso   1.000  H
  C15      1.0000 0.08367  0.91401  0.22740  Biso   1.000  C
  C16      1.0000 0.21657  0.00072  0.23179  Biso   1.000  C
  N14      1.0000 0.24970  0.04130  0.18451  Biso   1.000  N
  H14      1.0000 0.29741  0.15033  0.15271  Biso   1.000  H
  H15      1.0000 0.26279  0.16453  0.21241  Biso   1.000  H
  H16      1.0000 0.56693  0.43634  0.97630  Biso   1.000  H
  H17      1.0000 0.55674  0.33478  0.99689  Biso   1.000  H
  N15      1.0000 0.63629  0.33174  0.93042  Biso   1.000  N
  H18      1.0000 0.55674  0.33478  0.99693  Biso   1.000  H
  N16      1.0000 0.63637  0.33174  0.93042  Biso   1.000  N
  O5       1.0000 0.02341  0.39427  0.97941  Biso   1.000  O
  C17      1.0000 0.82752  0.44819  0.92220  Biso   1.000  C
  O6       1.0000 0.99851  0.89621  0.22981  Biso   1.000  O
  N17      1.0000 0.18005  0.85329  0.21872  Biso   1.000  N
  N18      1.0000 0.17995  0.85336  0.21872  Biso   1.000  N
  C18      1.0000 0.26875  0.89442  0.22732  Biso   1.000  C
  C19      1.0000 0.26883  0.89442  0.22732  Biso   1.000  C
  H19      1.0000 0.23977  0.02792  0.26378  Biso   1.000  H
  H20      1.0000 0.23977  0.02792  0.26382  Biso   1.000  H
  C20      1.0000 0.32988  0.97611  0.16050  Biso   1.000  C
  C21      1.0000 0.67356  0.38463  0.88850  Biso   1.000  C
  C22      1.0000 0.60119  0.25745  0.91138  Biso   1.000  C
  C23      1.0000 0.67354  0.38470  0.88850  Biso   1.000  C
  C24      1.0000 0.60119  0.25745  0.91142  Biso   1.000  C
  C25      1.0000 0.60127  0.25745  0.91138  Biso   1.000  C
  C26      1.0000 0.60127  0.25745  0.91142  Biso   1.000  C
  H21      1.0000 0.77824  0.51128  0.91870  Biso   1.000  H
  N19      1.0000 0.78612  0.38133  0.89282  Biso   1.000  N
  H22      1.0000 0.89721  0.45249  0.90773  Biso   1.000  H
  C27      1.0000 0.19227  0.75170  0.22249  Biso   1.000  C
  H23      1.0000 0.30823  0.86824  0.25989  Biso   1.000  H
  H24      1.0000 0.30831  0.86824  0.25989  Biso   1.000  H
  N20      1.0000 0.33950  0.89126  0.18420  Biso   1.000  N
  O7       1.0000 0.38162  0.99371  0.12279  Biso   1.000  O
  O8       1.0000 0.38162  0.99371  0.12282  Biso   1.000  O
  C28      1.0000 0.66535  0.32855  0.84020  Biso   1.000  C
  H25      1.0000 0.62942  0.45074  0.88519  Biso   1.000  H
  O9       1.0000 0.56010  0.20461  0.93800  Biso   1.000  O
  N21      1.0000 0.61418  0.25594  0.85962  Biso   1.000  N
  C29      1.0000 0.84354  0.33193  0.85453  Biso   1.000  C
  N22      1.0000 0.22358  0.70579  0.17529  Biso   1.000  N
  H26      1.0000 0.12385  0.73873  0.23370  Biso   1.000  H
  N23      1.0000 0.22358  0.70579  0.17532  Biso   1.000  N
  H27      1.0000 0.24624  0.72519  0.24962  Biso   1.000  H
  H28      1.0000 0.12393  0.73873  0.23370  Biso   1.000  H
  C30      1.0000 0.42152  0.80790  0.17252  Biso   1.000  C
  N24      1.0000 0.77632  0.29428  0.82471  Biso   1.000  N
  H29      1.0000 0.62204  0.36884  0.81222  Biso   1.000  H
  C31      1.0000 0.57838  0.19217  0.82752  Biso   1.000  C
  O10      1.0000 0.93815  0.32058  0.84659  Biso   1.000  O
  O11      1.0000 0.93815  0.32058  0.84663  Biso   1.000  O
  C32      1.0000 0.15636  0.66814  0.14551  Biso   1.000  C
  C33      1.0000 0.33463  0.67152  0.15980  Biso   1.000  C
  N25      1.0000 0.38580  0.74413  0.14042  Biso   1.000  N
  H30      1.0000 0.48115  0.82750  0.15501  Biso   1.000  H
  H31      1.0000 0.44901  0.77494  0.20552  Biso   1.000  H
  C34      1.0000 0.80763  0.24837  0.77751  Biso   1.000  C
  N26      1.0000 0.66038  0.10888  0.81580  Biso   1.000  N
  H32      1.0000 0.51868  0.17257  0.84499  Biso   1.000  H
  H33      1.0000 0.55090  0.22513  0.79451  Biso   1.000  H
  N27      1.0000 0.66046  0.10888  0.81580  Biso   1.000  N
  H34      1.0000 0.51876  0.17257  0.84499  Biso   1.000  H
  H35      1.0000 0.55098  0.22513  0.79451  Biso   1.000  H
  N28      1.0000 0.21378  0.61874  0.10722  Biso   1.000  N
  O12      1.0000 0.06183  0.67949  0.15341  Biso   1.000  O
  H36      1.0000 0.37787  0.63123  0.18782  Biso   1.000  H
  C35      1.0000 0.32642  0.61544  0.11150  Biso   1.000  C
  C36      1.0000 0.39871  0.74262  0.08862  Biso   1.000  C
  N29      1.0000 0.81994  0.14678  0.78128  Biso   1.000  N
  H37      1.0000 0.87605  0.26134  0.76630  Biso   1.000  H
  N30      1.0000 0.81994  0.14678  0.78132  Biso   1.000  N
  H38      1.0000 0.75374  0.27487  0.75042  Biso   1.000  H
  C37      1.0000 0.73115  0.10565  0.77268  Biso   1.000  C
  C38      1.0000 0.67003  0.02396  0.83950  Biso   1.000  C
  C39      1.0000 0.73115  0.10565  0.77272  Biso   1.000  C
  C40      1.0000 0.17239  0.55188  0.07780  Biso   1.000  C
  H39      1.0000 0.37048  0.54933  0.11481  Biso   1.000  H
  N31      1.0000 0.36354  0.66833  0.06962  Biso   1.000  N
  N32      1.0000 0.36362  0.66833  0.06962  Biso   1.000  N
  O13      1.0000 0.43978  0.79553  0.06200  Biso   1.000  O
  C41      1.0000 0.91623  0.08606  0.77260  Biso   1.000  C
  C42      1.0000 0.78333  0.99935  0.76821  Biso   1.000  C
  H40      1.0000 0.69167  0.13183  0.74011  Biso   1.000  H
  H41      1.0000 0.69159  0.13183  0.74011  Biso   1.000  H
  N33      1.0000 0.75021  0.95877  0.81549  Biso   1.000  N
  O14      1.0000 0.61836  0.00636  0.87721  Biso   1.000  O
  H42      1.0000 0.10267  0.54765  0.09231  Biso   1.000  H
  H43      1.0000 0.22174  0.48879  0.08130  Biso   1.000  H
  N34      1.0000 0.15946  0.57970  0.02281  Biso   1.000  N
  C43      1.0000 0.39397  0.63060  0.01930  Biso   1.000  C
  C44      1.0000 0.39405  0.63060  0.01930  Biso   1.000  C
  N35      1.0000 0.89522  0.99747  0.76758  Biso   1.000  N
  N36      1.0000 0.89522  0.99747  0.76762  Biso   1.000  N
  O15      1.0000 0.00147  0.10386  0.77019  Biso   1.000  O
  H44      1.0000 0.76013  0.97215  0.73622  Biso   1.000  H
  C45      1.0000 0.75561  0.85949  0.82121  Biso   1.000  C
  C46      1.0000 0.24623  0.56436  0.98548  Biso   1.000  C
  C47      1.0000 0.06311  0.59507  0.99879  Biso   1.000  C
  C48      1.0000 0.24623  0.56436  0.98552  Biso   1.000  C
  N37      1.0000 0.30465  0.63615  0.98459  Biso   1.000  N
  N38      1.0000 0.30465  0.63615  0.98463  Biso   1.000  N
  H45      1.0000 0.43298  0.56373  0.02370  Biso   1.000  H
  H46      1.0000 0.44324  0.66529  0.00311  Biso   1.000  H
  C49      1.0000 0.97695  0.91756  0.75139  Biso   1.000  C
  N39      1.0000 0.86025  0.80584  0.83752  Biso   1.000  N
  H47      1.0000 0.73711  0.83554  0.78759  Biso   1.000  H
  H48      1.0000 0.73711  0.83554  0.78763  Biso   1.000  H
  H49      1.0000 0.70257  0.84973  0.84733  Biso   1.000  H
  H50      1.0000 0.29409  0.49990  0.98961  Biso   1.000  H
  C50      1.0000 0.18973  0.57860  0.93302  Biso   1.000  C
  O16      1.0000 0.97649  0.60580  0.02059  Biso   1.000  O
  O17      1.0000 0.97649  0.60580  0.02063  Biso   1.000  O
  N40      1.0000 0.07619  0.60040  0.94692  Biso   1.000  N
  C51      1.0000 0.29741  0.68167  0.93870  Biso   1.000  C
  H51      1.0000 0.95158  0.89096  0.72018  Biso   1.000  H
  H52      1.0000 0.95158  0.89096  0.72022  Biso   1.000  H
  N41      1.0000 0.00660  0.84473  0.79012  Biso   1.000  N
  H53      1.0000 0.04087  0.93972  0.74131  Biso   1.000  H
  H54      1.0000 0.04078  0.93979  0.74131  Biso   1.000  H
  N42      1.0000 0.00668  0.84473  0.79012  Biso   1.000  N
  H55      1.0000 0.04085  0.93979  0.74131  Biso   1.000  H
  C52      1.0000 0.94450  0.77554  0.79918  Biso   1.000  C
  C53      1.0000 0.94450  0.77554  0.79922  Biso   1.000  C
  C54      1.0000 0.94458  0.77554  0.79918  Biso   1.000  C
  C55      1.0000 0.87096  0.74499  0.87932  Biso   1.000  C
  N43      1.0000 0.22360  0.65579  0.90882  Biso   1.000  N
  H56      1.0000 0.20992  0.52055  0.91181  Biso   1.000  H
  C56      1.0000 0.99519  0.59926  0.90901  Biso   1.000  C
  C57      1.0000 0.99526  0.59926  0.90901  Biso   1.000  C
  O18      1.0000 0.34955  0.73973  0.92481  Biso   1.000  O
  O19      1.0000 0.34953  0.73980  0.92481  Biso   1.000  O
  C58      1.0000 0.10551  0.81707  0.81140  Biso   1.000  C
  H57      1.0000 0.91788  0.75416  0.76630  Biso   1.000  H
  C59      1.0000 0.02380  0.69507  0.82900  Biso   1.000  C
  N44      1.0000 0.96820  0.68128  0.87609  Biso   1.000  N
  O20      1.0000 0.80840  0.74686  0.91512  Biso   1.000  O
  N45      1.0000 0.96820  0.68128  0.87612  Biso   1.000  N
  C60      1.0000 0.21751  0.67604  0.85270  Biso   1.000  C
  H58      1.0000 0.93030  0.59195  0.92750  Biso   1.000  H
  H59      1.0000 0.01963  0.54349  0.88710  Biso   1.000  H
  O21      1.0000 0.17420  0.86179  0.80759  Biso   1.000  O
  N46      1.0000 0.11532  0.73209  0.83651  Biso   1.000  N
  H60      1.0000 0.04161  0.63636  0.80829  Biso   1.000  H
  H61      1.0000 0.23279  0.61583  0.83409  Biso   1.000  H
  H62      1.0000 0.27271  0.70988  0.84301  Biso   1.000  H
  H63      1.0000 0.23284  0.61590  0.83409  Biso   1.000  H
  C61      1.0000 0.68698  0.74652  0.28659  Biso   1.000  C
  N47      1.0000 0.71712  0.70005  0.33640  Biso   1.000  N
  N48      1.0000 0.71719  0.70005  0.33640  Biso   1.000  N
  H64      1.0000 0.61730  0.73571  0.27620  Biso   1.000  H
  N49      1.0000 0.67932  0.84663  0.28601  Biso   1.000  N
  H65      1.0000 0.73992  0.71724  0.26028  Biso   1.000  H
  C62      1.0000 0.64671  0.67124  0.36789  Biso   1.000  C
  C63      1.0000 0.82561  0.66641  0.35431  Biso   1.000  C
  C64      1.0000 0.58629  0.91045  0.27410  Biso   1.000  C
  C65      1.0000 0.77081  0.88604  0.27468  Biso   1.000  C
  N50      1.0000 0.70066  0.62341  0.41019  Biso   1.000  N
  O22      1.0000 0.54995  0.68419  0.36042  Biso   1.000  O
  O23      1.0000 0.55001  0.68426  0.36042  Biso   1.000  O
  C66      1.0000 0.81287  0.61355  0.40688  Biso   1.000  C
  N51      1.0000 0.87894  0.73935  0.37042  Biso   1.000  N
  H66      1.0000 0.86945  0.62300  0.32882  Biso   1.000  H
  O24      1.0000 0.49780  0.89330  0.27309  Biso   1.000  O
  N52      1.0000 0.60870  0.99580  0.26460  Biso   1.000  N
  N53      1.0000 0.84126  0.88296  0.31881  Biso   1.000  N
  H67      1.0000 0.81051  0.85691  0.24339  Biso   1.000  H
  C67      1.0000 0.72022  0.99014  0.26519  Biso   1.000  C
  C68      1.0000 0.65493  0.56193  0.44401  Biso   1.000  C
  C69      1.0000 0.65500  0.56193  0.44401  Biso   1.000  C
  H68      1.0000 0.85338  0.54601  0.40720  Biso   1.000  H
  N54      1.0000 0.85411  0.66883  0.44452  Biso   1.000  N
  C70      1.0000 0.89374  0.73842  0.42160  Biso   1.000  C
  C71      1.0000 0.91867  0.80079  0.33438  Biso   1.000  C
  C72      1.0000 0.52992  0.07454  0.24378  Biso   1.000  C
  C73      1.0000 0.83257  0.96881  0.33940  Biso   1.000  C
  N55      1.0000 0.75565  0.03275  0.31041  Biso   1.000  N
  H69      1.0000 0.74487  0.01438  0.23179  Biso   1.000  H
  N56      1.0000 0.64215  0.58921  0.49640  Biso   1.000  N
  H70      1.0000 0.70115  0.49734  0.44312  Biso   1.000  H
  H71      1.0000 0.58456  0.55967  0.42988  Biso   1.000  H
  C74      1.0000 0.88299  0.63356  0.49608  Biso   1.000  C
  O25      1.0000 0.93728  0.79143  0.44530  Biso   1.000  O
  H72      1.0000 0.97897  0.81993  0.35100  Biso   1.000  H
  H73      1.0000 0.94617  0.76503  0.30309  Biso   1.000  H
  H74      1.0000 0.46534  0.05280  0.23499  Biso   1.000  H
  H75      1.0000 0.55730  0.09698  0.21121  Biso   1.000  H
  N57      1.0000 0.50042  0.15222  0.27842  Biso   1.000  N
  H76      1.0000 0.46542  0.05280  0.23499  Biso   1.000  H
  O26      1.0000 0.88390  0.98765  0.37540  Biso   1.000  O
  C75      1.0000 0.74955  0.13333  0.31189  Biso   1.000  C
  C76      1.0000 0.54718  0.59934  0.52239  Biso   1.000  C
  C77      1.0000 0.73229  0.56804  0.53189  Biso   1.000  C
  N58      1.0000 0.79179  0.64072  0.53010  Biso   1.000  N
  H77      1.0000 0.93132  0.66926  0.51111  Biso   1.000  H
  H78      1.0000 0.93139  0.66926  0.51111  Biso   1.000  H
  H79      1.0000 0.92218  0.56667  0.49461  Biso   1.000  H
  C78      1.0000 0.40140  0.17938  0.29862  Biso   1.000  C
  C79      1.0000 0.56226  0.21838  0.28690  Biso   1.000  C
  C80      1.0000 0.40139  0.17945  0.29862  Biso   1.000  C
  C81      1.0000 0.56232  0.21845  0.28690  Biso   1.000  C
  N59      1.0000 0.64648  0.18904  0.32551  Biso   1.000  N
  H80      1.0000 0.80228  0.14404  0.33749  Biso   1.000  H
  H81      1.0000 0.76942  0.15502  0.27741  Biso   1.000  H
  O27      1.0000 0.46045  0.61140  0.50142  Biso   1.000  O
  N60      1.0000 0.56673  0.59598  0.57431  Biso   1.000  N
  C82      1.0000 0.68043  0.57803  0.58641  Biso   1.000  C
  H82      1.0000 0.77886  0.50364  0.52679  Biso   1.000  H
  C83      1.0000 0.78410  0.68733  0.57571  Biso   1.000  C
  O28      1.0000 0.33095  0.13494  0.29791  Biso   1.000  O
  N61      1.0000 0.39169  0.26471  0.32130  Biso   1.000  N
  H83      1.0000 0.59081  0.23854  0.25339  Biso   1.000  H
  C84      1.0000 0.48668  0.30085  0.31220  Biso   1.000  C
  C85      1.0000 0.63305  0.25153  0.36439  Biso   1.000  C
  C86      1.0000 0.48780  0.59913  0.61291  Biso   1.000  C
  C87      1.0000 0.48788  0.59913  0.61291  Biso   1.000  C
  N62      1.0000 0.71252  0.66028  0.60719  Biso   1.000  N
  H84      1.0000 0.70569  0.52002  0.60879  Biso   1.000  H
  O29      1.0000 0.83214  0.74791  0.58598  Biso   1.000  O
  C88      1.0000 0.29138  0.32154  0.33831  Biso   1.000  C
  N63      1.0000 0.53859  0.31570  0.35890  Biso   1.000  N
  H85      1.0000 0.47112  0.35820  0.28889  Biso   1.000  H
  O30      1.0000 0.69855  0.24972  0.40031  Biso   1.000  O
  O31      1.0000 0.69863  0.24972  0.40031  Biso   1.000  O
  N64      1.0000 0.46132  0.68436  0.64109  Biso   1.000  N
  H86      1.0000 0.51292  0.54586  0.63802  Biso   1.000  H
  H87      1.0000 0.42257  0.58994  0.59610  Biso   1.000  H
  C89      1.0000 0.70852  0.67851  0.66172  Biso   1.000  C
  C90      1.0000 0.70858  0.67858  0.66172  Biso   1.000  C
  N65      1.0000 0.28737  0.33985  0.39280  Biso   1.000  N
  H88      1.0000 0.27625  0.38239  0.31870  Biso   1.000  H
  H89      1.0000 0.27633  0.38239  0.31870  Biso   1.000  H
  H90      1.0000 0.23462  0.28922  0.32979  Biso   1.000  H
  C91      1.0000 0.51211  0.40093  0.38711  Biso   1.000  C
  C92      1.0000 0.36685  0.74853  0.63560  Biso   1.000  C
  C93      1.0000 0.51321  0.69928  0.68779  Biso   1.000  C
  C94      1.0000 0.51328  0.69928  0.68779  Biso   1.000  C
  N66      1.0000 0.60822  0.73535  0.67869  Biso   1.000  N
  H91      1.0000 0.72366  0.61767  0.68129  Biso   1.000  H
  H92      1.0000 0.76537  0.71084  0.67020  Biso   1.000  H
  C95      1.0000 0.21589  0.31273  0.42428  Biso   1.000  C
  C96      1.0000 0.31948  0.42202  0.41362  Biso   1.000  C
  N67      1.0000 0.43316  0.40415  0.42568  Biso   1.000  N
  H93      1.0000 0.57733  0.41012  0.40389  Biso   1.000  H
  H94      1.0000 0.48699  0.45420  0.36201  Biso   1.000  H
  H95      1.0000 0.57741  0.41012  0.40389  Biso   1.000  H
  O32      1.0000 0.30136  0.75034  0.59968  Biso   1.000  O
  N68      1.0000 0.35343  0.81102  0.67448  Biso   1.000  N
  C97      1.0000 0.43764  0.78168  0.71309  Biso   1.000  C
  H96      1.0000 0.52886  0.64186  0.71110  Biso   1.000  H
  C98      1.0000 0.59850  0.82068  0.70141  Biso   1.000  C
  C99      1.0000 0.59858  0.82068  0.70141  Biso   1.000  C
  N69      1.0000 0.20820  0.35934  0.46989  Biso   1.000  N
  O33      1.0000 0.16777  0.25215  0.41401  Biso   1.000  O
  C100     1.0000 0.26770  0.43201  0.46810  Biso   1.000  C
  H97      1.0000 0.29430  0.48004  0.39120  Biso   1.000  H
  C101     1.0000 0.45273  0.40072  0.47760  Biso   1.000  C
  C102     1.0000 0.45281  0.40072  0.47760  Biso   1.000  C
  C103     1.0000 0.25035  0.86673  0.68810  Biso   1.000  C
  N70      1.0000 0.49956  0.84783  0.72161  Biso   1.000  N
  H98      1.0000 0.40908  0.76158  0.74660  Biso   1.000  H
  H99      1.0000 0.40916  0.76158  0.74660  Biso   1.000  H
  O34      1.0000 0.66896  0.86512  0.70211  Biso   1.000  O
  C104     1.0000 0.11700  0.36650  0.50391  Biso   1.000  C
  N71      1.0000 0.35776  0.41085  0.50360  Biso   1.000  N
  H100     1.0000 0.22105  0.49642  0.47320  Biso   1.000  H
  H101     1.0000 0.22113  0.49642  0.47320  Biso   1.000  H
  O35      1.0000 0.53946  0.38865  0.49861  Biso   1.000  O
  N72      1.0000 0.24423  0.96738  0.68958  Biso   1.000  N
  H102     1.0000 0.19763  0.85602  0.66250  Biso   1.000  H
  H103     1.0000 0.23057  0.84504  0.72258  Biso   1.000  H
  C105     1.0000 0.47007  0.92552  0.75621  Biso   1.000  C
  C106     1.0000 0.47005  0.92559  0.75621  Biso   1.000  C
  N73      1.0000 0.14588  0.33123  0.55551  Biso   1.000  N
  H104     1.0000 0.06859  0.33080  0.48888  Biso   1.000  H
  H105     1.0000 0.07779  0.43346  0.50539  Biso   1.000  H
  H106     1.0000 0.06857  0.33087  0.48888  Biso   1.000  H
  C107     1.0000 0.34498  0.43813  0.55602  Biso   1.000  C
  C108     1.0000 0.27977  0.00992  0.73481  Biso   1.000  C
  C109     1.0000 0.16734  0.03125  0.66059  Biso   1.000  C
  H107     1.0000 0.44261  0.90307  0.78878  Biso   1.000  H
  H108     1.0000 0.53449  0.94726  0.76501  Biso   1.000  H
  H109     1.0000 0.53457  0.94726  0.76501  Biso   1.000  H
  N74      1.0000 0.39129  0.00426  0.73539  Biso   1.000  N
  C110     1.0000 0.10617  0.26163  0.57839  Biso   1.000  C
  C111     1.0000 0.18704  0.38651  0.59311  Biso   1.000  C
  C112     1.0000 0.18712  0.38651  0.59311  Biso   1.000  C
  N75      1.0000 0.29925  0.37665  0.58980  Biso   1.000  N
  H110     1.0000 0.41532  0.44046  0.57011  Biso   1.000  H
  H111     1.0000 0.29876  0.50272  0.55691  Biso   1.000  H
  H112     1.0000 0.41540  0.44046  0.57011  Biso   1.000  H
  H113     1.0000 0.25504  0.98567  0.76820  Biso   1.000  H
  C113     1.0000 0.22917  0.11402  0.72531  Biso   1.000  C
  N76      1.0000 0.15863  0.11717  0.68122  Biso   1.000  N
  O36      1.0000 0.11607  0.01248  0.62459  Biso   1.000  O
  C114     1.0000 0.41368  0.08968  0.72589  Biso   1.000  C
  N77      1.0000 0.12095  0.26077  0.62961  Biso   1.000  N
  O37      1.0000 0.06263  0.20863  0.55469  Biso   1.000  O
  O38      1.0000 0.06271  0.20863  0.55469  Biso   1.000  O
  C115     1.0000 0.17437  0.33364  0.64568  Biso   1.000  C
  H114     1.0000 0.14660  0.45405  0.59279  Biso   1.000  H
  C116     1.0000 0.35327  0.32882  0.63210  Biso   1.000  C
  N78      1.0000 0.32067  0.15343  0.71398  Biso   1.000  N
  H115     1.0000 0.18948  0.14315  0.75660  Biso   1.000  H
  C117     1.0000 0.08124  0.19927  0.66561  Biso   1.000  C
  O39      1.0000 0.50219  0.10676  0.72690  Biso   1.000  O
  N79      1.0000 0.28270  0.30008  0.66359  Biso   1.000  N
  N80      1.0000 0.28277  0.30008  0.66359  Biso   1.000  N
  H116     1.0000 0.13045  0.37706  0.67121  Biso   1.000  H
  O40      1.0000 0.44996  0.31587  0.63961  Biso   1.000  O
  C118     1.0000 0.31293  0.25354  0.71340  Biso   1.000  C
  C119     1.0000 0.31300  0.25354  0.71340  Biso   1.000  C
  H117     1.0000 0.02094  0.18013  0.64899  Biso   1.000  H
  H118     1.0000 0.05374  0.23503  0.69690  Biso   1.000  H
  H119     1.0000 0.26007  0.28282  0.73971  Biso   1.000  H
  H120     1.0000 0.26005  0.28289  0.73971  Biso   1.000  H
  H121     1.0000 0.38269  0.26435  0.72379  Biso   1.000  H
