data_image0
_cell_length_a       36.416
_cell_length_b       36.416
_cell_length_c       36.416
_cell_angle_alpha    90
_cell_angle_beta     90
_cell_angle_gamma    90

_symmetry_space_group_name_H-M    "P 1"
_symmetry_int_tables_number       1

loop_
  _symmetry_equiv_pos_as_xyz
  'x, y, z'

loop_
  _atom_site_label
  _atom_site_occupancy
  _atom_site_fract_x
  _atom_site_fract_y
  _atom_site_fract_z
  _atom_site_thermal_displace_type
  _atom_site_B_iso_or_equiv
  _atom_site_type_symbol
  C1       1.0000 0.71320  0.60067  0.53534  Biso   1.000  C
  C2       1.0000 0.72246  0.60440  0.49574  Biso   1.000  C
  H1       1.0000 0.69999  0.57760  0.53930  Biso   1.000  H
  H2       1.0000 0.69769  0.62129  0.54289  Biso   1.000  H
  H3       1.0000 0.73589  0.60070  0.54990  Biso   1.000  H
  C3       1.0000 0.74267  0.64057  0.48921  Biso   1.000  C
  H4       1.0000 0.69969  0.60380  0.48089  Biso   1.000  H
  H5       1.0000 0.73819  0.58359  0.48800  Biso   1.000  H
  C4       1.0000 0.75456  0.64980  0.44793  Biso   1.000  C
  H6       1.0000 0.76510  0.64060  0.50459  Biso   1.000  H
  H7       1.0000 0.72680  0.66078  0.49811  Biso   1.000  H
  C5       1.0000 0.79097  0.63230  0.43983  Biso   1.000  C
  C6       1.0000 0.76332  0.69030  0.44409  Biso   1.000  C
  C7       1.0000 0.72792  0.63664  0.41743  Biso   1.000  C
  C8       1.0000 0.79863  0.59543  0.43967  Biso   1.000  C
  C9       1.0000 0.81774  0.65864  0.43220  Biso   1.000  C
  C10      1.0000 0.74113  0.72136  0.45046  Biso   1.000  C
  C11      1.0000 0.80088  0.69560  0.43530  Biso   1.000  C
  H8       1.0000 0.72660  0.60948  0.41831  Biso   1.000  H
  H9       1.0000 0.70310  0.64620  0.42300  Biso   1.000  H
  C12      1.0000 0.73775  0.64776  0.37992  Biso   1.000  C
  C13      1.0000 0.83419  0.58312  0.43253  Biso   1.000  C
  H10      1.0000 0.77968  0.57818  0.44439  Biso   1.000  H
  C14      1.0000 0.85322  0.64614  0.42377  Biso   1.000  C
  C15      1.0000 0.70244  0.72389  0.46274  Biso   1.000  C
  C16      1.0000 0.75552  0.75684  0.44843  Biso   1.000  C
  C17      1.0000 0.81527  0.73083  0.43250  Biso   1.000  C
  H11      1.0000 0.76348  0.64030  0.37508  Biso   1.000  H
  H12      1.0000 0.73660  0.67490  0.37830  Biso   1.000  H
  C18      1.0000 0.71340  0.63159  0.34990  Biso   1.000  C
  C19      1.0000 0.84345  0.54377  0.43407  Biso   1.000  C
  C20      1.0000 0.86108  0.60883  0.42369  Biso   1.000  C
  H13      1.0000 0.87198  0.66339  0.41809  Biso   1.000  H
  C21      1.0000 0.69475  0.76134  0.46988  Biso   1.000  C
  C22      1.0000 0.67435  0.69881  0.46826  Biso   1.000  C
  C23      1.0000 0.72666  0.78518  0.45947  Biso   1.000  C
  C24      1.0000 0.79166  0.76195  0.43827  Biso   1.000  C
  C25      1.0000 0.85432  0.74303  0.42459  Biso   1.000  C
  H14      1.0000 0.72188  0.64019  0.32590  Biso   1.000  H
  H15      1.0000 0.68799  0.63950  0.35380  Biso   1.000  H
  H16      1.0000 0.71469  0.60468  0.35081  Biso   1.000  H
  N1       1.0000 0.82412  0.52224  0.45356  Biso   1.000  N
  H17      1.0000 0.86380  0.53449  0.42050  Biso   1.000  H
  H18      1.0000 0.88508  0.60070  0.41751  Biso   1.000  H
  C26      1.0000 0.66163  0.77252  0.48448  Biso   1.000  C
  C27      1.0000 0.64046  0.71018  0.48100  Biso   1.000  C
  H19      1.0000 0.67838  0.67361  0.46320  Biso   1.000  H
  C28      1.0000 0.71534  0.80945  0.42698  Biso   1.000  C
  C29      1.0000 0.73871  0.80866  0.49281  Biso   1.000  C
  C30      1.0000 0.81461  0.79517  0.43316  Biso   1.000  C
  C31      1.0000 0.85094  0.78438  0.42638  Biso   1.000  C
  C32      1.0000 0.86728  0.73212  0.38571  Biso   1.000  C
  C33      1.0000 0.88170  0.73064  0.45458  Biso   1.000  C
  C34      1.0000 0.83194  0.48259  0.45219  Biso   1.000  C
  C35      1.0000 0.63445  0.74610  0.49080  Biso   1.000  C
  H20      1.0000 0.65740  0.79759  0.49009  Biso   1.000  H
  H21      1.0000 0.62110  0.69288  0.48300  Biso   1.000  H
  H22      1.0000 0.73880  0.81950  0.41759  Biso   1.000  H
  H23      1.0000 0.70689  0.79188  0.40809  Biso   1.000  H
  C36      1.0000 0.68939  0.84040  0.42429  Biso   1.000  C
  H24      1.0000 0.69890  0.82870  0.43690  Biso   1.000  H
  H25      1.0000 0.73778  0.82208  0.41831  Biso   1.000  H
  C37      1.0000 0.69840  0.79509  0.39650  Biso   1.000  C
  H26      1.0000 0.75829  0.82568  0.48470  Biso   1.000  H
  H27      1.0000 0.71760  0.82379  0.50080  Biso   1.000  H
  C38      1.0000 0.75236  0.78740  0.52499  Biso   1.000  C
  C39      1.0000 0.80723  0.83351  0.43418  Biso   1.000  C
  C40      1.0000 0.87846  0.80959  0.42058  Biso   1.000  C
  C41      1.0000 0.84282  0.74489  0.35462  Biso   1.000  C
  H28      1.0000 0.89219  0.74220  0.38178  Biso   1.000  H
  H29      1.0000 0.86918  0.70499  0.38458  Biso   1.000  H
  C42      1.0000 0.87088  0.74132  0.49371  Biso   1.000  C
  H30      1.0000 0.88420  0.70359  0.45340  Biso   1.000  H
  H31      1.0000 0.90600  0.74140  0.44909  Biso   1.000  H
  C43      1.0000 0.79720  0.46285  0.44126  Biso   1.000  C
  H32      1.0000 0.84029  0.47389  0.47660  Biso   1.000  H
  H33      1.0000 0.85158  0.47759  0.43409  Biso   1.000  H
  C44      1.0000 0.59930  0.75752  0.50678  Biso   1.000  C
  H34      1.0000 0.66539  0.83189  0.43390  Biso   1.000  H
  H35      1.0000 0.69810  0.85998  0.44099  Biso   1.000  H
  C45      1.0000 0.68308  0.85660  0.38859  Biso   1.000  C
  H36      1.0000 0.67948  0.77730  0.40460  Biso   1.000  H
  H37      1.0000 0.71680  0.78139  0.38189  Biso   1.000  H
  C46      1.0000 0.68000  0.82359  0.37159  Biso   1.000  C
  H38      1.0000 0.73319  0.76980  0.53271  Biso   1.000  H
  H39      1.0000 0.77419  0.77309  0.51749  Biso   1.000  H
  C47      1.0000 0.76219  0.81085  0.55676  Biso   1.000  C
  H40      1.0000 0.78309  0.84210  0.43920  Biso   1.000  H
  C48      1.0000 0.83458  0.85781  0.42805  Biso   1.000  C
  H41      1.0000 0.90279  0.80138  0.41589  Biso   1.000  H
  C49      1.0000 0.87088  0.84680  0.42160  Biso   1.000  C
  H42      1.0000 0.81780  0.73498  0.35830  Biso   1.000  H
  H43      1.0000 0.84120  0.77200  0.35509  Biso   1.000  H
  C50      1.0000 0.85679  0.73289  0.31807  Biso   1.000  C
  H44      1.0000 0.86789  0.76829  0.49500  Biso   1.000  H
  H45      1.0000 0.84688  0.72998  0.49970  Biso   1.000  H
  C51      1.0000 0.89864  0.72954  0.52186  Biso   1.000  C
  N2       1.0000 0.78677  0.47553  0.40490  Biso   1.000  N
  H46      1.0000 0.80138  0.43599  0.44091  Biso   1.000  H
  H47      1.0000 0.77738  0.46820  0.45908  Biso   1.000  H
  N3       1.0000 0.59507  0.78677  0.52447  Biso   1.000  N
  H48      1.0000 0.57859  0.74190  0.50360  Biso   1.000  H
  H49      1.0000 0.66550  0.87689  0.39090  Biso   1.000  H
  H50      1.0000 0.67319  0.83798  0.37190  Biso   1.000  H
  H51      1.0000 0.70628  0.86599  0.37879  Biso   1.000  H
  H52      1.0000 0.69870  0.84059  0.36209  Biso   1.000  H
  H53      1.0000 0.66169  0.83738  0.38568  Biso   1.000  H
  H54      1.0000 0.66800  0.81118  0.35100  Biso   1.000  H
  H55      1.0000 0.77098  0.79539  0.57700  Biso   1.000  H
  H56      1.0000 0.74050  0.82458  0.56489  Biso   1.000  H
  H57      1.0000 0.78158  0.82810  0.54959  Biso   1.000  H
  H58      1.0000 0.82900  0.88329  0.42811  Biso   1.000  H
  C52      1.0000 0.89919  0.87470  0.41419  Biso   1.000  C
  H59      1.0000 0.84010  0.74149  0.29880  Biso   1.000  H
  H60      1.0000 0.85819  0.70598  0.31739  Biso   1.000  H
  H61      1.0000 0.88129  0.74330  0.31398  Biso   1.000  H
  H62      1.0000 0.92350  0.73399  0.51238  Biso   1.000  H
  H63      1.0000 0.89560  0.70329  0.52699  Biso   1.000  H
  H64      1.0000 0.89499  0.74360  0.54449  Biso   1.000  H
  C53      1.0000 0.75752  0.49322  0.40070  Biso   1.000  C
  C54      1.0000 0.55871  0.79720  0.53713  Biso   1.000  C
  N4       1.0000 0.93322  0.86635  0.41301  Biso   1.000  N
  H65      1.0000 0.89200  0.89949  0.41020  Biso   1.000  H
  C55      1.0000 0.74610  0.50917  0.36555  Biso   1.000  C
  H66      1.0000 0.74190  0.49640  0.42141  Biso   1.000  H
  C56      1.0000 0.54778  0.83194  0.51738  Biso   1.000  C
  H67      1.0000 0.55909  0.80138  0.56398  Biso   1.000  H
  H68      1.0000 0.54089  0.77738  0.53180  Biso   1.000  H
  C57      1.0000 0.95796  0.89532  0.40120  Biso   1.000  C
  C58      1.0000 0.77252  0.51552  0.33834  Biso   1.000  C
  C59      1.0000 0.71018  0.51900  0.35951  Biso   1.000  C
  N5       1.0000 0.54644  0.82412  0.47776  Biso   1.000  N
  H69      1.0000 0.52340  0.84029  0.52609  Biso   1.000  H
  H70      1.0000 0.56591  0.85158  0.52238  Biso   1.000  H
  C60      1.0000 0.97572  0.88447  0.36580  Biso   1.000  C
  H71      1.0000 0.97699  0.89949  0.42020  Biso   1.000  H
  H72      1.0000 0.94409  0.91850  0.39779  Biso   1.000  H
  C61      1.0000 0.76134  0.53012  0.30522  Biso   1.000  C
  H73      1.0000 0.79759  0.50989  0.34260  Biso   1.000  H
  C62      1.0000 0.69881  0.53174  0.32563  Biso   1.000  C
  H74      1.0000 0.69288  0.51700  0.37890  Biso   1.000  H
  C63      1.0000 0.56593  0.84345  0.45623  Biso   1.000  C
  N6       1.0000 0.94741  0.87758  0.33774  Biso   1.000  N
  H75      1.0000 0.99228  0.90430  0.35740  Biso   1.000  H
  H76      1.0000 0.99058  0.86198  0.36951  Biso   1.000  H
  C64      1.0000 0.72389  0.53726  0.29756  Biso   1.000  C
  C65      1.0000 0.78518  0.54053  0.27334  Biso   1.000  C
  H77      1.0000 0.67361  0.53680  0.32159  Biso   1.000  H
  C66      1.0000 0.56747  0.83419  0.41685  Biso   1.000  C
  H78      1.0000 0.57950  0.86380  0.46548  Biso   1.000  H
  C67      1.0000 0.94730  0.84666  0.32324  Biso   1.000  C
  C68      1.0000 0.72136  0.54954  0.25887  Biso   1.000  C
  C69      1.0000 0.75684  0.55154  0.24445  Biso   1.000  C
  C70      1.0000 0.80945  0.57299  0.28466  Biso   1.000  C
  C71      1.0000 0.80866  0.50719  0.26129  Biso   1.000  C
  C72      1.0000 0.56033  0.79863  0.40457  Biso   1.000  C
  C73      1.0000 0.57629  0.86108  0.39117  Biso   1.000  C
  C74      1.0000 0.92025  0.83532  0.29523  Biso   1.000  C
  H79      1.0000 0.96559  0.82950  0.33049  Biso   1.000  H
  C75      1.0000 0.69030  0.55588  0.23665  Biso   1.000  C
  C76      1.0000 0.76195  0.56173  0.20832  Biso   1.000  C
  H80      1.0000 0.81950  0.58238  0.26120  Biso   1.000  H
  H81      1.0000 0.79188  0.59188  0.29309  Biso   1.000  H
  C77      1.0000 0.84040  0.57568  0.31061  Biso   1.000  C
  H82      1.0000 0.82870  0.56310  0.30110  Biso   1.000  H
  H83      1.0000 0.82208  0.58169  0.26219  Biso   1.000  H
  C78      1.0000 0.79509  0.60350  0.30160  Biso   1.000  C
  H84      1.0000 0.82568  0.51530  0.24171  Biso   1.000  H
  H85      1.0000 0.82379  0.49920  0.28240  Biso   1.000  H
  C79      1.0000 0.78740  0.47501  0.24764  Biso   1.000  C
  C80      1.0000 0.56017  0.79097  0.36767  Biso   1.000  C
  H86      1.0000 0.55558  0.77968  0.42179  Biso   1.000  H
  C81      1.0000 0.57620  0.85322  0.35383  Biso   1.000  C
  H87      1.0000 0.58249  0.88508  0.39930  Biso   1.000  H
  C82      1.0000 0.89002  0.85652  0.28586  Biso   1.000  C
  C83      1.0000 0.92701  0.80297  0.27573  Biso   1.000  C
  C84      1.0000 0.64980  0.55207  0.24544  Biso   1.000  C
  C85      1.0000 0.69560  0.56470  0.19909  Biso   1.000  C
  C86      1.0000 0.73083  0.56750  0.18473  Biso   1.000  C
  C87      1.0000 0.79517  0.56684  0.18539  Biso   1.000  C
  H88      1.0000 0.83189  0.56610  0.33461  Biso   1.000  H
  H89      1.0000 0.85998  0.55899  0.30190  Biso   1.000  H
  C88      1.0000 0.85660  0.61138  0.31689  Biso   1.000  C
  H90      1.0000 0.77730  0.59540  0.32049  Biso   1.000  H
  H91      1.0000 0.78139  0.61808  0.28320  Biso   1.000  H
  C89      1.0000 0.82359  0.62841  0.32000  Biso   1.000  C
  H92      1.0000 0.76980  0.46729  0.26681  Biso   1.000  H
  H93      1.0000 0.77309  0.48251  0.22581  Biso   1.000  H
  C90      1.0000 0.81085  0.44321  0.23781  Biso   1.000  C
  C91      1.0000 0.55207  0.75456  0.35020  Biso   1.000  C
  C92      1.0000 0.56780  0.81774  0.34133  Biso   1.000  C
  H94      1.0000 0.58189  0.87198  0.33658  Biso   1.000  H
  C93      1.0000 0.86671  0.84485  0.25840  Biso   1.000  C
  H95      1.0000 0.88538  0.87898  0.29830  Biso   1.000  H
  C94      1.0000 0.90378  0.79136  0.24750  Biso   1.000  C
  H96      1.0000 0.94788  0.78858  0.28180  Biso   1.000  H
  C95      1.0000 0.63230  0.56017  0.20903  Biso   1.000  C
  C96      1.0000 0.63664  0.58255  0.27205  Biso   1.000  C
  C97      1.0000 0.64057  0.51079  0.25730  Biso   1.000  C
  C98      1.0000 0.65864  0.56780  0.18223  Biso   1.000  C
  C99      1.0000 0.74303  0.57541  0.14568  Biso   1.000  C
  C100     1.0000 0.78438  0.57359  0.14903  Biso   1.000  C
  C101     1.0000 0.83351  0.56582  0.19274  Biso   1.000  C
  H97      1.0000 0.87689  0.60910  0.33450  Biso   1.000  H
  H98      1.0000 0.83798  0.62810  0.32681  Biso   1.000  H
  H99      1.0000 0.86599  0.62118  0.29369  Biso   1.000  H
  H100     1.0000 0.84059  0.63788  0.30130  Biso   1.000  H
  H101     1.0000 0.83738  0.61429  0.33829  Biso   1.000  H
  H102     1.0000 0.81118  0.64900  0.33200  Biso   1.000  H
  H103     1.0000 0.79539  0.42300  0.22899  Biso   1.000  H
  H104     1.0000 0.82458  0.43508  0.25950  Biso   1.000  H
  H105     1.0000 0.82810  0.45041  0.21839  Biso   1.000  H
  C102     1.0000 0.55588  0.76332  0.30967  Biso   1.000  C
  C103     1.0000 0.58255  0.72792  0.36336  Biso   1.000  C
  C104     1.0000 0.51079  0.74267  0.35943  Biso   1.000  C
  C105     1.0000 0.56470  0.80088  0.30440  Biso   1.000  C
  C106     1.0000 0.83216  0.86385  0.24640  Biso   1.000  C
  C107     1.0000 0.87305  0.81258  0.23847  Biso   1.000  C
  H106     1.0000 0.90878  0.76928  0.23459  Biso   1.000  H
  C108     1.0000 0.59543  0.56033  0.20134  Biso   1.000  C
  H107     1.0000 0.60948  0.58169  0.27340  Biso   1.000  H
  H108     1.0000 0.64620  0.57700  0.29690  Biso   1.000  H
  C109     1.0000 0.64776  0.62008  0.26222  Biso   1.000  C
  H109     1.0000 0.64060  0.49539  0.23490  Biso   1.000  H
  H110     1.0000 0.66078  0.50189  0.27320  Biso   1.000  H
  C110     1.0000 0.60440  0.50426  0.27752  Biso   1.000  C
  C111     1.0000 0.64614  0.57620  0.14678  Biso   1.000  C
  C112     1.0000 0.73212  0.61429  0.13272  Biso   1.000  C
  C113     1.0000 0.73064  0.54539  0.11830  Biso   1.000  C
  C114     1.0000 0.80959  0.57942  0.12154  Biso   1.000  C
  H111     1.0000 0.84210  0.56080  0.21691  Biso   1.000  H
  C115     1.0000 0.85781  0.57195  0.16539  Biso   1.000  C
  C116     1.0000 0.54954  0.74113  0.27861  Biso   1.000  C
  H112     1.0000 0.58169  0.72660  0.39049  Biso   1.000  H
  H113     1.0000 0.57700  0.70310  0.35380  Biso   1.000  H
  C117     1.0000 0.62008  0.73775  0.35224  Biso   1.000  C
  H114     1.0000 0.49539  0.76510  0.35940  Biso   1.000  H
  H115     1.0000 0.50189  0.72680  0.33919  Biso   1.000  H
  C118     1.0000 0.50426  0.72246  0.39560  Biso   1.000  C
  C119     1.0000 0.56750  0.81527  0.26917  Biso   1.000  C
  C120     1.0000 0.81832  0.83916  0.21556  Biso   1.000  C
  C121     1.0000 0.80550  0.86646  0.27933  Biso   1.000  C
  C122     1.0000 0.84271  0.90342  0.23174  Biso   1.000  C
  C123     1.0000 0.84328  0.80901  0.21062  Biso   1.000  C
  C124     1.0000 0.58312  0.56747  0.16581  Biso   1.000  C
  H116     1.0000 0.57818  0.55558  0.22029  Biso   1.000  H
  H117     1.0000 0.64030  0.62489  0.23649  Biso   1.000  H
  H118     1.0000 0.67490  0.62170  0.26340  Biso   1.000  H
  C125     1.0000 0.63159  0.65010  0.28660  Biso   1.000  C
  C126     1.0000 0.60067  0.46463  0.28680  Biso   1.000  C
  H119     1.0000 0.60380  0.51909  0.30031  Biso   1.000  H
  H120     1.0000 0.58359  0.51200  0.26181  Biso   1.000  H
  C127     1.0000 0.60883  0.57629  0.13889  Biso   1.000  C
  H121     1.0000 0.66339  0.58189  0.12799  Biso   1.000  H
  C128     1.0000 0.74489  0.64538  0.15716  Biso   1.000  C
  H122     1.0000 0.74220  0.61819  0.10781  Biso   1.000  H
  H123     1.0000 0.70499  0.61539  0.13079  Biso   1.000  H
  C129     1.0000 0.74132  0.50626  0.12912  Biso   1.000  C
  H124     1.0000 0.70359  0.54660  0.11580  Biso   1.000  H
  H125     1.0000 0.74140  0.55088  0.09400  Biso   1.000  H
  H126     1.0000 0.80138  0.58408  0.09721  Biso   1.000  H
  C130     1.0000 0.84680  0.57840  0.12912  Biso   1.000  C
  H127     1.0000 0.88329  0.57189  0.17100  Biso   1.000  H
  C131     1.0000 0.53726  0.70244  0.27609  Biso   1.000  C
  C132     1.0000 0.55154  0.75552  0.24316  Biso   1.000  C
  H128     1.0000 0.62489  0.76348  0.35970  Biso   1.000  H
  H129     1.0000 0.62170  0.73660  0.32510  Biso   1.000  H
  C133     1.0000 0.65010  0.71340  0.36838  Biso   1.000  C
  C134     1.0000 0.46463  0.71320  0.39930  Biso   1.000  C
  H130     1.0000 0.51909  0.69969  0.39620  Biso   1.000  H
  H131     1.0000 0.51200  0.73819  0.41638  Biso   1.000  H
  C135     1.0000 0.56173  0.79166  0.23803  Biso   1.000  C
  C136     1.0000 0.57541  0.85432  0.25695  Biso   1.000  C
  C137     1.0000 0.78935  0.84328  0.19099  Biso   1.000  C
  H132     1.0000 0.81610  0.88329  0.29789  Biso   1.000  H
  H133     1.0000 0.78210  0.87728  0.27079  Biso   1.000  H
  C138     1.0000 0.79762  0.83018  0.29723  Biso   1.000  C
  H134     1.0000 0.81989  0.91729  0.22660  Biso   1.000  H
  H135     1.0000 0.85619  0.91668  0.25121  Biso   1.000  H
  C139     1.0000 0.86613  0.90271  0.19717  Biso   1.000  C
  C140     1.0000 0.83916  0.78441  0.18168  Biso   1.000  C
  C141     1.0000 0.54377  0.56593  0.15652  Biso   1.000  C
  H136     1.0000 0.64019  0.67410  0.27809  Biso   1.000  H
  H137     1.0000 0.63950  0.64620  0.31201  Biso   1.000  H
  H138     1.0000 0.60468  0.64919  0.28529  Biso   1.000  H
  H139     1.0000 0.57760  0.46070  0.30001  Biso   1.000  H
  H140     1.0000 0.62129  0.45711  0.30228  Biso   1.000  H
  H141     1.0000 0.60070  0.45010  0.26409  Biso   1.000  H
  H142     1.0000 0.60070  0.58249  0.11489  Biso   1.000  H
  H143     1.0000 0.73498  0.64170  0.18220  Biso   1.000  H
  H144     1.0000 0.77200  0.64488  0.15880  Biso   1.000  H
  C142     1.0000 0.73289  0.68190  0.14321  Biso   1.000  C
  H145     1.0000 0.76829  0.50500  0.13208  Biso   1.000  H
  H146     1.0000 0.72998  0.50030  0.15309  Biso   1.000  H
  C143     1.0000 0.72954  0.47811  0.10136  Biso   1.000  C
  C144     1.0000 0.87470  0.58581  0.10078  Biso   1.000  C
  C145     1.0000 0.53012  0.69475  0.23866  Biso   1.000  C
  C146     1.0000 0.53174  0.67435  0.30116  Biso   1.000  C
  C147     1.0000 0.54053  0.72666  0.21480  Biso   1.000  C
  H147     1.0000 0.67410  0.72188  0.35979  Biso   1.000  H
  H148     1.0000 0.64620  0.68799  0.36050  Biso   1.000  H
  H149     1.0000 0.64919  0.71469  0.39529  Biso   1.000  H
  H150     1.0000 0.46070  0.69999  0.42240  Biso   1.000  H
  H151     1.0000 0.45711  0.69769  0.37871  Biso   1.000  H
  H152     1.0000 0.45010  0.73589  0.39930  Biso   1.000  H
  C148     1.0000 0.56684  0.81461  0.20480  Biso   1.000  C
  C149     1.0000 0.57359  0.85094  0.21562  Biso   1.000  C
  C150     1.0000 0.61429  0.86728  0.26788  Biso   1.000  C
  C151     1.0000 0.54539  0.88170  0.26933  Biso   1.000  C
  C152     1.0000 0.76151  0.87305  0.18742  Biso   1.000  C
  C153     1.0000 0.78441  0.81832  0.16084  Biso   1.000  C
  H153     1.0000 0.78479  0.81409  0.27949  Biso   1.000  H
  H154     1.0000 0.82110  0.81818  0.30399  Biso   1.000  H
  C154     1.0000 0.77441  0.83450  0.33095  Biso   1.000  C
  H155     1.0000 0.88889  0.88909  0.20329  Biso   1.000  H
  H156     1.0000 0.85278  0.88758  0.17890  Biso   1.000  H
  C155     1.0000 0.87739  0.93629  0.17849  Biso   1.000  C
  C156     1.0000 0.86385  0.75360  0.16784  Biso   1.000  C
  C157     1.0000 0.80901  0.78935  0.15669  Biso   1.000  C
  N7       1.0000 0.52224  0.54644  0.17586  Biso   1.000  N
  H157     1.0000 0.53449  0.57950  0.13620  Biso   1.000  H
  H158     1.0000 0.74149  0.70120  0.15990  Biso   1.000  H
  H159     1.0000 0.70598  0.68258  0.14181  Biso   1.000  H
  H160     1.0000 0.74330  0.68599  0.11871  Biso   1.000  H
  H161     1.0000 0.73399  0.48759  0.07650  Biso   1.000  H
  H162     1.0000 0.70329  0.47301  0.10440  Biso   1.000  H
  H163     1.0000 0.74360  0.45549  0.10501  Biso   1.000  H
  N8       1.0000 0.86635  0.58697  0.06678  Biso   1.000  N
  H164     1.0000 0.89949  0.58980  0.10800  Biso   1.000  H
  C158     1.0000 0.51552  0.66163  0.22745  Biso   1.000  C
  C159     1.0000 0.51900  0.64046  0.28982  Biso   1.000  C
  H165     1.0000 0.53680  0.67838  0.32639  Biso   1.000  H
  C160     1.0000 0.57299  0.71534  0.19055  Biso   1.000  C
  C161     1.0000 0.50719  0.73871  0.19132  Biso   1.000  C
  C162     1.0000 0.56582  0.80723  0.16647  Biso   1.000  C
  C163     1.0000 0.57942  0.87846  0.19041  Biso   1.000  C
  C164     1.0000 0.64538  0.84282  0.25511  Biso   1.000  C
  H166     1.0000 0.61819  0.89219  0.25780  Biso   1.000  H
  H167     1.0000 0.61539  0.86918  0.29501  Biso   1.000  H
  C165     1.0000 0.50626  0.87088  0.25865  Biso   1.000  C
  H168     1.0000 0.54660  0.88420  0.29641  Biso   1.000  H
  H169     1.0000 0.55088  0.90600  0.25860  Biso   1.000  H
  C166     1.0000 0.74157  0.86671  0.15512  Biso   1.000  C
  C167     1.0000 0.75247  0.90378  0.20862  Biso   1.000  C
  C168     1.0000 0.75360  0.83216  0.13612  Biso   1.000  C
  H170     1.0000 0.76958  0.81019  0.34169  Biso   1.000  H
  H171     1.0000 0.75110  0.84608  0.32439  Biso   1.000  H
  H172     1.0000 0.78740  0.84979  0.34889  Biso   1.000  H
  H173     1.0000 0.89260  0.92998  0.15721  Biso   1.000  H
  H174     1.0000 0.89159  0.95170  0.19541  Biso   1.000  H
  H175     1.0000 0.85559  0.94969  0.17031  Biso   1.000  H
  C169     1.0000 0.84485  0.74157  0.13329  Biso   1.000  C
  C170     1.0000 0.86646  0.72067  0.19447  Biso   1.000  C
  C171     1.0000 0.90342  0.76826  0.15727  Biso   1.000  C
  C172     1.0000 0.81258  0.76151  0.12695  Biso   1.000  C
  C173     1.0000 0.48259  0.54778  0.16806  Biso   1.000  C
  C174     1.0000 0.89532  0.59878  0.04204  Biso   1.000  C
  C175     1.0000 0.50917  0.63445  0.25390  Biso   1.000  C
  H176     1.0000 0.50989  0.65740  0.20241  Biso   1.000  H
  H177     1.0000 0.51700  0.62110  0.30709  Biso   1.000  H
  H178     1.0000 0.58238  0.73880  0.18050  Biso   1.000  H
  H179     1.0000 0.59188  0.70689  0.20810  Biso   1.000  H
  C176     1.0000 0.57568  0.68939  0.15960  Biso   1.000  C
  H180     1.0000 0.56310  0.69890  0.17130  Biso   1.000  H
  H181     1.0000 0.58169  0.73778  0.17789  Biso   1.000  H
  C177     1.0000 0.60350  0.69840  0.20491  Biso   1.000  C
  H182     1.0000 0.51530  0.75829  0.17429  Biso   1.000  H
  H183     1.0000 0.49920  0.71760  0.17619  Biso   1.000  H
  C178     1.0000 0.47501  0.75236  0.21260  Biso   1.000  C
  H184     1.0000 0.56080  0.78309  0.15790  Biso   1.000  H
  C179     1.0000 0.57195  0.83458  0.14219  Biso   1.000  C
  H185     1.0000 0.58408  0.90279  0.19859  Biso   1.000  H
  C180     1.0000 0.57840  0.87088  0.15320  Biso   1.000  C
  H186     1.0000 0.64170  0.81780  0.26499  Biso   1.000  H
  H187     1.0000 0.64488  0.84120  0.22800  Biso   1.000  H
  C181     1.0000 0.68190  0.85679  0.26708  Biso   1.000  C
  H188     1.0000 0.50500  0.86789  0.23168  Biso   1.000  H
  H189     1.0000 0.50030  0.84688  0.26999  Biso   1.000  H
  C182     1.0000 0.47811  0.89864  0.27043  Biso   1.000  C
  C183     1.0000 0.71411  0.89002  0.14345  Biso   1.000  C
  C184     1.0000 0.72427  0.92701  0.19703  Biso   1.000  C
  H190     1.0000 0.76538  0.90878  0.23070  Biso   1.000  H
  C185     1.0000 0.72067  0.80550  0.13351  Biso   1.000  C
  C186     1.0000 0.76826  0.84271  0.09655  Biso   1.000  C
  C187     1.0000 0.85652  0.71411  0.10995  Biso   1.000  C
  H191     1.0000 0.88329  0.70208  0.18390  Biso   1.000  H
  H192     1.0000 0.87728  0.72918  0.21790  Biso   1.000  H
  C188     1.0000 0.83018  0.70274  0.20236  Biso   1.000  C
  H193     1.0000 0.91729  0.77340  0.18009  Biso   1.000  H
  H194     1.0000 0.91668  0.74879  0.14381  Biso   1.000  H
  C189     1.0000 0.90271  0.80283  0.13384  Biso   1.000  C
  C190     1.0000 0.79136  0.75247  0.09622  Biso   1.000  C
  C191     1.0000 0.46285  0.55871  0.20277  Biso   1.000  C
  H195     1.0000 0.47389  0.52340  0.15971  Biso   1.000  H
  H196     1.0000 0.47759  0.56591  0.14840  Biso   1.000  H
  H197     1.0000 0.89949  0.57980  0.02301  Biso   1.000  H
  H198     1.0000 0.91850  0.60218  0.05591  Biso   1.000  H
  C192     1.0000 0.88447  0.63417  0.02428  Biso   1.000  C
  C193     1.0000 0.49322  0.59930  0.24248  Biso   1.000  C
  H199     1.0000 0.56610  0.66539  0.16809  Biso   1.000  H
  H200     1.0000 0.55899  0.69810  0.13999  Biso   1.000  H
  C194     1.0000 0.61138  0.68308  0.14340  Biso   1.000  C
  H201     1.0000 0.59540  0.67948  0.22270  Biso   1.000  H
  H202     1.0000 0.61808  0.71680  0.21859  Biso   1.000  H
  C195     1.0000 0.62841  0.68000  0.17641  Biso   1.000  C
  H203     1.0000 0.46729  0.73319  0.23020  Biso   1.000  H
  H204     1.0000 0.48251  0.77419  0.22691  Biso   1.000  H
  C196     1.0000 0.44321  0.76219  0.18915  Biso   1.000  C
  H205     1.0000 0.57189  0.82900  0.11671  Biso   1.000  H
  C197     1.0000 0.58581  0.89919  0.12527  Biso   1.000  C
  H206     1.0000 0.70120  0.84010  0.25849  Biso   1.000  H
  H207     1.0000 0.68258  0.85819  0.29399  Biso   1.000  H
  H208     1.0000 0.68599  0.88129  0.25670  Biso   1.000  H
  H209     1.0000 0.48759  0.92350  0.26601  Biso   1.000  H
  H210     1.0000 0.47301  0.89560  0.29668  Biso   1.000  H
  H211     1.0000 0.45549  0.89499  0.25640  Biso   1.000  H
  C198     1.0000 0.70475  0.92025  0.16468  Biso   1.000  C
  H212     1.0000 0.70170  0.88538  0.12099  Biso   1.000  H
  H213     1.0000 0.71820  0.94788  0.21139  Biso   1.000  H
  H214     1.0000 0.70208  0.81610  0.11671  Biso   1.000  H
  H215     1.0000 0.72918  0.78210  0.12269  Biso   1.000  H
  C199     1.0000 0.70274  0.79762  0.16979  Biso   1.000  C
  H216     1.0000 0.77340  0.81989  0.08271  Biso   1.000  H
  H217     1.0000 0.74879  0.85619  0.08329  Biso   1.000  H
  C200     1.0000 0.80283  0.86613  0.09729  Biso   1.000  C
  C201     1.0000 0.83532  0.70475  0.07972  Biso   1.000  C
  H218     1.0000 0.87898  0.70170  0.11459  Biso   1.000  H
  H219     1.0000 0.81409  0.72048  0.21521  Biso   1.000  H
  H220     1.0000 0.81818  0.69599  0.17890  Biso   1.000  H
  C202     1.0000 0.83450  0.66905  0.22556  Biso   1.000  C
  H221     1.0000 0.88909  0.79668  0.11111  Biso   1.000  H
  H222     1.0000 0.88758  0.82110  0.14719  Biso   1.000  H
  C203     1.0000 0.93629  0.82148  0.12261  Biso   1.000  C
  C204     1.0000 0.80297  0.72427  0.07299  Biso   1.000  C
  H223     1.0000 0.76928  0.76538  0.09120  Biso   1.000  H
  N9       1.0000 0.47553  0.59507  0.21323  Biso   1.000  N
  H224     1.0000 0.43599  0.55909  0.19859  Biso   1.000  H
  H225     1.0000 0.46820  0.54089  0.22259  Biso   1.000  H
  N10      1.0000 0.87758  0.66226  0.05259  Biso   1.000  N
  H226     1.0000 0.90430  0.64260  0.00769  Biso   1.000  H
  H227     1.0000 0.86198  0.63049  0.00939  Biso   1.000  H
  H228     1.0000 0.49640  0.57859  0.25810  Biso   1.000  H
  H229     1.0000 0.60910  0.66550  0.12311  Biso   1.000  H
  H230     1.0000 0.62810  0.67319  0.16199  Biso   1.000  H
  H231     1.0000 0.62118  0.70628  0.13401  Biso   1.000  H
  H232     1.0000 0.63788  0.69870  0.15941  Biso   1.000  H
  H233     1.0000 0.61429  0.66169  0.16259  Biso   1.000  H
  H234     1.0000 0.64900  0.66800  0.18879  Biso   1.000  H
  H235     1.0000 0.42300  0.77098  0.20461  Biso   1.000  H
  H236     1.0000 0.43508  0.74050  0.17539  Biso   1.000  H
  H237     1.0000 0.45041  0.78158  0.17190  Biso   1.000  H
  N11      1.0000 0.58697  0.93322  0.13365  Biso   1.000  N
  H238     1.0000 0.58980  0.89200  0.10051  Biso   1.000  H
  C205     1.0000 0.67676  0.94730  0.15331  Biso   1.000  C
  H239     1.0000 0.72048  0.78479  0.18591  Biso   1.000  H
  H240     1.0000 0.69599  0.82110  0.18179  Biso   1.000  H
  C206     1.0000 0.66905  0.77441  0.16550  Biso   1.000  C
  H241     1.0000 0.79668  0.88889  0.11089  Biso   1.000  H
  H242     1.0000 0.82110  0.85278  0.11240  Biso   1.000  H
  C207     1.0000 0.82148  0.87739  0.06371  Biso   1.000  C
  C208     1.0000 0.84666  0.67676  0.05267  Biso   1.000  C
  H243     1.0000 0.81019  0.65828  0.23039  Biso   1.000  H
  H244     1.0000 0.84608  0.67558  0.24890  Biso   1.000  H
  H245     1.0000 0.84979  0.65109  0.21260  Biso   1.000  H
  H246     1.0000 0.92998  0.84279  0.10740  Biso   1.000  H
  H247     1.0000 0.95170  0.80459  0.10839  Biso   1.000  H
  H248     1.0000 0.94969  0.82969  0.14439  Biso   1.000  H
  H249     1.0000 0.78858  0.71820  0.05209  Biso   1.000  H
  C209     1.0000 0.59878  0.95796  0.10468  Biso   1.000  C
  N12      1.0000 0.66226  0.94741  0.12242  Biso   1.000  N
  H250     1.0000 0.66949  0.96559  0.17050  Biso   1.000  H
  H251     1.0000 0.65828  0.76958  0.18981  Biso   1.000  H
  H252     1.0000 0.67558  0.75110  0.15389  Biso   1.000  H
  H253     1.0000 0.65109  0.78740  0.15021  Biso   1.000  H
  H254     1.0000 0.84279  0.89260  0.07000  Biso   1.000  H
  H255     1.0000 0.80459  0.89159  0.04830  Biso   1.000  H
  H256     1.0000 0.82969  0.85559  0.05031  Biso   1.000  H
  H257     1.0000 0.82950  0.66949  0.03441  Biso   1.000  H
  H258     1.0000 0.57980  0.97699  0.10051  Biso   1.000  H
  H259     1.0000 0.60218  0.94409  0.08150  Biso   1.000  H
  C210     1.0000 0.63417  0.97572  0.11553  Biso   1.000  C
  H260     1.0000 0.64260  0.99228  0.09570  Biso   1.000  H
  H261     1.0000 0.63049  0.99058  0.13799  Biso   1.000  H
