data_image0
_cell_length_a       12.693
_cell_length_b       12.94
_cell_length_c       15.88
_cell_angle_alpha    106.19
_cell_angle_beta     104.2
_cell_angle_gamma    101.68

_symmetry_space_group_name_H-M    "P 1"
_symmetry_int_tables_number       1

loop_
  _symmetry_equiv_pos_as_xyz
  'x, y, z'

loop_
  _atom_site_label
  _atom_site_occupancy
  _atom_site_fract_x
  _atom_site_fract_y
  _atom_site_fract_z
  _atom_site_thermal_displace_type
  _atom_site_B_iso_or_equiv
  _atom_site_type_symbol
  O1       1.0000 0.58908  0.40045  0.49703  Biso   1.000  O
  C1       1.0000 0.68938  0.43767  0.56418  Biso   1.000  C
  H1       1.0000 0.58183  0.33723  0.46227  Biso   1.000  H
  C2       1.0000 0.71856  0.53451  0.64138  Biso   1.000  C
  C3       1.0000 0.75859  0.36901  0.55553  Biso   1.000  C
  C4       1.0000 0.63816  0.60529  0.64962  Biso   1.000  C
  C5       1.0000 0.82167  0.55830  0.71130  Biso   1.000  C
  C6       1.0000 0.86148  0.39366  0.62469  Biso   1.000  C
  O2       1.0000 0.72578  0.27519  0.47501  Biso   1.000  O
  C7       1.0000 0.55268  0.56387  0.69337  Biso   1.000  C
  H2       1.0000 0.68139  0.68271  0.68679  Biso   1.000  H
  H3       1.0000 0.59817  0.60358  0.58848  Biso   1.000  H
  O3       1.0000 0.86658  0.64849  0.79238  Biso   1.000  O
  C8       1.0000 0.89062  0.48899  0.70279  Biso   1.000  C
  C9       1.0000 0.93643  0.31673  0.61569  Biso   1.000  C
  H4       1.0000 0.65672  0.25631  0.45112  Biso   1.000  H
  C10      1.0000 0.45702  0.47232  0.64117  Biso   1.000  C
  C11      1.0000 0.56958  0.61193  0.78670  Biso   1.000  C
  H5       1.0000 0.81661  0.67658  0.80269  Biso   1.000  H
  O4       1.0000 0.98338  0.53607  0.78137  Biso   1.000  O
  H6       1.0000 0.93792  0.29237  0.55248  Biso   1.000  H
  C12      1.0000 0.89560  0.21516  0.64027  Biso   1.000  C
  H7       1.0000 0.01332  0.35797  0.65599  Biso   1.000  H
  C13      1.0000 0.38087  0.43078  0.68257  Biso   1.000  C
  H8       1.0000 0.44369  0.43842  0.57817  Biso   1.000  H
  C14      1.0000 0.49241  0.57188  0.82789  Biso   1.000  C
  O5       1.0000 0.66913  0.69843  0.83627  Biso   1.000  O
  H9       1.0000 0.01428  0.48813  0.78898  Biso   1.000  H
  C15      1.0000 0.81602  0.11897  0.57478  Biso   1.000  C
  C16      1.0000 0.93205  0.21629  0.73007  Biso   1.000  C
  O6       1.0000 0.28715  0.33734  0.63563  Biso   1.000  O
  C17      1.0000 0.39808  0.47841  0.77617  Biso   1.000  C
  H10      1.0000 0.50386  0.60788  0.89027  Biso   1.000  H
  C18      1.0000 0.67840  0.76860  0.92530  Biso   1.000  C
  C19      1.0000 0.77236  0.02799  0.59769  Biso   1.000  C
  H11      1.0000 0.79110  0.11558  0.51357  Biso   1.000  H
  C20      1.0000 0.89380  0.12154  0.75153  Biso   1.000  C
  O7       1.0000 0.00491  0.31671  0.79570  Biso   1.000  O
  C21      1.0000 0.24546  0.30152  0.53877  Biso   1.000  C
  C22      1.0000 0.31984  0.42912  0.82263  Biso   1.000  C
  H12      1.0000 0.62140  0.80843  0.92073  Biso   1.000  H
  H13      1.0000 0.66639  0.72378  0.96380  Biso   1.000  H
  C23      1.0000 0.79551  0.85133  0.96760  Biso   1.000  C
  C24      1.0000 0.81313  0.02618  0.68631  Biso   1.000  C
  O8       1.0000 0.68656  0.93234  0.53441  Biso   1.000  O
  H14      1.0000 0.92354  0.12240  0.81141  Biso   1.000  H
  C25      1.0000 0.05493  0.31528  0.88522  Biso   1.000  C
  C26      1.0000 0.14191  0.20247  0.50852  Biso   1.000  C
  H15      1.0000 0.22557  0.36143  0.51890  Biso   1.000  H
  H16      1.0000 0.30227  0.27970  0.51240  Biso   1.000  H
  H17      1.0000 0.24189  0.40391  0.78199  Biso   1.000  H
  H18      1.0000 0.32533  0.48634  0.87933  Biso   1.000  H
  C27      1.0000 0.35270  0.33104  0.84423  Biso   1.000  C
  O9       1.0000 0.87429  0.84152  0.93901  Biso   1.000  O
  O10      1.0000 0.79955  0.93148  0.04134  Biso   1.000  O
  C28      1.0000 0.76725  0.92722  0.71373  Biso   1.000  C
  C29      1.0000 0.63379  0.93862  0.44628  Biso   1.000  C
  H19      1.0000 0.99667  0.28050  0.90668  Biso   1.000  H
  C30      1.0000 0.11412  0.43262  0.94960  Biso   1.000  C
  H20      1.0000 0.10870  0.27177  0.88328  Biso   1.000  H
  O11      1.0000 0.08702  0.17199  0.41893  Biso   1.000  O
  O12      1.0000 0.11251  0.15659  0.55781  Biso   1.000  O
  C31      1.0000 0.28463  0.22021  0.80117  Biso   1.000  C
  C32      1.0000 0.45972  0.35028  0.90710  Biso   1.000  C
  C33      1.0000 0.90701  0.01234  0.09402  Biso   1.000  C
  C34      1.0000 0.68475  0.95009  0.76531  Biso   1.000  C
  H21      1.0000 0.82985  0.91192  0.75243  Biso   1.000  H
  H22      1.0000 0.72945  0.86099  0.65848  Biso   1.000  H
  H23      1.0000 0.62075  0.01155  0.45382  Biso   1.000  H
  H24      1.0000 0.68215  0.92833  0.40772  Biso   1.000  H
  C35      1.0000 0.52502  0.84858  0.40349  Biso   1.000  C
  O13      1.0000 0.09919  0.51513  0.93583  Biso   1.000  O
  O14      1.0000 0.18252  0.43010  0.02659  Biso   1.000  O
  C36      1.0000 0.98548  0.07333  0.38189  Biso   1.000  C
  O15      1.0000 0.17509  0.19171  0.74218  Biso   1.000  O
  C37      1.0000 0.31950  0.13390  0.82318  Biso   1.000  C
  C38      1.0000 0.49421  0.26493  0.92953  Biso   1.000  C
  H25      1.0000 0.50878  0.42311  0.93430  Biso   1.000  H
  H26      1.0000 0.95483  0.97888  0.12781  Biso   1.000  H
  H27      1.0000 0.89663  0.07546  0.13660  Biso   1.000  H
  H28      1.0000 0.94189  0.03721  0.05311  Biso   1.000  H
  C39      1.0000 0.72521  0.02019  0.85849  Biso   1.000  C
  C40      1.0000 0.56640  0.91228  0.72342  Biso   1.000  C
  O16      1.0000 0.49107  0.78397  0.43977  Biso   1.000  O
  O17      1.0000 0.47171  0.84608  0.32131  Biso   1.000  O
  C41      1.0000 0.23648  0.53818  0.10123  Biso   1.000  C
  H29      1.0000 0.00448  0.01338  0.40093  Biso   1.000  H
  H30      1.0000 0.92660  0.09326  0.40508  Biso   1.000  H
  H31      1.0000 0.95932  0.04913  0.31550  Biso   1.000  H
  H32      1.0000 0.17699  0.19358  0.69143  Biso   1.000  H
  H33      1.0000 0.27199  0.06059  0.79390  Biso   1.000  H
  C42      1.0000 0.42452  0.15418  0.88833  Biso   1.000  C
  O18      1.0000 0.60058  0.29722  0.99488  Biso   1.000  O
  C43      1.0000 0.65524  0.05435  0.90633  Biso   1.000  C
  H34      1.0000 0.80311  0.04455  0.88903  Biso   1.000  H
  C44      1.0000 0.49552  0.94369  0.77299  Biso   1.000  C
  O19      1.0000 0.51495  0.84034  0.63113  Biso   1.000  O
  C45      1.0000 0.36314  0.76405  0.27223  Biso   1.000  C
  H35      1.0000 0.28241  0.52777  0.15419  Biso   1.000  H
  H36      1.0000 0.28326  0.58809  0.08122  Biso   1.000  H
  H37      1.0000 0.17907  0.57019  0.11750  Biso   1.000  H
  C46      1.0000 0.45814  0.05802  0.91263  Biso   1.000  C
  H38      1.0000 0.62281  0.24167  0.99378  Biso   1.000  H
  C47      1.0000 0.53702  0.01620  0.86382  Biso   1.000  C
  O20      1.0000 0.69740  0.12772  0.99641  Biso   1.000  O
  H39      1.0000 0.41735  0.91523  0.74433  Biso   1.000  H
  H40      1.0000 0.55344  0.85738  0.59977  Biso   1.000  H
  H41      1.0000 0.31275  0.77494  0.30788  Biso   1.000  H
  H42      1.0000 0.33215  0.77207  0.21358  Biso   1.000  H
  H43      1.0000 0.37180  0.68991  0.26198  Biso   1.000  H
  H44      1.0000 0.49486  0.08248  0.97889  Biso   1.000  H
  H45      1.0000 0.39023  0.99647  0.89629  Biso   1.000  H
  H46      1.0000 0.76425  0.16141  0.00804  Biso   1.000  H
  O21      1.0000 0.41086  0.59960  0.50298  Biso   1.000  O
  C48      1.0000 0.31063  0.56230  0.43582  Biso   1.000  C
  H47      1.0000 0.41816  0.66279  0.53767  Biso   1.000  H
  C49      1.0000 0.28138  0.46553  0.35863  Biso   1.000  C
  C50      1.0000 0.24142  0.63096  0.44448  Biso   1.000  C
  C51      1.0000 0.36176  0.39468  0.35039  Biso   1.000  C
  C52      1.0000 0.17826  0.44167  0.28870  Biso   1.000  C
  C53      1.0000 0.13853  0.60631  0.37531  Biso   1.000  C
  O22      1.0000 0.27423  0.72478  0.52500  Biso   1.000  O
  C54      1.0000 0.44733  0.43610  0.30663  Biso   1.000  C
  H48      1.0000 0.31863  0.31734  0.31321  Biso   1.000  H
  H49      1.0000 0.40183  0.39639  0.41152  Biso   1.000  H
  O23      1.0000 0.13343  0.35148  0.20763  Biso   1.000  O
  C55      1.0000 0.10938  0.51098  0.29722  Biso   1.000  C
  C56      1.0000 0.06359  0.68332  0.38431  Biso   1.000  C
  H50      1.0000 0.34328  0.74366  0.54888  Biso   1.000  H
  C57      1.0000 0.43037  0.38811  0.21331  Biso   1.000  C
  C58      1.0000 0.54297  0.52770  0.35877  Biso   1.000  C
  H51      1.0000 0.18339  0.32339  0.19731  Biso   1.000  H
  O24      1.0000 0.01659  0.46387  0.21857  Biso   1.000  O
  H52      1.0000 0.06208  0.70760  0.44752  Biso   1.000  H
  C59      1.0000 0.10438  0.78478  0.35967  Biso   1.000  C
  H53      1.0000 0.98668  0.64200  0.34402  Biso   1.000  H
  O25      1.0000 0.33086  0.30159  0.16367  Biso   1.000  O
  C60      1.0000 0.50760  0.42809  0.17211  Biso   1.000  C
  C61      1.0000 0.61911  0.56916  0.31737  Biso   1.000  C
  H54      1.0000 0.55631  0.56160  0.42177  Biso   1.000  H
  H55      1.0000 0.98575  0.51192  0.21102  Biso   1.000  H
  C62      1.0000 0.18399  0.88100  0.42523  Biso   1.000  C
  C63      1.0000 0.06785  0.78365  0.26987  Biso   1.000  C
  C64      1.0000 0.32160  0.23137  0.07470  Biso   1.000  C
  C65      1.0000 0.60194  0.52164  0.22383  Biso   1.000  C
  H56      1.0000 0.49612  0.39206  0.10967  Biso   1.000  H
  O26      1.0000 0.71287  0.66271  0.36437  Biso   1.000  O
  C66      1.0000 0.22756  0.97198  0.40231  Biso   1.000  C
  H57      1.0000 0.20891  0.88439  0.48643  Biso   1.000  H
  C67      1.0000 0.10623  0.87851  0.24848  Biso   1.000  C
  O27      1.0000 0.99511  0.68334  0.20431  Biso   1.000  O
  H58      1.0000 0.37862  0.19162  0.07927  Biso   1.000  H
  H59      1.0000 0.33361  0.27619  0.03621  Biso   1.000  H
  C68      1.0000 0.20451  0.14872  0.03240  Biso   1.000  C
  C69      1.0000 0.68019  0.57093  0.17738  Biso   1.000  C
  C70      1.0000 0.75448  0.69853  0.46123  Biso   1.000  C
  C71      1.0000 0.18687  0.97379  0.31370  Biso   1.000  C
  O28      1.0000 0.31346  0.06771  0.46559  Biso   1.000  O
  H60      1.0000 0.07646  0.87757  0.18859  Biso   1.000  H
  C72      1.0000 0.94507  0.68469  0.11479  Biso   1.000  C
  O29      1.0000 0.12573  0.15853  0.06099  Biso   1.000  O
  O30      1.0000 0.20046  0.06848  0.95867  Biso   1.000  O
  H61      1.0000 0.75813  0.59614  0.21802  Biso   1.000  H
  H62      1.0000 0.67469  0.51371  0.12067  Biso   1.000  H
  C73      1.0000 0.64732  0.66901  0.15577  Biso   1.000  C
  C74      1.0000 0.85809  0.79750  0.49149  Biso   1.000  C
  H63      1.0000 0.77437  0.63862  0.48110  Biso   1.000  H
  H64      1.0000 0.69773  0.72027  0.48761  Biso   1.000  H
  C75      1.0000 0.23278  0.07283  0.28628  Biso   1.000  C
  C76      1.0000 0.36616  0.06143  0.55373  Biso   1.000  C
  H65      1.0000 0.00335  0.71955  0.09333  Biso   1.000  H
  C77      1.0000 0.88591  0.56743  0.05040  Biso   1.000  C
  H66      1.0000 0.89130  0.72820  0.11673  Biso   1.000  H
  C78      1.0000 0.09299  0.98763  0.90598  Biso   1.000  C
  C79      1.0000 0.71536  0.77981  0.19877  Biso   1.000  C
  C80      1.0000 0.54029  0.64969  0.09291  Biso   1.000  C
  O31      1.0000 0.88749  0.84338  0.44219  Biso   1.000  O
  O32      1.0000 0.91299  0.82798  0.58108  Biso   1.000  O
  C81      1.0000 0.31526  0.04988  0.23470  Biso   1.000  C
  H67      1.0000 0.17017  0.08812  0.24758  Biso   1.000  H
  H68      1.0000 0.27055  0.13898  0.34153  Biso   1.000  H
  H69      1.0000 0.37928  0.98850  0.54618  Biso   1.000  H
  H70      1.0000 0.31788  0.07172  0.59229  Biso   1.000  H
  C82      1.0000 0.47498  0.15138  0.59651  Biso   1.000  C
  O33      1.0000 0.81750  0.56995  0.97341  Biso   1.000  O
  O34      1.0000 0.90076  0.48491  0.06418  Biso   1.000  O
  H71      1.0000 0.10337  0.92451  0.86340  Biso   1.000  H
  H72      1.0000 0.05813  0.96284  0.94690  Biso   1.000  H
  H73      1.0000 0.04517  0.02109  0.87220  Biso   1.000  H
  O35      1.0000 0.82494  0.80834  0.25782  Biso   1.000  O
  C83      1.0000 0.68052  0.86615  0.17682  Biso   1.000  C
  C84      1.0000 0.50581  0.73511  0.07048  Biso   1.000  C
  H74      1.0000 0.49124  0.57694  0.06570  Biso   1.000  H
  C85      1.0000 0.01454  0.92672  0.61812  Biso   1.000  C
  C86      1.0000 0.27479  0.97978  0.14151  Biso   1.000  C
  C87      1.0000 0.43353  0.08769  0.27659  Biso   1.000  C
  O36      1.0000 0.50883  0.21597  0.56017  Biso   1.000  O
  O37      1.0000 0.52829  0.15389  0.67869  Biso   1.000  O
  C88      1.0000 0.76353  0.46179  0.89878  Biso   1.000  C
  H75      1.0000 0.82301  0.80639  0.30857  Biso   1.000  H
  H76      1.0000 0.72802  0.93938  0.20611  Biso   1.000  H
  C89      1.0000 0.57549  0.84579  0.11167  Biso   1.000  C
  O38      1.0000 0.39944  0.70283  0.00512  Biso   1.000  O
  H77      1.0000 0.99552  0.98658  0.59908  Biso   1.000  H
  H78      1.0000 0.07341  0.90671  0.59492  Biso   1.000  H
  H79      1.0000 0.04070  0.95092  0.68451  Biso   1.000  H
  C90      1.0000 0.34478  0.94570  0.09367  Biso   1.000  C
  H80      1.0000 0.19691  0.95550  0.11098  Biso   1.000  H
  C91      1.0000 0.50448  0.05628  0.22702  Biso   1.000  C
  O39      1.0000 0.48507  0.15971  0.36888  Biso   1.000  O
  C92      1.0000 0.63688  0.23600  0.72778  Biso   1.000  C
  H81      1.0000 0.71759  0.47220  0.84582  Biso   1.000  H
  H82      1.0000 0.71676  0.41196  0.91879  Biso   1.000  H
  H83      1.0000 0.82096  0.42986  0.88251  Biso   1.000  H
  C93      1.0000 0.54188  0.94203  0.08737  Biso   1.000  C
  H84      1.0000 0.37720  0.75830  0.00623  Biso   1.000  H
  C94      1.0000 0.46298  0.98377  0.13618  Biso   1.000  C
  O40      1.0000 0.30262  0.87233  0.00360  Biso   1.000  O
  H85      1.0000 0.58267  0.08482  0.25568  Biso   1.000  H
  H86      1.0000 0.44654  0.14256  0.40017  Biso   1.000  H
  H87      1.0000 0.68727  0.22511  0.69213  Biso   1.000  H
  H88      1.0000 0.66786  0.22790  0.78642  Biso   1.000  H
  H89      1.0000 0.62823  0.31014  0.73803  Biso   1.000  H
  H90      1.0000 0.50514  0.91749  0.02112  Biso   1.000  H
  H91      1.0000 0.60977  0.00350  0.10371  Biso   1.000  H
  H92      1.0000 0.23577  0.83863  0.99197  Biso   1.000  H
  Ne1      1.0000 0.36599  0.70498  0.27167  Biso   1.000  Ne
  He1      1.0000 0.85969  0.20088  0.49014  Biso   1.000  He
  He2      1.0000 0.20806  0.59240  0.11308  Biso   1.000  He
  Ar1      1.0000 0.36533  0.71955  0.26295  Biso   1.000  Ar
  Ne2      1.0000 0.63400  0.29503  0.72833  Biso   1.000  Ne
  He3      1.0000 0.79459  0.41260  0.89038  Biso   1.000  He
  He4      1.0000 0.45289  0.10698  0.58204  Biso   1.000  He
  Ar2      1.0000 0.63899  0.27130  0.73687  Biso   1.000  Ar
