data_image0
_cell_length_a       12.751
_cell_length_b       15.13
_cell_length_c       19.335
_cell_angle_alpha    91.3
_cell_angle_beta     92.89
_cell_angle_gamma    92.91

_symmetry_space_group_name_H-M    "P 1"
_symmetry_int_tables_number       1

loop_
  _symmetry_equiv_pos_as_xyz
  'x, y, z'

loop_
  _atom_site_label
  _atom_site_occupancy
  _atom_site_fract_x
  _atom_site_fract_y
  _atom_site_fract_z
  _atom_site_thermal_displace_type
  _atom_site_B_iso_or_equiv
  _atom_site_type_symbol
  O1       1.0000 0.54682  0.27634  0.35925  Biso   1.000  O
  C1       1.0000 0.61830  0.32734  0.34423  Biso   1.000  C
  N1       1.0000 0.61040  0.39414  0.29802  Biso   1.000  N
  N2       1.0000 0.72028  0.32422  0.36852  Biso   1.000  N
  C2       1.0000 0.51731  0.39604  0.25233  Biso   1.000  C
  C3       1.0000 0.71311  0.43663  0.28569  Biso   1.000  C
  C4       1.0000 0.78827  0.39350  0.34153  Biso   1.000  C
  C5       1.0000 0.75289  0.25571  0.41509  Biso   1.000  C
  N3       1.0000 0.45245  0.46971  0.26512  Biso   1.000  N
  H1       1.0000 0.47488  0.34092  0.25678  Biso   1.000  H
  H2       1.0000 0.53887  0.39819  0.20441  Biso   1.000  H
  N4       1.0000 0.72077  0.53010  0.30708  Biso   1.000  N
  C6       1.0000 0.74690  0.42129  0.21249  Biso   1.000  C
  N5       1.0000 0.81455  0.46682  0.39059  Biso   1.000  N
  C7       1.0000 0.88620  0.35889  0.30900  Biso   1.000  C
  N6       1.0000 0.75601  0.28075  0.48751  Biso   1.000  N
  H3       1.0000 0.82303  0.23852  0.40333  Biso   1.000  H
  H4       1.0000 0.70453  0.20364  0.40732  Biso   1.000  H
  C8       1.0000 0.35441  0.45674  0.28952  Biso   1.000  C
  C9       1.0000 0.47399  0.55889  0.24161  Biso   1.000  C
  C10      1.0000 0.67107  0.60081  0.27118  Biso   1.000  C
  C11      1.0000 0.78107  0.54601  0.36723  Biso   1.000  C
  H5       1.0000 0.70084  0.45254  0.18032  Biso   1.000  H
  H6       1.0000 0.73857  0.35790  0.20068  Biso   1.000  H
  C12      1.0000 0.86054  0.45310  0.20379  Biso   1.000  C
  C13      1.0000 0.88969  0.46370  0.44959  Biso   1.000  C
  C14      1.0000 0.93556  0.42825  0.26398  Biso   1.000  C
  H7       1.0000 0.86647  0.30531  0.28092  Biso   1.000  H
  H8       1.0000 0.93724  0.34340  0.34573  Biso   1.000  H
  C15      1.0000 0.67783  0.25504  0.52942  Biso   1.000  C
  C16      1.0000 0.84257  0.33002  0.52533  Biso   1.000  C
  O2       1.0000 0.31353  0.38600  0.30605  Biso   1.000  O
  N7       1.0000 0.30733  0.53675  0.28973  Biso   1.000  N
  C17      1.0000 0.37385  0.60762  0.26290  Biso   1.000  C
  N8       1.0000 0.55970  0.60633  0.28211  Biso   1.000  N
  C18      1.0000 0.48819  0.56102  0.16411  Biso   1.000  C
  H9       1.0000 0.68020  0.59291  0.22140  Biso   1.000  H
  H10      1.0000 0.70738  0.65715  0.28621  Biso   1.000  H
  O3       1.0000 0.80567  0.61893  0.39359  Biso   1.000  O
  H11      1.0000 0.86396  0.51763  0.19980  Biso   1.000  H
  H12      1.0000 0.88424  0.42762  0.16059  Biso   1.000  H
  N9       1.0000 0.84776  0.42464  0.51051  Biso   1.000  N
  H13      1.0000 0.91669  0.52412  0.46171  Biso   1.000  H
  H14      1.0000 0.94919  0.43003  0.43581  Biso   1.000  H
  H15      1.0000 0.95606  0.48132  0.29242  Biso   1.000  H
  H16      1.0000 0.99944  0.40580  0.24528  Biso   1.000  H
  O4       1.0000 0.60049  0.20721  0.51160  Biso   1.000  O
  N10      1.0000 0.70208  0.28774  0.59515  Biso   1.000  N
  C19      1.0000 0.80889  0.32821  0.60220  Biso   1.000  C
  C20      1.0000 0.94736  0.28772  0.51683  Biso   1.000  C
  C21      1.0000 0.19957  0.54311  0.30833  Biso   1.000  C
  N11      1.0000 0.41700  0.67072  0.31693  Biso   1.000  N
  C22      1.0000 0.32170  0.65289  0.20161  Biso   1.000  C
  C23      1.0000 0.52497  0.67091  0.32470  Biso   1.000  C
  C24      1.0000 0.38578  0.53152  0.12391  Biso   1.000  C
  H17      1.0000 0.50989  0.62122  0.15121  Biso   1.000  H
  H18      1.0000 0.54356  0.52171  0.15209  Biso   1.000  H
  C25      1.0000 0.83510  0.47655  0.56863  Biso   1.000  C
  C26      1.0000 0.64025  0.26021  0.65240  Biso   1.000  C
  N12      1.0000 0.81274  0.42157  0.62209  Biso   1.000  N
  C27      1.0000 0.88132  0.27363  0.64784  Biso   1.000  C
  C28      1.0000 0.94430  0.19320  0.54299  Biso   1.000  C
  H19      1.0000 0.96358  0.28713  0.46783  Biso   1.000  H
  H20      1.0000 0.00340  0.32324  0.54273  Biso   1.000  H
  N13      1.0000 0.18734  0.57852  0.37790  Biso   1.000  N
  H21      1.0000 0.16440  0.48401  0.30413  Biso   1.000  H
  H22      1.0000 0.16386  0.58095  0.27512  Biso   1.000  H
  C29      1.0000 0.35982  0.73981  0.34759  Biso   1.000  C
  C30      1.0000 0.29390  0.58794  0.14142  Biso   1.000  C
  H23      1.0000 0.25760  0.67944  0.21622  Biso   1.000  H
  H24      1.0000 0.36929  0.70064  0.18628  Biso   1.000  H
  O5       1.0000 0.58036  0.72265  0.36122  Biso   1.000  O
  H25      1.0000 0.39644  0.53461  0.07418  Biso   1.000  H
  H26      1.0000 0.36754  0.46958  0.13422  Biso   1.000  H
  O6       1.0000 0.84641  0.55662  0.57247  Biso   1.000  O
  N14      1.0000 0.58301  0.32937  0.68311  Biso   1.000  N
  H27      1.0000 0.68729  0.23655  0.68830  Biso   1.000  H
  H28      1.0000 0.59016  0.21217  0.63613  Biso   1.000  H
  C31      1.0000 0.80043  0.45697  0.69171  Biso   1.000  C
  H29      1.0000 0.85135  0.26536  0.69311  Biso   1.000  H
  H30      1.0000 0.95020  0.30491  0.65530  Biso   1.000  H
  C32      1.0000 0.89371  0.18401  0.61272  Biso   1.000  C
  H31      1.0000 0.90497  0.15430  0.50859  Biso   1.000  H
  H32      1.0000 0.01632  0.17356  0.54750  Biso   1.000  H
  C33      1.0000 0.19111  0.67181  0.39779  Biso   1.000  C
  C34      1.0000 0.16490  0.52353  0.43141  Biso   1.000  C
  N15      1.0000 0.29793  0.71235  0.40489  Biso   1.000  N
  H33      1.0000 0.31271  0.76353  0.31169  Biso   1.000  H
  H34      1.0000 0.40993  0.78792  0.36391  Biso   1.000  H
  H35      1.0000 0.27245  0.62103  0.10050  Biso   1.000  H
  H36      1.0000 0.23402  0.54895  0.15313  Biso   1.000  H
  C35      1.0000 0.47503  0.32911  0.67529  Biso   1.000  C
  C36      1.0000 0.62615  0.39246  0.73709  Biso   1.000  C
  N16      1.0000 0.69268  0.46333  0.71031  Biso   1.000  N
  H37      1.0000 0.83561  0.51608  0.69591  Biso   1.000  H
  H38      1.0000 0.83614  0.41913  0.72492  Biso   1.000  H
  H39      1.0000 0.93724  0.14813  0.64312  Biso   1.000  H
  H40      1.0000 0.82440  0.15314  0.60552  Biso   1.000  H
  C37      1.0000 0.11868  0.72646  0.35220  Biso   1.000  C
  C38      1.0000 0.15744  0.67007  0.47471  Biso   1.000  C
  O7       1.0000 0.15358  0.44340  0.42752  Biso   1.000  O
  N17      1.0000 0.15224  0.57545  0.48953  Biso   1.000  N
  C39      1.0000 0.32218  0.74505  0.47062  Biso   1.000  C
  N18      1.0000 0.44030  0.39376  0.71793  Biso   1.000  N
  O8       1.0000 0.41964  0.27744  0.63882  Biso   1.000  O
  C40      1.0000 0.52601  0.44113  0.75844  Biso   1.000  C
  C41      1.0000 0.67830  0.34713  0.79843  Biso   1.000  C
  C42      1.0000 0.64560  0.54335  0.71052  Biso   1.000  C
  H41      1.0000 0.14866  0.73472  0.30693  Biso   1.000  H
  H42      1.0000 0.04980  0.69511  0.34469  Biso   1.000  H
  C43      1.0000 0.10629  0.81601  0.38732  Biso   1.000  C
  N19      1.0000 0.24399  0.71934  0.51253  Biso   1.000  N
  C44      1.0000 0.05264  0.71236  0.48321  Biso   1.000  C
  C45      1.0000 0.11031  0.53632  0.55040  Biso   1.000  C
  O9       1.0000 0.39951  0.79281  0.48844  Biso   1.000  O
  C46      1.0000 0.32893  0.39927  0.72880  Biso   1.000  C
  N20      1.0000 0.54755  0.53037  0.73492  Biso   1.000  N
  C47      1.0000 0.51182  0.43907  0.83593  Biso   1.000  C
  C48      1.0000 0.70611  0.41214  0.85862  Biso   1.000  C
  H43      1.0000 0.74240  0.32065  0.78382  Biso   1.000  H
  H44      1.0000 0.63071  0.29944  0.81371  Biso   1.000  H
  O10      1.0000 0.68655  0.61402  0.69399  Biso   1.000  O
  H45      1.0000 0.06277  0.85195  0.35692  Biso   1.000  H
  H46      1.0000 0.17561  0.84695  0.39453  Biso   1.000  H
  C49      1.0000 0.05570  0.80682  0.45700  Biso   1.000  C
  C50      1.0000 0.24711  0.74431  0.58490  Biso   1.000  C
  H47      1.0000 0.03643  0.71296  0.53222  Biso   1.000  H
  H48      1.0000 0.99660  0.67685  0.45731  Biso   1.000  H
  N21      1.0000 0.18545  0.53326  0.60940  Biso   1.000  N
  H49      1.0000 0.08331  0.47590  0.53833  Biso   1.000  H
  H50      1.0000 0.05081  0.57005  0.56423  Biso   1.000  H
  N22      1.0000 0.27923  0.46992  0.69291  Biso   1.000  N
  H51      1.0000 0.31988  0.40717  0.77864  Biso   1.000  H
  H52      1.0000 0.29263  0.34293  0.71383  Biso   1.000  H
  C51      1.0000 0.48270  0.60405  0.74771  Biso   1.000  C
  C52      1.0000 0.61423  0.46856  0.87613  Biso   1.000  C
  H53      1.0000 0.49012  0.37887  0.84883  Biso   1.000  H
  H54      1.0000 0.45644  0.47837  0.84790  Biso   1.000  H
  H55      1.0000 0.72755  0.37905  0.89949  Biso   1.000  H
  H56      1.0000 0.76599  0.45114  0.84691  Biso   1.000  H
  H57      1.0000 0.09502  0.84572  0.49140  Biso   1.000  H
  H58      1.0000 0.98369  0.82652  0.45249  Biso   1.000  H
  N23      1.0000 0.27972  0.67587  0.63152  Biso   1.000  N
  H59      1.0000 0.17706  0.76157  0.59671  Biso   1.000  H
  H60      1.0000 0.29555  0.79645  0.59272  Biso   1.000  H
  C53      1.0000 0.21173  0.60652  0.65851  Biso   1.000  C
  C54      1.0000 0.21893  0.45401  0.63281  Biso   1.000  C
  C55      1.0000 0.28697  0.56346  0.71430  Biso   1.000  C
  N24      1.0000 0.38960  0.60595  0.70202  Biso   1.000  N
  H61      1.0000 0.52512  0.65916  0.74321  Biso   1.000  H
  H62      1.0000 0.46113  0.60183  0.79563  Biso   1.000  H
  H63      1.0000 0.60356  0.46547  0.92581  Biso   1.000  H
  H64      1.0000 0.63246  0.53044  0.86582  Biso   1.000  H
  C56      1.0000 0.38170  0.67275  0.65582  Biso   1.000  C
  C57      1.0000 0.11380  0.64113  0.69099  Biso   1.000  C
  O11      1.0000 0.19433  0.38115  0.60640  Biso   1.000  O
  C58      1.0000 0.25317  0.57873  0.78750  Biso   1.000  C
  O12      1.0000 0.45318  0.72375  0.64074  Biso   1.000  O
  H65      1.0000 0.13353  0.69472  0.71912  Biso   1.000  H
  H66      1.0000 0.06276  0.65662  0.65431  Biso   1.000  H
  C59      1.0000 0.06444  0.57184  0.73600  Biso   1.000  C
  H67      1.0000 0.29917  0.54754  0.81972  Biso   1.000  H
  H68      1.0000 0.26143  0.64218  0.79931  Biso   1.000  H
  C60      1.0000 0.13946  0.54692  0.79620  Biso   1.000  C
  H69      1.0000 0.04394  0.51877  0.70762  Biso   1.000  H
  H70      1.0000 0.00056  0.59422  0.75471  Biso   1.000  H
  H71      1.0000 0.13604  0.48246  0.80024  Biso   1.000  H
  H72      1.0000 0.11576  0.57247  0.83940  Biso   1.000  H
  C61      1.0000 0.51830  0.17694  0.18151  Biso   1.000  C
  N25      1.0000 0.41177  0.17103  0.18473  Biso   1.000  N
  N26      1.0000 0.56038  0.11330  0.22301  Biso   1.000  N
  O13      1.0000 0.56965  0.23089  0.14898  Biso   1.000  O
  C62      1.0000 0.37582  0.10583  0.23368  Biso   1.000  C
  C63      1.0000 0.34858  0.23944  0.15572  Biso   1.000  C
  C64      1.0000 0.48073  0.06304  0.25891  Biso   1.000  C
  C65      1.0000 0.67329  0.10974  0.23570  Biso   1.000  C
  C66      1.0000 0.32123  0.14631  0.29408  Biso   1.000  C
  N27      1.0000 0.31454  0.03118  0.20079  Biso   1.000  N
  N28      1.0000 0.28532  0.21202  0.09361  Biso   1.000  N
  H73      1.0000 0.30189  0.25944  0.19089  Biso   1.000  H
  H74      1.0000 0.39540  0.28998  0.14468  Biso   1.000  H
  C67      1.0000 0.49700  0.06664  0.33749  Biso   1.000  C
  N29      1.0000 0.46490  0.97224  0.23213  Biso   1.000  N
  N30      1.0000 0.71976  0.03863  0.19799  Biso   1.000  N
  H75      1.0000 0.70701  0.16624  0.22301  Biso   1.000  H
  H76      1.0000 0.68826  0.10255  0.28543  Biso   1.000  H
  H77      1.0000 0.25404  0.16832  0.27688  Biso   1.000  H
  H78      1.0000 0.36483  0.19690  0.31361  Biso   1.000  H
  C68      1.0000 0.30094  0.08084  0.35101  Biso   1.000  C
  C69      1.0000 0.20622  0.03311  0.17442  Biso   1.000  C
  C70      1.0000 0.36670  0.95435  0.20291  Biso   1.000  C
  C71      1.0000 0.18393  0.16340  0.09210  Biso   1.000  C
  C72      1.0000 0.31120  0.24112  0.02968  Biso   1.000  C
  C73      1.0000 0.39960  0.03060  0.37111  Biso   1.000  C
  H79      1.0000 0.51320  0.12791  0.35339  Biso   1.000  H
  H80      1.0000 0.55681  0.03162  0.35143  Biso   1.000  H
  C74      1.0000 0.53319  0.90124  0.25093  Biso   1.000  C
  C75      1.0000 0.78252  0.05503  0.14422  Biso   1.000  C
  C76      1.0000 0.72454  0.94764  0.22249  Biso   1.000  C
  H81      1.0000 0.27830  0.11274  0.39188  Biso   1.000  H
  H82      1.0000 0.24384  0.03824  0.33521  Biso   1.000  H
  N31      1.0000 0.19199  0.06968  0.10619  Biso   1.000  N
  H83      1.0000 0.16743  0.06778  0.20700  Biso   1.000  H
  H84      1.0000 0.17494  0.97257  0.17302  Biso   1.000  H
  O14      1.0000 0.33040  0.88055  0.18431  Biso   1.000  O
  C77      1.0000 0.10447  0.20738  0.13619  Biso   1.000  C
  C78      1.0000 0.14876  0.16222  0.01259  Biso   1.000  C
  O15      1.0000 0.38782  0.29033  0.01849  Biso   1.000  O
  N32      1.0000 0.23676  0.21046  0.98177  Biso   1.000  N
  H85      1.0000 0.41198  0.03422  0.42151  Biso   1.000  H
  H86      1.0000 0.38687  0.96808  0.35749  Biso   1.000  H
  N33      1.0000 0.62497  0.89647  0.20980  Biso   1.000  N
  H87      1.0000 0.49215  0.84462  0.24590  Biso   1.000  H
  H88      1.0000 0.55656  0.90937  0.29983  Biso   1.000  H
  O16      1.0000 0.80230  0.12648  0.11899  Biso   1.000  O
  N34      1.0000 0.82386  0.97636  0.12433  Biso   1.000  N
  C79      1.0000 0.76797  0.94396  0.29693  Biso   1.000  C
  C80      1.0000 0.79763  0.90445  0.17022  Biso   1.000  C
  C81      1.0000 0.16482  0.01610  0.04952  Biso   1.000  C
  H89      1.0000 0.03868  0.17072  0.13448  Biso   1.000  H
  H90      1.0000 0.13190  0.21212  0.18452  Biso   1.000  H
  C82      1.0000 0.08232  0.29998  0.11008  Biso   1.000  C
  N35      1.0000 0.14167  0.06765  0.99435  Biso   1.000  N
  C83      1.0000 0.04587  0.20816  0.99891  Biso   1.000  C
  C84      1.0000 0.23847  0.23468  0.91023  Biso   1.000  C
  C85      1.0000 0.63069  0.83076  0.16100  Biso   1.000  C
  C86      1.0000 0.89893  0.97145  0.07092  Biso   1.000  C
  H91      1.0000 0.83128  0.98333  0.30309  Biso   1.000  H
  H92      1.0000 0.71579  0.96515  0.32801  Biso   1.000  H
  C87      1.0000 0.79503  0.85015  0.31651  Biso   1.000  C
  N36      1.0000 0.72865  0.83486  0.13629  Biso   1.000  N
  C88      1.0000 0.89474  0.86758  0.20679  Biso   1.000  C
  O17      1.0000 0.15725  0.93586  0.04859  Biso   1.000  O
  H93      1.0000 0.14491  0.33941  0.12008  Biso   1.000  H
  H94      1.0000 0.02482  0.32330  0.13562  Biso   1.000  H
  C89      1.0000 0.05283  0.30077  0.03238  Biso   1.000  C
  C90      1.0000 0.10109  0.02868  0.92913  Biso   1.000  C
  H95      1.0000 0.98763  0.17297  0.01782  Biso   1.000  H
  H96      1.0000 0.03139  0.21237  0.94882  Biso   1.000  H
  N37      1.0000 0.27136  0.16527  0.86371  Biso   1.000  N
  H97      1.0000 0.28614  0.28705  0.90670  Biso   1.000  H
  H98      1.0000 0.16791  0.25098  0.89463  Biso   1.000  H
  O18      1.0000 0.56003  0.77535  0.14411  Biso   1.000  O
  H99      1.0000 0.92748  0.03141  0.06278  Biso   1.000  H
  N38      1.0000 0.85834  0.93242  0.00570  Biso   1.000  N
  H100     1.0000 0.95747  0.93707  0.08822  Biso   1.000  H
  H101     1.0000 0.72978  0.81394  0.32040  Biso   1.000  H
  H102     1.0000 0.83284  0.85248  0.36199  Biso   1.000  H
  C91      1.0000 0.86232  0.80636  0.26388  Biso   1.000  C
  C92      1.0000 0.76154  0.76545  0.08982  Biso   1.000  C
  H103     1.0000 0.94084  0.91653  0.22648  Biso   1.000  H
  H104     1.0000 0.93404  0.83492  0.17312  Biso   1.000  H
  H105     1.0000 0.10560  0.33749  0.00948  Biso   1.000  H
  H106     1.0000 0.98489  0.32761  0.02528  Biso   1.000  H
  H107     1.0000 0.07252  0.96865  0.93722  Biso   1.000  H
  N39      1.0000 0.17615  0.02378  0.87573  Biso   1.000  N
  H108     1.0000 0.04262  0.06306  0.91183  Biso   1.000  H
  C93      1.0000 0.20238  0.09568  0.82983  Biso   1.000  C
  C94      1.0000 0.36940  0.16937  0.83905  Biso   1.000  C
  C95      1.0000 0.83519  0.98397  0.95053  Biso   1.000  C
  C96      1.0000 0.85124  0.83785  0.98741  Biso   1.000  C
  H109     1.0000 0.82294  0.75433  0.24311  Biso   1.000  H
  H110     1.0000 0.92577  0.78597  0.28812  Biso   1.000  H
  N40      1.0000 0.76325  0.78961  0.01829  Biso   1.000  N
  H111     1.0000 0.71387  0.71302  0.09330  Biso   1.000  H
  H112     1.0000 0.83218  0.74915  0.10542  Biso   1.000  H
  C97      1.0000 0.21757  0.94504  0.85583  Biso   1.000  C
  C98      1.0000 0.27546  0.05243  0.77751  Biso   1.000  C
  C99      1.0000 0.10526  0.13255  0.79321  Biso   1.000  C
  O19      1.0000 0.43998  0.22478  0.85589  Biso   1.000  O
  N41      1.0000 0.37504  0.10367  0.79020  Biso   1.000  N
  N42      1.0000 0.80801  0.93032  0.89381  Biso   1.000  N
  O20      1.0000 0.84276  0.06428  0.95141  Biso   1.000  O
  C100     1.0000 0.81616  0.83667  0.90795  Biso   1.000  C
  C101     1.0000 0.95414  0.79197  0.00109  Biso   1.000  C
  C102     1.0000 0.68880  0.75894  0.97032  Biso   1.000  C
  O21      1.0000 0.19778  0.87352  0.88101  Biso   1.000  O
  N43      1.0000 0.28024  0.96143  0.80201  Biso   1.000  N
  C103     1.0000 0.23204  0.05618  0.70312  Biso   1.000  C
  C104     1.0000 0.13768  0.19377  0.73612  Biso   1.000  C
  H113     1.0000 0.05916  0.08354  0.77352  Biso   1.000  H
  H114     1.0000 0.06597  0.16514  0.82693  Biso   1.000  H
  C105     1.0000 0.46681  0.09883  0.74912  Biso   1.000  C
  C106     1.0000 0.79379  0.96696  0.82563  Biso   1.000  C
  N44      1.0000 0.71469  0.78805  0.90645  Biso   1.000  N
  C107     1.0000 0.89553  0.79262  0.86381  Biso   1.000  C
  C108     1.0000 0.94725  0.69923  0.96762  Biso   1.000  C
  H115     1.0000 0.96862  0.78776  0.05118  Biso   1.000  H
  H116     1.0000 0.01238  0.82703  0.98223  Biso   1.000  H
  O22      1.0000 0.61227  0.70974  0.98156  Biso   1.000  O
  C109     1.0000 0.32672  0.89033  0.76435  Biso   1.000  C
  H117     1.0000 0.16880  0.01673  0.69691  Biso   1.000  H
  H118     1.0000 0.28422  0.03492  0.67204  Biso   1.000  H
  C110     1.0000 0.20498  0.14998  0.68354  Biso   1.000  C
  H119     1.0000 0.17707  0.24574  0.75694  Biso   1.000  H
  H120     1.0000 0.07424  0.21417  0.71193  Biso   1.000  H
  N45      1.0000 0.53518  0.02783  0.76793  Biso   1.000  N
  H121     1.0000 0.50786  0.15544  0.75415  Biso   1.000  H
  H122     1.0000 0.44345  0.09076  0.70022  Biso   1.000  H
  N46      1.0000 0.68554  0.96882  0.79921  Biso   1.000  N
  H123     1.0000 0.83258  0.93222  0.79305  Biso   1.000  H
  H124     1.0000 0.82508  0.02756  0.82703  Biso   1.000  H
  C111     1.0000 0.65143  0.76062  0.84433  Biso   1.000  C
  H125     1.0000 0.96132  0.82934  0.86552  Biso   1.000  H
  H126     1.0000 0.86811  0.78795  0.81553  Biso   1.000  H
  C112     1.0000 0.91775  0.70002  0.88992  Biso   1.000  C
  H127     1.0000 0.89440  0.66251  0.99052  Biso   1.000  H
  H128     1.0000 0.01520  0.67246  0.97472  Biso   1.000  H
  N47      1.0000 0.43962  0.88670  0.77704  Biso   1.000  N
  H129     1.0000 0.29300  0.83383  0.77704  Biso   1.000  H
  H130     1.0000 0.31175  0.89752  0.71462  Biso   1.000  H
  H131     1.0000 0.27022  0.18612  0.67960  Biso   1.000  H
  H132     1.0000 0.16717  0.14765  0.63801  Biso   1.000  H
  C113     1.0000 0.51935  0.93703  0.74114  Biso   1.000  C
  C114     1.0000 0.63339  0.04579  0.79714  Biso   1.000  C
  C115     1.0000 0.62418  0.89423  0.76632  Biso   1.000  C
  N48      1.0000 0.58824  0.82904  0.81533  Biso   1.000  N
  H133     1.0000 0.69812  0.74062  0.80911  Biso   1.000  H
  H134     1.0000 0.60460  0.71002  0.85532  Biso   1.000  H
  H135     1.0000 0.85509  0.66065  0.87992  Biso   1.000  H
  H136     1.0000 0.97518  0.67676  0.86443  Biso   1.000  H
  C116     1.0000 0.48171  0.82312  0.81854  Biso   1.000  C
  C117     1.0000 0.50301  0.93343  0.66251  Biso   1.000  C
  O23      1.0000 0.66969  0.11958  0.81574  Biso   1.000  O
  C118     1.0000 0.67885  0.85376  0.70592  Biso   1.000  C
  O24      1.0000 0.43035  0.76911  0.85102  Biso   1.000  O
  C119     1.0000 0.60041  0.96940  0.62894  Biso   1.000  C
  H137     1.0000 0.48680  0.87209  0.64661  Biso   1.000  H
  H138     1.0000 0.44320  0.96845  0.64863  Biso   1.000  H
  H139     1.0000 0.74605  0.83175  0.72312  Biso   1.000  H
  H140     1.0000 0.63517  0.80310  0.68644  Biso   1.000  H
  C120     1.0000 0.69907  0.91923  0.64904  Biso   1.000  C
  H141     1.0000 0.58803  0.96585  0.57854  Biso   1.000  H
  H142     1.0000 0.61314  0.03205  0.64251  Biso   1.000  H
  H143     1.0000 0.72170  0.88733  0.60812  Biso   1.000  H
  H144     1.0000 0.75617  0.96183  0.66484  Biso   1.000  H
