data_image0
_cell_length_a       17.939
_cell_length_b       20.419
_cell_length_c       21.475
_cell_angle_alpha    65.46
_cell_angle_beta     81.08
_cell_angle_gamma    79.92

_symmetry_space_group_name_H-M    "P 1"
_symmetry_int_tables_number       1

loop_
  _symmetry_equiv_pos_as_xyz
  'x, y, z'

loop_
  _atom_site_label
  _atom_site_occupancy
  _atom_site_fract_x
  _atom_site_fract_y
  _atom_site_fract_z
  _atom_site_thermal_displace_type
  _atom_site_B_iso_or_equiv
  _atom_site_type_symbol
  C1       1.0000 0.48562  0.45789  0.64270  Biso   1.000  C
  C2       1.0000 0.52351  0.39918  0.69020  Biso   1.000  C
  H1       1.0000 0.49501  0.46571  0.59602  Biso   1.000  H
  C3       1.0000 0.43200  0.50749  0.66239  Biso   1.000  C
  C4       1.0000 0.58627  0.35020  0.67102  Biso   1.000  C
  C5       1.0000 0.50700  0.38549  0.75991  Biso   1.000  C
  C6       1.0000 0.42020  0.49339  0.73271  Biso   1.000  C
  H2       1.0000 0.40398  0.55099  0.62702  Biso   1.000  H
  C7       1.0000 0.57588  0.33471  0.60908  Biso   1.000  C
  H3       1.0000 0.63349  0.37162  0.66151  Biso   1.000  H
  H4       1.0000 0.59229  0.30399  0.71071  Biso   1.000  H
  H5       1.0000 0.53497  0.33801  0.79800  Biso   1.000  H
  C8       1.0000 0.45519  0.43221  0.78042  Biso   1.000  C
  C9       1.0000 0.36691  0.54617  0.75502  Biso   1.000  C
  C10      1.0000 0.51122  0.30519  0.60830  Biso   1.000  C
  C11      1.0000 0.63047  0.34869  0.55402  Biso   1.000  C
  H6       1.0000 0.44360  0.42201  0.82802  Biso   1.000  H
  H7       1.0000 0.35157  0.53171  0.80602  Biso   1.000  H
  N1       1.0000 0.34051  0.60648  0.71482  Biso   1.000  N
  C12      1.0000 0.50217  0.29172  0.55171  Biso   1.000  C
  H8       1.0000 0.47702  0.29540  0.64300  Biso   1.000  H
  C13      1.0000 0.62028  0.33652  0.49588  Biso   1.000  C
  H9       1.0000 0.68498  0.37049  0.55530  Biso   1.000  H
  C14      1.0000 0.29138  0.65539  0.74561  Biso   1.000  C
  C15      1.0000 0.55562  0.30828  0.49490  Biso   1.000  C
  H10      1.0000 0.46402  0.27297  0.55181  Biso   1.000  H
  H11      1.0000 0.65821  0.34772  0.45701  Biso   1.000  H
  C16      1.0000 0.21619  0.68140  0.71492  Biso   1.000  C
  H12      1.0000 0.28280  0.62891  0.79502  Biso   1.000  H
  H13      1.0000 0.31750  0.69699  0.73682  Biso   1.000  H
  C17      1.0000 0.54638  0.29667  0.43342  Biso   1.000  C
  C18      1.0000 0.20878  0.74618  0.65442  Biso   1.000  C
  C19      1.0000 0.15513  0.64369  0.74469  Biso   1.000  C
  N2       1.0000 0.49492  0.26240  0.43151  Biso   1.000  N
  H14      1.0000 0.58497  0.31818  0.38802  Biso   1.000  H
  C20      1.0000 0.13852  0.77072  0.62578  Biso   1.000  C
  C21      1.0000 0.27488  0.78909  0.61889  Biso   1.000  C
  C22      1.0000 0.08411  0.66960  0.71600  Biso   1.000  C
  C23      1.0000 0.16422  0.57120  0.80628  Biso   1.000  C
  C24      1.0000 0.49249  0.25188  0.36792  Biso   1.000  C
  C25      1.0000 0.13190  0.84042  0.56080  Biso   1.000  C
  C26      1.0000 0.07722  0.73229  0.65431  Biso   1.000  C
  H15      1.0000 0.28301  0.79499  0.57088  Biso   1.000  H
  H16      1.0000 0.26350  0.83700  0.62100  Biso   1.000  H
  H17      1.0000 0.32072  0.76330  0.64198  Biso   1.000  H
  C27      1.0000 0.01489  0.63168  0.75029  Biso   1.000  C
  H18      1.0000 0.11799  0.55899  0.82699  Biso   1.000  H
  H19      1.0000 0.18801  0.53702  0.79198  Biso   1.000  H
  H20      1.0000 0.19199  0.57480  0.83599  Biso   1.000  H
  C28      1.0000 0.41639  0.27671  0.34099  Biso   1.000  C
  H21      1.0000 0.52799  0.27698  0.33502  Biso   1.000  H
  H22      1.0000 0.50519  0.20399  0.37641  Biso   1.000  H
  N3       1.0000 0.16780  0.82759  0.50009  Biso   1.000  N
  H23      1.0000 0.15628  0.87700  0.56559  Biso   1.000  H
  H24      1.0000 0.07902  0.85888  0.55500  Biso   1.000  H
  C29      1.0000 0.00331  0.75590  0.62260  Biso   1.000  C
  N4       1.0000 0.99668  0.58968  0.71420  Biso   1.000  N
  H25      1.0000 0.02370  0.59900  0.79800  Biso   1.000  H
  H26      1.0000 0.97098  0.66799  0.75147  Biso   1.000  H
  C30      1.0000 0.40360  0.34219  0.28259  Biso   1.000  C
  C31      1.0000 0.35873  0.23218  0.37029  Biso   1.000  C
  C32      1.0000 0.13008  0.85812  0.44591  Biso   1.000  C
  H27      1.0000 0.01341  0.78400  0.56898  Biso   1.000  H
  H28      1.0000 0.97603  0.70999  0.63298  Biso   1.000  H
  H29      1.0000 0.96802  0.79002  0.64398  Biso   1.000  H
  C33      1.0000 0.99918  0.52549  0.74438  Biso   1.000  C
  C34      1.0000 0.33398  0.36261  0.25370  Biso   1.000  C
  C35      1.0000 0.46381  0.39349  0.25539  Biso   1.000  C
  C36      1.0000 0.28749  0.25197  0.34361  Biso   1.000  C
  C37      1.0000 0.37208  0.16272  0.43388  Biso   1.000  C
  C38      1.0000 0.16111  0.84859  0.38268  Biso   1.000  C
  H30      1.0000 0.08002  0.88799  0.44750  Biso   1.000  H
  C39      1.0000 0.97921  0.47607  0.71431  Biso   1.000  C
  H31      1.0000 0.01422  0.50459  0.78880  Biso   1.000  H
  C40      1.0000 0.27458  0.31881  0.28531  Biso   1.000  C
  C41      1.0000 0.32102  0.43080  0.19031  Biso   1.000  C
  H32      1.0000 0.49201  0.38902  0.29600  Biso   1.000  H
  H33      1.0000 0.50200  0.37998  0.22002  Biso   1.000  H
  H34      1.0000 0.43829  0.44602  0.23200  Biso   1.000  H
  C42      1.0000 0.22789  0.20211  0.37378  Biso   1.000  C
  H35      1.0000 0.32401  0.15251  0.46298  Biso   1.000  H
  H36      1.0000 0.39202  0.12201  0.42000  Biso   1.000  H
  H37      1.0000 0.40899  0.16829  0.45999  Biso   1.000  H
  C43      1.0000 0.22998  0.80631  0.37713  Biso   1.000  C
  C44      1.0000 0.12039  0.88332  0.32418  Biso   1.000  C
  C45      1.0000 0.01570  0.40771  0.73348  Biso   1.000  C
  C46      1.0000 0.92840  0.49939  0.66722  Biso   1.000  C
  C47      1.0000 0.19757  0.34360  0.25822  Biso   1.000  C
  H38      1.0000 0.27999  0.42351  0.16178  Biso   1.000  H
  H39      1.0000 0.37400  0.43979  0.15798  Biso   1.000  H
  N5       1.0000 0.29269  0.49519  0.20501  Biso   1.000  N
  N6       1.0000 0.17410  0.21081  0.43049  Biso   1.000  N
  H40      1.0000 0.25572  0.14801  0.39239  Biso   1.000  H
  H41      1.0000 0.19550  0.20848  0.33302  Biso   1.000  H
  C48      1.0000 0.25769  0.80031  0.31508  Biso   1.000  C
  H42      1.0000 0.26102  0.77900  0.42000  Biso   1.000  H
  C49      1.0000 0.14668  0.87478  0.26321  Biso   1.000  C
  H43      1.0000 0.07899  0.91003  0.32608  Biso   1.000  H
  C50      1.0000 0.00059  0.36309  0.70598  Biso   1.000  C
  H44      1.0000 0.05128  0.39130  0.76571  Biso   1.000  H
  C51      1.0000 0.91220  0.45333  0.64028  Biso   1.000  C
  H45      1.0000 0.90600  0.54301  0.65401  Biso   1.000  H
  H46      1.0000 0.18602  0.39000  0.24902  Biso   1.000  H
  H47      1.0000 0.19869  0.33599  0.22100  Biso   1.000  H
  H48      1.0000 0.16398  0.31899  0.28901  Biso   1.000  H
  C52      1.0000 0.32549  0.55131  0.16872  Biso   1.000  C
  C53      1.0000 0.16782  0.26861  0.43923  Biso   1.000  C
  C54      1.0000 0.21632  0.83451  0.25678  Biso   1.000  C
  H49      1.0000 0.31200  0.76901  0.31168  Biso   1.000  H
  H50      1.0000 0.11801  0.89599  0.22702  Biso   1.000  H
  C55      1.0000 0.94782  0.38242  0.66079  Biso   1.000  C
  H51      1.0000 0.02998  0.31300  0.72001  Biso   1.000  H
  H52      1.0000 0.87099  0.47301  0.60301  Biso   1.000  H
  H53      1.0000 0.37002  0.54800  0.13299  Biso   1.000  H
  C56      1.0000 0.30250  0.62167  0.17622  Biso   1.000  C
  C57      1.0000 0.11128  0.28281  0.49161  Biso   1.000  C
  H54      1.0000 0.19200  0.29600  0.41799  Biso   1.000  H
  C58      1.0000 0.24758  0.83003  0.18959  Biso   1.000  C
  C59      1.0000 0.93098  0.33250  0.63062  Biso   1.000  C
  C60      1.0000 0.24680  0.63080  0.22352  Biso   1.000  C
  C61      1.0000 0.34202  0.68012  0.13510  Biso   1.000  C
  C62      1.0000 0.09903  0.35050  0.49397  Biso   1.000  C
  C63      1.0000 0.06582  0.23041  0.53690  Biso   1.000  C
  C64      1.0000 0.26681  0.75672  0.18779  Biso   1.000  C
  H55      1.0000 0.29312  0.85380  0.17401  Biso   1.000  H
  H56      1.0000 0.21112  0.85771  0.15659  Biso   1.000  H
  C65      1.0000 0.99711  0.31471  0.58358  Biso   1.000  C
  H57      1.0000 0.91832  0.28797  0.66701  Biso   1.000  H
  H58      1.0000 0.88799  0.35438  0.60512  Biso   1.000  H
  C66      1.0000 0.22791  0.69831  0.22881  Biso   1.000  C
  H59      1.0000 0.21698  0.58701  0.25699  Biso   1.000  H
  H60      1.0000 0.37399  0.67521  0.10898  Biso   1.000  H
  C67      1.0000 0.32538  0.74670  0.13978  Biso   1.000  C
  C68      1.0000 0.04282  0.36609  0.53952  Biso   1.000  C
  H61      1.0000 0.12962  0.38690  0.46400  Biso   1.000  H
  C69      1.0000 0.01202  0.24670  0.58101  Biso   1.000  C
  H62      1.0000 0.07230  0.18701  0.53659  Biso   1.000  H
  H63      1.0000 0.18300  0.70450  0.26501  Biso   1.000  H
  H64      1.0000 0.35602  0.78898  0.10801  Biso   1.000  H
  H65      1.0000 0.03549  0.41298  0.54040  Biso   1.000  H
  H66      1.0000 0.97899  0.20499  0.61602  Biso   1.000  H
  C70      1.0000 0.51440  0.54213  0.35728  Biso   1.000  C
  C71      1.0000 0.56802  0.49252  0.33759  Biso   1.000  C
  H67      1.0000 0.50501  0.53429  0.40401  Biso   1.000  H
  C72      1.0000 0.47653  0.60078  0.30978  Biso   1.000  C
  C73      1.0000 0.57982  0.50660  0.26732  Biso   1.000  C
  H68      1.0000 0.59598  0.44900  0.37301  Biso   1.000  H
  C74      1.0000 0.49302  0.61450  0.24012  Biso   1.000  C
  C75      1.0000 0.41369  0.64979  0.32901  Biso   1.000  C
  C76      1.0000 0.63311  0.45382  0.24501  Biso   1.000  C
  C77      1.0000 0.54482  0.56778  0.21961  Biso   1.000  C
  H69      1.0000 0.46500  0.66200  0.20198  Biso   1.000  H
  C78      1.0000 0.42409  0.66531  0.39090  Biso   1.000  C
  H70      1.0000 0.36653  0.62838  0.33852  Biso   1.000  H
  H71      1.0000 0.40767  0.69600  0.28932  Biso   1.000  H
  H72      1.0000 0.64839  0.46828  0.19401  Biso   1.000  H
  N7       1.0000 0.65951  0.39351  0.28521  Biso   1.000  N
  H73      1.0000 0.55642  0.57798  0.17201  Biso   1.000  H
  C79      1.0000 0.36949  0.65130  0.44601  Biso   1.000  C
  C80      1.0000 0.48880  0.69480  0.39173  Biso   1.000  C
  C81      1.0000 0.70858  0.34460  0.25442  Biso   1.000  C
  C82      1.0000 0.37969  0.66349  0.50410  Biso   1.000  C
  H74      1.0000 0.31498  0.62953  0.44467  Biso   1.000  H
  C83      1.0000 0.49779  0.70827  0.44832  Biso   1.000  C
  H75      1.0000 0.52300  0.70459  0.35703  Biso   1.000  H
  H76      1.0000 0.71722  0.37108  0.20501  Biso   1.000  H
  H77      1.0000 0.68252  0.30300  0.26321  Biso   1.000  H
  C84      1.0000 0.78383  0.31860  0.28511  Biso   1.000  C
  H78      1.0000 0.34181  0.65228  0.54302  Biso   1.000  H
  C85      1.0000 0.44440  0.69173  0.50508  Biso   1.000  C
  H79      1.0000 0.53601  0.72697  0.44822  Biso   1.000  H
  C86      1.0000 0.84489  0.35632  0.25529  Biso   1.000  C
  C87      1.0000 0.79119  0.25382  0.34561  Biso   1.000  C
  C88      1.0000 0.45359  0.70327  0.56661  Biso   1.000  C
  C89      1.0000 0.91591  0.33041  0.28397  Biso   1.000  C
  C90      1.0000 0.83580  0.42882  0.19370  Biso   1.000  C
  C91      1.0000 0.86151  0.22929  0.37420  Biso   1.000  C
  C92      1.0000 0.72508  0.21092  0.38108  Biso   1.000  C
  H80      1.0000 0.41499  0.68182  0.61201  Biso   1.000  H
  N8       1.0000 0.50510  0.73759  0.56852  Biso   1.000  N
  C93      1.0000 0.98508  0.36828  0.24969  Biso   1.000  C
  C94      1.0000 0.92280  0.26770  0.34572  Biso   1.000  C
  H81      1.0000 0.88198  0.44103  0.17299  Biso   1.000  H
  H82      1.0000 0.81202  0.46299  0.20799  Biso   1.000  H
  H83      1.0000 0.80798  0.42522  0.16399  Biso   1.000  H
  C95      1.0000 0.86812  0.15957  0.43923  Biso   1.000  C
  H84      1.0000 0.71701  0.20503  0.42910  Biso   1.000  H
  H85      1.0000 0.73652  0.16301  0.37898  Biso   1.000  H
  H86      1.0000 0.67930  0.23671  0.35800  Biso   1.000  H
  C96      1.0000 0.50748  0.74811  0.63211  Biso   1.000  C
  H87      1.0000 0.97633  0.40101  0.20198  Biso   1.000  H
  H88      1.0000 0.02898  0.33202  0.24850  Biso   1.000  H
  N9       1.0000 0.00329  0.41026  0.28583  Biso   1.000  N
  C97      1.0000 0.99671  0.24412  0.37738  Biso   1.000  C
  N10      1.0000 0.83222  0.17243  0.49989  Biso   1.000  N
  H89      1.0000 0.84369  0.12301  0.43439  Biso   1.000  H
  H90      1.0000 0.92102  0.14108  0.44498  Biso   1.000  H
  H91      1.0000 0.47197  0.72301  0.66501  Biso   1.000  H
  H92      1.0000 0.49477  0.79600  0.62362  Biso   1.000  H
  C98      1.0000 0.58357  0.72331  0.65899  Biso   1.000  C
  C99      1.0000 0.00079  0.47448  0.25560  Biso   1.000  C
  H93      1.0000 0.98661  0.21601  0.43100  Biso   1.000  H
  H94      1.0000 0.02400  0.29002  0.36700  Biso   1.000  H
  H95      1.0000 0.03200  0.21000  0.35600  Biso   1.000  H
  C100     1.0000 0.86988  0.14187  0.55412  Biso   1.000  C
  C101     1.0000 0.59637  0.65782  0.71739  Biso   1.000  C
  C102     1.0000 0.64130  0.76778  0.62969  Biso   1.000  C
  H96      1.0000 0.98580  0.49542  0.21118  Biso   1.000  H
  C103     1.0000 0.02081  0.52387  0.28572  Biso   1.000  C
  H97      1.0000 0.92001  0.11203  0.55248  Biso   1.000  H
  C104     1.0000 0.83893  0.15138  0.61730  Biso   1.000  C
  C105     1.0000 0.66598  0.63740  0.74628  Biso   1.000  C
  C106     1.0000 0.53621  0.60653  0.74459  Biso   1.000  C
  C107     1.0000 0.62789  0.83729  0.56610  Biso   1.000  C
  C108     1.0000 0.71248  0.74797  0.65642  Biso   1.000  C
  C109     1.0000 0.98433  0.59230  0.26650  Biso   1.000  C
  C110     1.0000 0.07162  0.50060  0.33281  Biso   1.000  C
  C111     1.0000 0.87957  0.11669  0.67580  Biso   1.000  C
  C112     1.0000 0.76998  0.19369  0.62290  Biso   1.000  C
  C113     1.0000 0.67900  0.56920  0.80972  Biso   1.000  C
  C114     1.0000 0.72539  0.68119  0.71472  Biso   1.000  C
  H98      1.0000 0.50801  0.61098  0.70403  Biso   1.000  H
  H99      1.0000 0.49802  0.62001  0.78001  Biso   1.000  H
  H100     1.0000 0.56173  0.55400  0.76798  Biso   1.000  H
  H101     1.0000 0.67602  0.84751  0.53700  Biso   1.000  H
  H102     1.0000 0.60800  0.87801  0.57998  Biso   1.000  H
  H103     1.0000 0.59098  0.83173  0.53998  Biso   1.000  H
  C115     1.0000 0.77208  0.79791  0.62619  Biso   1.000  C
  C116     1.0000 0.99938  0.63688  0.29400  Biso   1.000  C
  H104     1.0000 0.94868  0.60869  0.23432  Biso   1.000  H
  C117     1.0000 0.08783  0.54668  0.35970  Biso   1.000  C
  H105     1.0000 0.09402  0.45699  0.34602  Biso   1.000  H
  H106     1.0000 0.92098  0.08998  0.67390  Biso   1.000  H
  C118     1.0000 0.85328  0.12521  0.73682  Biso   1.000  C
  C119     1.0000 0.74228  0.19971  0.68490  Biso   1.000  C
  H107     1.0000 0.73900  0.22102  0.57998  Biso   1.000  H
  H108     1.0000 0.71998  0.57650  0.83820  Biso   1.000  H
  H109     1.0000 0.62603  0.56018  0.84200  Biso   1.000  H
  N11      1.0000 0.70732  0.50481  0.79502  Biso   1.000  N
  C120     1.0000 0.80239  0.65639  0.74181  Biso   1.000  C
  N12      1.0000 0.82592  0.78921  0.56949  Biso   1.000  N
  H110     1.0000 0.74430  0.85200  0.60759  Biso   1.000  H
  H111     1.0000 0.80452  0.79151  0.66701  Biso   1.000  H
  H112     1.0000 0.96998  0.68699  0.28002  Biso   1.000  H
  C121     1.0000 0.05220  0.61760  0.33919  Biso   1.000  C
  H113     1.0000 0.12897  0.52698  0.39702  Biso   1.000  H
  H114     1.0000 0.88201  0.10400  0.77301  Biso   1.000  H
  C122     1.0000 0.78370  0.16551  0.74320  Biso   1.000  C
  H115     1.0000 0.68797  0.23101  0.68829  Biso   1.000  H
  C123     1.0000 0.67447  0.44868  0.83131  Biso   1.000  C
  H116     1.0000 0.81400  0.60999  0.75101  Biso   1.000  H
  H117     1.0000 0.80128  0.66402  0.77898  Biso   1.000  H
  H118     1.0000 0.83598  0.68100  0.71102  Biso   1.000  H
  C124     1.0000 0.83220  0.73138  0.56080  Biso   1.000  C
  C125     1.0000 0.06898  0.66749  0.36941  Biso   1.000  C
  C126     1.0000 0.75239  0.16999  0.81039  Biso   1.000  C
  C127     1.0000 0.69753  0.37828  0.82381  Biso   1.000  C
  H119     1.0000 0.63001  0.45201  0.86699  Biso   1.000  H
  C128     1.0000 0.88868  0.71719  0.50842  Biso   1.000  C
  H120     1.0000 0.80802  0.70401  0.58198  Biso   1.000  H
  C129     1.0000 0.00292  0.68531  0.41640  Biso   1.000  C
  H121     1.0000 0.08170  0.71197  0.33302  Biso   1.000  H
  H122     1.0000 0.11198  0.64561  0.39491  Biso   1.000  H
  H123     1.0000 0.70690  0.14619  0.82602  Biso   1.000  H
  H124     1.0000 0.78890  0.14231  0.84339  Biso   1.000  H
  C130     1.0000 0.73321  0.24329  0.81219  Biso   1.000  C
  C131     1.0000 0.75322  0.36919  0.77651  Biso   1.000  C
  C132     1.0000 0.65800  0.31989  0.86488  Biso   1.000  C
  C133     1.0000 0.90099  0.64951  0.50600  Biso   1.000  C
  C134     1.0000 0.93420  0.76961  0.46308  Biso   1.000  C
  C135     1.0000 0.95720  0.63390  0.46051  Biso   1.000  C
  C136     1.0000 0.98799  0.75329  0.41902  Biso   1.000  C
  C137     1.0000 0.77211  0.30169  0.77122  Biso   1.000  C
  C138     1.0000 0.67459  0.25332  0.86020  Biso   1.000  C
  H125     1.0000 0.78299  0.41301  0.74299  Biso   1.000  H
  H126     1.0000 0.62597  0.32481  0.89099  Biso   1.000  H
  H127     1.0000 0.87040  0.61311  0.53597  Biso   1.000  H
  H128     1.0000 0.92773  0.81300  0.46339  Biso   1.000  H
  H129     1.0000 0.96449  0.58699  0.45958  Biso   1.000  H
  H130     1.0000 0.02102  0.79500  0.38401  Biso   1.000  H
  H131     1.0000 0.81702  0.29549  0.73502  Biso   1.000  H
  H132     1.0000 0.64399  0.21101  0.89202  Biso   1.000  H
  C139     1.0000 0.75161  0.67389  0.31549  Biso   1.000  C
  C140     1.0000 0.75871  0.67238  0.24372  Biso   1.000  C
  C141     1.0000 0.74231  0.74991  0.31461  Biso   1.000  C
  H133     1.0000 0.79799  0.64499  0.33898  Biso   1.000  H
  H134     1.0000 0.70698  0.64902  0.34299  Biso   1.000  H
  C142     1.0000 0.71911  0.62819  0.23149  Biso   1.000  C
  C143     1.0000 0.80948  0.70988  0.19211  Biso   1.000  C
  C144     1.0000 0.79272  0.76752  0.34638  Biso   1.000  C
  C145     1.0000 0.68019  0.80163  0.28809  Biso   1.000  C
  C146     1.0000 0.72968  0.62030  0.16980  Biso   1.000  C
  H135     1.0000 0.68001  0.59998  0.26999  Biso   1.000  H
  C147     1.0000 0.82181  0.70290  0.12991  Biso   1.000  C
  H136     1.0000 0.84201  0.74699  0.20049  Biso   1.000  H
  H137     1.0000 0.82500  0.74103  0.36098  Biso   1.000  H
  C148     1.0000 0.78218  0.83449  0.35142  Biso   1.000  C
  C149     1.0000 0.67071  0.86780  0.29122  Biso   1.000  C
  H138     1.0000 0.64102  0.78940  0.26598  Biso   1.000  H
  H139     1.0000 0.70001  0.58699  0.16301  Biso   1.000  H
  C150     1.0000 0.78089  0.65748  0.11741  Biso   1.000  C
  H140     1.0000 0.85099  0.72401  0.10199  Biso   1.000  H
  H141     1.0000 0.82099  0.84653  0.37599  Biso   1.000  H
  C151     1.0000 0.71940  0.88631  0.32382  Biso   1.000  C
  H142     1.0000 0.64200  0.89201  0.27698  Biso   1.000  H
  C152     1.0000 0.79068  0.64762  0.05331  Biso   1.000  C
  C153     1.0000 0.71049  0.95578  0.33060  Biso   1.000  C
  H143     1.0000 0.75699  0.61100  0.04920  Biso   1.000  H
  N13      1.0000 0.83622  0.67911  0.00180  Biso   1.000  N
  H144     1.0000 0.74498  0.96219  0.35800  Biso   1.000  H
  N14      1.0000 0.66000  0.00821  0.30248  Biso   1.000  N
  C154     1.0000 0.84017  0.66190  0.94134  Biso   1.000  C
  C155     1.0000 0.65793  0.07339  0.31662  Biso   1.000  C
  C156     1.0000 0.83477  0.72951  0.87683  Biso   1.000  C
  H145     1.0000 0.88800  0.63202  0.93800  Biso   1.000  H
  H146     1.0000 0.79900  0.63399  0.94654  Biso   1.000  H
  H147     1.0000 0.61700  0.07790  0.34099  Biso   1.000  H
  H148     1.0000 0.69501  0.06762  0.33929  Biso   1.000  H
  C157     1.0000 0.66179  0.14239  0.25210  Biso   1.000  C
  C158     1.0000 0.76268  0.76250  0.85082  Biso   1.000  C
  C159     1.0000 0.90035  0.76171  0.84064  Biso   1.000  C
  C160     1.0000 0.59340  0.18002  0.22311  Biso   1.000  C
  C161     1.0000 0.73060  0.16792  0.22491  Biso   1.000  C
  C162     1.0000 0.75797  0.82648  0.79103  Biso   1.000  C
  C163     1.0000 0.69027  0.72809  0.88953  Biso   1.000  C
  C164     1.0000 0.97678  0.72920  0.86953  Biso   1.000  C
  C165     1.0000 0.89518  0.82521  0.78023  Biso   1.000  C
  C166     1.0000 0.52072  0.14930  0.24881  Biso   1.000  C
  C167     1.0000 0.59663  0.24831  0.16630  Biso   1.000  C
  C168     1.0000 0.73314  0.23619  0.16769  Biso   1.000  C
  C169     1.0000 0.80528  0.12651  0.25262  Biso   1.000  C
  C170     1.0000 0.68226  0.85667  0.76044  Biso   1.000  C
  C171     1.0000 0.82401  0.85851  0.75761  Biso   1.000  C
  H149     1.0000 0.64800  0.76298  0.87801  Biso   1.000  H
  H150     1.0000 0.68500  0.69001  0.87801  Biso   1.000  H
  H151     1.0000 0.69361  0.71001  0.93600  Biso   1.000  H
  H152     1.0000 0.97079  0.71501  0.91703  Biso   1.000  H
  H153     1.0000 0.99596  0.68800  0.85904  Biso   1.000  H
  H154     1.0000 0.01098  0.76397  0.85004  Biso   1.000  H
  C172     1.0000 0.96677  0.85589  0.73762  Biso   1.000  C
  H155     1.0000 0.48301  0.17301  0.21000  Biso   1.000  H
  H156     1.0000 0.53031  0.09298  0.26300  Biso   1.000  H
  H157     1.0000 0.49702  0.16001  0.29199  Biso   1.000  H
  C173     1.0000 0.52349  0.29263  0.13798  Biso   1.000  C
  C174     1.0000 0.66591  0.27391  0.13859  Biso   1.000  C
  C175     1.0000 0.80722  0.26750  0.14188  Biso   1.000  C
  H158     1.0000 0.84500  0.14098  0.21802  Biso   1.000  H
  H159     1.0000 0.81350  0.13603  0.28999  Biso   1.000  H
  H160     1.0000 0.80349  0.07702  0.26701  Biso   1.000  H
  N15      1.0000 0.63406  0.90159  0.79504  Biso   1.000  N
  C176     1.0000 0.81661  0.93320  0.69814  Biso   1.000  C
  H161     1.0000 0.95880  0.87281  0.69603  Biso   1.000  H
  N16      1.0000 0.99499  0.91249  0.74980  Biso   1.000  N
  H162     1.0000 0.00198  0.82099  0.74394  Biso   1.000  H
  H163     1.0000 0.52848  0.34300  0.12430  Biso   1.000  H
  H164     1.0000 0.48303  0.28052  0.17499  Biso   1.000  H
  N17      1.0000 0.49938  0.28430  0.07922  Biso   1.000  N
  C177     1.0000 0.66890  0.34539  0.07341  Biso   1.000  C
  N18      1.0000 0.85652  0.24512  0.09192  Biso   1.000  N
  H165     1.0000 0.83403  0.25560  0.17900  Biso   1.000  H
  H166     1.0000 0.79649  0.31799  0.12240  Biso   1.000  H
  C178     1.0000 0.61600  0.96881  0.75802  Biso   1.000  C
  H167     1.0000 0.85999  0.95299  0.69001  Biso   1.000  H
  H168     1.0000 0.80697  0.92859  0.66102  Biso   1.000  H
  H169     1.0000 0.77800  0.96199  0.70914  Biso   1.000  H
  C179     1.0000 0.96940  0.92341  0.80383  Biso   1.000  C
  C180     1.0000 0.53089  0.23142  0.06411  Biso   1.000  C
  H170     1.0000 0.72003  0.34280  0.04400  Biso   1.000  H
  H171     1.0000 0.62399  0.35303  0.04498  Biso   1.000  H
  H172     1.0000 0.66501  0.38902  0.08780  Biso   1.000  H
  C181     1.0000 0.84750  0.24429  0.04442  Biso   1.000  C
  H173     1.0000 0.63829  0.99060  0.70405  Biso   1.000  H
  C182     1.0000 0.56612  0.01738  0.78573  Biso   1.000  C
  H174     1.0000 0.93200  0.89300  0.83704  Biso   1.000  H
  C183     1.0000 0.99481  0.98032  0.81822  Biso   1.000  C
  H175     1.0000 0.58302  0.19199  0.09500  Biso   1.000  H
  C184     1.0000 0.50563  0.21632  0.01008  Biso   1.000  C
  C185     1.0000 0.90321  0.22472  0.99321  Biso   1.000  C
  H176     1.0000 0.79610  0.25812  0.03259  Biso   1.000  H
  C186     1.0000 0.51259  0.99300  0.83961  Biso   1.000  C
  C187     1.0000 0.57179  0.09121  0.75581  Biso   1.000  C
  C188     1.0000 0.96166  0.99359  0.87565  Biso   1.000  C
  C189     1.0000 0.04797  0.02342  0.77293  Biso   1.000  C
  C190     1.0000 0.53720  0.15381  0.00082  Biso   1.000  C
  C191     1.0000 0.44850  0.26211  0.96962  Biso   1.000  C
  C192     1.0000 0.88092  0.24032  0.92901  Biso   1.000  C
  C193     1.0000 0.96910  0.19089  0.00941  Biso   1.000  C
  H177     1.0000 0.51009  0.95701  0.85503  Biso   1.000  H
  C194     1.0000 0.46378  0.03859  0.86351  Biso   1.000  C
  C195     1.0000 0.52571  0.13751  0.78111  Biso   1.000  C
  H178     1.0000 0.60702  0.10900  0.71901  Biso   1.000  H
  H179     1.0000 0.93100  0.96900  0.90202  Biso   1.000  H
  C196     1.0000 0.98309  0.04983  0.88690  Biso   1.000  C
  H180     1.0000 0.07202  0.01321  0.73304  Biso   1.000  H
  C197     1.0000 0.06687  0.08080  0.78373  Biso   1.000  C
  C198     1.0000 0.50857  0.13749  0.95183  Biso   1.000  C
  H181     1.0000 0.57999  0.12102  0.02802  Biso   1.000  H
  C199     1.0000 0.42237  0.24650  0.92083  Biso   1.000  C
  H182     1.0000 0.42800  0.30300  0.97553  Biso   1.000  H
  C200     1.0000 0.93069  0.21911  0.88392  Biso   1.000  C
  H183     1.0000 0.82401  0.26899  0.91502  Biso   1.000  H
  C201     1.0000 0.01977  0.16761  0.96381  Biso   1.000  C
  H184     1.0000 0.98409  0.18132  0.05362  Biso   1.000  H
  C202     1.0000 0.46937  0.11309  0.83544  Biso   1.000  C
  H185     1.0000 0.42098  0.01700  0.90402  Biso   1.000  H
  H186     1.0000 0.53210  0.18651  0.76162  Biso   1.000  H
  H187     1.0000 0.96199  0.05728  0.92803  Biso   1.000  H
  C203     1.0000 0.03399  0.09519  0.84120  Biso   1.000  C
  H188     1.0000 0.10200  0.11003  0.75201  Biso   1.000  H
  C204     1.0000 0.45260  0.18149  0.91302  Biso   1.000  C
  H189     1.0000 0.52898  0.09402  0.94592  Biso   1.000  H
  H190     1.0000 0.38099  0.28200  0.89004  Biso   1.000  H
  C205     1.0000 0.00181  0.18301  0.89960  Biso   1.000  C
  H191     1.0000 0.91902  0.22701  0.85004  Biso   1.000  H
  H192     1.0000 0.06902  0.14000  0.97800  Biso   1.000  H
  C206     1.0000 0.41968  0.16370  0.86171  Biso   1.000  C
  C207     1.0000 0.05477  0.15892  0.85004  Biso   1.000  C
  H193     1.0000 0.40698  0.20798  0.82403  Biso   1.000  H
  H194     1.0000 0.37402  0.14337  0.88295  Biso   1.000  H
  H195     1.0000 0.05679  0.20101  0.80301  Biso   1.000  H
  H196     1.0000 0.10798  0.14577  0.86613  Biso   1.000  H
  C208     1.0000 0.24841  0.32613  0.68449  Biso   1.000  C
  C209     1.0000 0.25770  0.25008  0.68542  Biso   1.000  C
  C210     1.0000 0.24131  0.32761  0.75631  Biso   1.000  C
  H197     1.0000 0.20198  0.35502  0.66100  Biso   1.000  H
  H198     1.0000 0.29299  0.35099  0.65699  Biso   1.000  H
  C211     1.0000 0.20730  0.23249  0.65359  Biso   1.000  C
  C212     1.0000 0.31978  0.19839  0.71189  Biso   1.000  C
  C213     1.0000 0.19048  0.29011  0.80792  Biso   1.000  C
  C214     1.0000 0.28091  0.37183  0.76849  Biso   1.000  C
  C215     1.0000 0.21778  0.16550  0.64861  Biso   1.000  C
  H199     1.0000 0.17502  0.25898  0.63900  Biso   1.000  H
  C216     1.0000 0.32930  0.13219  0.70881  Biso   1.000  C
  H200     1.0000 0.35901  0.21062  0.73400  Biso   1.000  H
  C217     1.0000 0.17821  0.29709  0.87012  Biso   1.000  C
  H201     1.0000 0.15801  0.25302  0.79949  Biso   1.000  H
  C218     1.0000 0.27028  0.37972  0.83018  Biso   1.000  C
  H202     1.0000 0.32002  0.39998  0.72999  Biso   1.000  H
  H203     1.0000 0.17898  0.15349  0.62398  Biso   1.000  H
  C219     1.0000 0.28062  0.11368  0.67621  Biso   1.000  C
  H204     1.0000 0.35802  0.10801  0.72299  Biso   1.000  H
  H205     1.0000 0.14898  0.27600  0.89799  Biso   1.000  H
  C220     1.0000 0.21907  0.34251  0.88262  Biso   1.000  C
  H206     1.0000 0.30001  0.41300  0.83702  Biso   1.000  H
  C221     1.0000 0.28949  0.04419  0.66938  Biso   1.000  C
  C222     1.0000 0.20928  0.35237  0.94672  Biso   1.000  C
  H207     1.0000 0.25499  0.03782  0.64198  Biso   1.000  H
  N19      1.0000 0.33997  0.99180  0.69750  Biso   1.000  N
  H208     1.0000 0.24298  0.38901  0.95078  Biso   1.000  H
  N20      1.0000 0.16380  0.32090  0.99818  Biso   1.000  N
  C223     1.0000 0.34209  0.92661  0.68341  Biso   1.000  C
  C224     1.0000 0.15979  0.33810  0.05869  Biso   1.000  C
  H209     1.0000 0.38297  0.92212  0.65899  Biso   1.000  H
  H210     1.0000 0.30501  0.93240  0.66069  Biso   1.000  H
  C225     1.0000 0.33818  0.85762  0.74788  Biso   1.000  C
  C226     1.0000 0.16519  0.27048  0.12320  Biso   1.000  C
  H211     1.0000 0.11203  0.36800  0.06198  Biso   1.000  H
  H212     1.0000 0.20102  0.36600  0.05349  Biso   1.000  H
  C227     1.0000 0.40657  0.81997  0.77692  Biso   1.000  C
  C228     1.0000 0.26936  0.83207  0.77512  Biso   1.000  C
  C229     1.0000 0.23734  0.23751  0.14916  Biso   1.000  C
  C230     1.0000 0.09961  0.23828  0.15939  Biso   1.000  C
  C231     1.0000 0.47930  0.85069  0.75122  Biso   1.000  C
  C232     1.0000 0.40339  0.75170  0.83368  Biso   1.000  C
  C233     1.0000 0.26690  0.76377  0.83229  Biso   1.000  C
  C234     1.0000 0.19468  0.87349  0.74741  Biso   1.000  C
  C235     1.0000 0.24200  0.17351  0.20900  Biso   1.000  C
  C236     1.0000 0.30969  0.27192  0.11045  Biso   1.000  C
  C237     1.0000 0.02324  0.27079  0.13050  Biso   1.000  C
  C238     1.0000 0.10484  0.17479  0.21980  Biso   1.000  C
  H213     1.0000 0.51702  0.82701  0.78998  Biso   1.000  H
  H214     1.0000 0.46967  0.90698  0.73698  Biso   1.000  H
  H215     1.0000 0.50300  0.84000  0.70798  Biso   1.000  H
  C239     1.0000 0.47647  0.70739  0.86200  Biso   1.000  C
  C240     1.0000 0.33411  0.72610  0.86138  Biso   1.000  C
  C241     1.0000 0.19280  0.73251  0.85809  Biso   1.000  C
  H216     1.0000 0.15497  0.85896  0.78201  Biso   1.000  H
  H217     1.0000 0.18652  0.86398  0.70999  Biso   1.000  H
  H218     1.0000 0.19647  0.92297  0.73302  Biso   1.000  H
  C242     1.0000 0.31770  0.14332  0.23959  Biso   1.000  C
  C243     1.0000 0.17601  0.14151  0.24236  Biso   1.000  C
  H219     1.0000 0.35202  0.23703  0.12197  Biso   1.000  H
  H220     1.0000 0.31502  0.31000  0.12197  Biso   1.000  H
  H221     1.0000 0.30641  0.29000  0.06398  Biso   1.000  H
  H222     1.0000 0.98903  0.23602  0.14999  Biso   1.000  H
  H223     1.0000 0.02923  0.28498  0.08300  Biso   1.000  H
  H224     1.0000 0.00400  0.31199  0.14099  Biso   1.000  H
  C244     1.0000 0.03320  0.14413  0.26236  Biso   1.000  C
  H225     1.0000 0.47148  0.65701  0.87568  Biso   1.000  H
  H226     1.0000 0.51700  0.71949  0.82499  Biso   1.000  H
  N21      1.0000 0.50058  0.71570  0.92081  Biso   1.000  N
  C245     1.0000 0.33106  0.65460  0.92662  Biso   1.000  C
  N22      1.0000 0.14350  0.75487  0.90811  Biso   1.000  N
  H227     1.0000 0.16599  0.74441  0.82098  Biso   1.000  H
  H228     1.0000 0.20348  0.68202  0.87758  Biso   1.000  H
  N23      1.0000 0.36590  0.09840  0.20499  Biso   1.000  N
  C246     1.0000 0.18341  0.06679  0.30189  Biso   1.000  C
  H229     1.0000 0.99803  0.17900  0.25609  Biso   1.000  H
  H230     1.0000 0.04122  0.12719  0.30400  Biso   1.000  H
  N24      1.0000 0.00504  0.08753  0.25018  Biso   1.000  N
  C247     1.0000 0.46907  0.76857  0.93592  Biso   1.000  C
  H231     1.0000 0.27999  0.65719  0.95603  Biso   1.000  H
  H232     1.0000 0.37598  0.64698  0.95500  Biso   1.000  H
  H233     1.0000 0.33502  0.61100  0.91217  Biso   1.000  H
  C248     1.0000 0.15246  0.75571  0.95561  Biso   1.000  C
  C249     1.0000 0.38402  0.03120  0.24195  Biso   1.000  C
  H234     1.0000 0.14003  0.04703  0.30997  Biso   1.000  H
  H235     1.0000 0.19300  0.07143  0.33896  Biso   1.000  H
  H236     1.0000 0.22202  0.03800  0.29089  Biso   1.000  H
  C250     1.0000 0.03061  0.07659  0.19620  Biso   1.000  C
  H237     1.0000 0.41701  0.80802  0.90498  Biso   1.000  H
  C251     1.0000 0.49439  0.78369  0.98990  Biso   1.000  C
  H238     1.0000 0.20387  0.74189  0.96739  Biso   1.000  H
  C252     1.0000 0.09681  0.77530  0.00676  Biso   1.000  C
  C253     1.0000 0.43390  0.98261  0.21430  Biso   1.000  C
  H239     1.0000 0.36173  0.00939  0.29598  Biso   1.000  H
  H240     1.0000 0.06801  0.10699  0.16299  Biso   1.000  H
  C254     1.0000 0.00522  0.01970  0.18176  Biso   1.000  C
  C255     1.0000 0.46277  0.84618  0.99921  Biso   1.000  C
  C256     1.0000 0.55152  0.73790  0.03036  Biso   1.000  C
  C257     1.0000 0.03087  0.80906  0.99062  Biso   1.000  C
  C258     1.0000 0.11911  0.75970  0.07097  Biso   1.000  C
  C259     1.0000 0.42818  0.90880  0.24416  Biso   1.000  C
  C260     1.0000 0.48744  0.00702  0.16037  Biso   1.000  C
  C261     1.0000 0.95199  0.97658  0.22710  Biso   1.000  C
  C262     1.0000 0.03830  0.00640  0.12438  Biso   1.000  C
  H241     1.0000 0.41997  0.87897  0.97201  Biso   1.000  H
  C263     1.0000 0.49139  0.86250  0.04820  Biso   1.000  C
  H242     1.0000 0.57202  0.69700  0.02450  Biso   1.000  H
  C264     1.0000 0.57759  0.75350  0.07920  Biso   1.000  C
  C265     1.0000 0.98019  0.83240  0.03617  Biso   1.000  C
  H243     1.0000 0.01587  0.81867  0.94641  Biso   1.000  H
  C266     1.0000 0.06933  0.78090  0.11606  Biso   1.000  C
  H244     1.0000 0.17602  0.73103  0.08496  Biso   1.000  H
  C267     1.0000 0.47432  0.86250  0.21887  Biso   1.000  C
  H245     1.0000 0.39300  0.89101  0.28097  Biso   1.000  H
  C268     1.0000 0.53619  0.96142  0.13647  Biso   1.000  C
  H246     1.0000 0.48992  0.04299  0.14500  Biso   1.000  H
  C269     1.0000 0.93309  0.91919  0.21630  Biso   1.000  C
  H247     1.0000 0.92800  0.98678  0.26699  Biso   1.000  H
  C270     1.0000 0.01693  0.95018  0.11308  Biso   1.000  C
  H248     1.0000 0.06902  0.03101  0.09796  Biso   1.000  H
  H249     1.0000 0.47099  0.90600  0.05406  Biso   1.000  H
  C271     1.0000 0.54742  0.81852  0.08696  Biso   1.000  C
  H250     1.0000 0.61903  0.71799  0.10999  Biso   1.000  H
  C272     1.0000 0.99821  0.81700  0.10038  Biso   1.000  C
  H251     1.0000 0.93100  0.86002  0.02198  Biso   1.000  H
  H252     1.0000 0.08100  0.77298  0.14999  Biso   1.000  H
  C273     1.0000 0.53059  0.88691  0.16459  Biso   1.000  C
  H253     1.0000 0.46792  0.81351  0.23836  Biso   1.000  H
  H254     1.0000 0.57898  0.98301  0.09596  Biso   1.000  H
  C274     1.0000 0.96598  0.90482  0.15878  Biso   1.000  C
  H255     1.0000 0.89802  0.88999  0.24797  Biso   1.000  H
  H256     1.0000 0.03798  0.94266  0.07200  Biso   1.000  H
  C275     1.0000 0.58029  0.83631  0.13826  Biso   1.000  C
  C276     1.0000 0.94519  0.84107  0.14999  Biso   1.000  C
  H257     1.0000 0.59299  0.79197  0.17600  Biso   1.000  H
  H258     1.0000 0.62600  0.85657  0.11708  Biso   1.000  H
  H259     1.0000 0.94323  0.79900  0.19697  Biso   1.000  H
  H260     1.0000 0.89200  0.85417  0.13390  Biso   1.000  H
