data_image0
_cell_length_a       15.342
_cell_length_b       21.983
_cell_length_c       22.96
_cell_angle_alpha    90
_cell_angle_beta     90
_cell_angle_gamma    90

_symmetry_space_group_name_H-M    "P 1"
_symmetry_int_tables_number       1

loop_
  _symmetry_equiv_pos_as_xyz
  'x, y, z'

loop_
  _atom_site_label
  _atom_site_occupancy
  _atom_site_fract_x
  _atom_site_fract_y
  _atom_site_fract_z
  _atom_site_thermal_displace_type
  _atom_site_B_iso_or_equiv
  _atom_site_type_symbol
  C1       1.0000 0.41729  0.36560  0.57400  Biso   1.000  C
  C2       1.0000 0.31932  0.35969  0.58389  Biso   1.000  C
  H1       1.0000 0.42889  0.40490  0.55740  Biso   1.000  H
  O1       1.0000 0.46422  0.36028  0.62748  Biso   1.000  O
  C3       1.0000 0.44773  0.31720  0.53153  Biso   1.000  C
  C4       1.0000 0.27069  0.35941  0.52700  Biso   1.000  C
  H2       1.0000 0.31059  0.32998  0.59930  Biso   1.000  H
  O2       1.0000 0.28790  0.40813  0.61982  Biso   1.000  O
  H3       1.0000 0.48853  0.39412  0.63528  Biso   1.000  H
  C5       1.0000 0.39480  0.32320  0.47548  Biso   1.000  C
  H4       1.0000 0.43977  0.27471  0.54909  Biso   1.000  H
  O3       1.0000 0.53728  0.32834  0.51986  Biso   1.000  O
  O4       1.0000 0.28132  0.41746  0.50126  Biso   1.000  O
  H5       1.0000 0.21268  0.35232  0.53371  Biso   1.000  H
  O5       1.0000 0.30387  0.31324  0.48998  Biso   1.000  O
  H6       1.0000 0.26691  0.43179  0.60091  Biso   1.000  H
  H7       1.0000 0.40093  0.36642  0.46141  Biso   1.000  H
  C6       1.0000 0.42061  0.28158  0.42670  Biso   1.000  C
  C7       1.0000 0.59308  0.27699  0.51620  Biso   1.000  C
  C8       1.0000 0.20662  0.45012  0.48062  Biso   1.000  C
  H8       1.0000 0.37733  0.28272  0.39778  Biso   1.000  H
  H9       1.0000 0.47249  0.29618  0.41002  Biso   1.000  H
  O6       1.0000 0.43391  0.22031  0.44469  Biso   1.000  O
  H10      1.0000 0.55977  0.23991  0.52561  Biso   1.000  H
  C9       1.0000 0.66432  0.28672  0.56128  Biso   1.000  C
  O7       1.0000 0.62899  0.27144  0.46032  Biso   1.000  O
  C10      1.0000 0.20740  0.45249  0.41450  Biso   1.000  C
  C11      1.0000 0.21601  0.51290  0.50653  Biso   1.000  C
  H11      1.0000 0.14881  0.42951  0.49538  Biso   1.000  H
  H12      1.0000 0.40301  0.20848  0.43049  Biso   1.000  H
  H13      1.0000 0.69932  0.25351  0.56159  Biso   1.000  H
  O8       1.0000 0.62730  0.29373  0.61812  Biso   1.000  O
  C12      1.0000 0.71901  0.34140  0.54508  Biso   1.000  C
  C13      1.0000 0.67612  0.32480  0.44129  Biso   1.000  C
  C14      1.0000 0.18342  0.39180  0.38720  Biso   1.000  C
  H14      1.0000 0.26033  0.46399  0.40209  Biso   1.000  H
  O9       1.0000 0.14268  0.49511  0.39456  Biso   1.000  O
  C15      1.0000 0.15070  0.55611  0.48040  Biso   1.000  C
  H15      1.0000 0.27421  0.52800  0.49891  Biso   1.000  H
  O10      1.0000 0.20199  0.51062  0.56829  Biso   1.000  O
  H16      1.0000 0.57802  0.31479  0.61542  Biso   1.000  H
  H17      1.0000 0.67768  0.38480  0.55039  Biso   1.000  H
  O11      1.0000 0.79260  0.34513  0.58271  Biso   1.000  O
  C16      1.0000 0.75121  0.33749  0.48249  Biso   1.000  C
  H18      1.0000 0.64020  0.35668  0.44020  Biso   1.000  H
  C17      1.0000 0.70897  0.30951  0.38031  Biso   1.000  C
  H19      1.0000 0.17527  0.39722  0.34769  Biso   1.000  H
  H20      1.0000 0.22917  0.36510  0.39212  Biso   1.000  H
  O12      1.0000 0.10800  0.36587  0.41128  Biso   1.000  O
  C18      1.0000 0.15572  0.55520  0.41520  Biso   1.000  C
  H21      1.0000 0.09771  0.54442  0.49098  Biso   1.000  H
  O13      1.0000 0.16562  0.61661  0.49965  Biso   1.000  O
  H22      1.0000 0.22350  0.48542  0.57979  Biso   1.000  H
  H23      1.0000 0.78790  0.37638  0.61119  Biso   1.000  H
  H24      1.0000 0.79553  0.30419  0.47901  Biso   1.000  H
  O14      1.0000 0.79110  0.39481  0.46794  Biso   1.000  O
  H25      1.0000 0.71777  0.35409  0.35679  Biso   1.000  H
  H26      1.0000 0.72970  0.25902  0.36651  Biso   1.000  H
  O15      1.0000 0.63942  0.29609  0.34229  Biso   1.000  O
  H27      1.0000 0.06101  0.36951  0.38410  Biso   1.000  H
  H28      1.0000 0.11589  0.57808  0.40139  Biso   1.000  H
  O16      1.0000 0.23778  0.57790  0.39704  Biso   1.000  O
  H29      1.0000 0.12743  0.62630  0.52278  Biso   1.000  H
  C19      1.0000 0.88202  0.39499  0.46298  Biso   1.000  C
  H30      1.0000 0.61719  0.26161  0.34991  Biso   1.000  H
  C20      1.0000 0.23980  0.62562  0.35449  Biso   1.000  C
  H31      1.0000 0.90888  0.35960  0.49190  Biso   1.000  H
  C21      1.0000 0.91657  0.45599  0.48171  Biso   1.000  C
  O17      1.0000 0.90718  0.38166  0.40457  Biso   1.000  O
  C22      1.0000 0.28627  0.67971  0.38240  Biso   1.000  C
  H32      1.0000 0.17990  0.63708  0.34412  Biso   1.000  H
  C23      1.0000 0.28868  0.60579  0.29978  Biso   1.000  C
  H33      1.0000 0.97412  0.45381  0.48140  Biso   1.000  H
  O18      1.0000 0.89258  0.46991  0.54007  Biso   1.000  O
  C24      1.0000 0.89069  0.50530  0.43990  Biso   1.000  C
  C25      1.0000 0.87818  0.42551  0.36250  Biso   1.000  C
  C26      1.0000 0.29970  0.72979  0.33841  Biso   1.000  C
  H34      1.0000 0.34181  0.66661  0.39669  Biso   1.000  H
  O19      1.0000 0.23680  0.70450  0.42940  Biso   1.000  O
  H35      1.0000 0.34389  0.59400  0.31002  Biso   1.000  H
  O20      1.0000 0.29370  0.65619  0.26058  Biso   1.000  O
  C27      1.0000 0.24397  0.55479  0.26642  Biso   1.000  C
  H36      1.0000 0.83601  0.47018  0.54551  Biso   1.000  H
  H37      1.0000 0.83268  0.51099  0.44242  Biso   1.000  H
  O21      1.0000 0.93358  0.56134  0.45183  Biso   1.000  O
  C28      1.0000 0.91331  0.48742  0.37761  Biso   1.000  C
  H38      1.0000 0.81052  0.42719  0.36389  Biso   1.000  H
  C29      1.0000 0.90458  0.40149  0.30401  Biso   1.000  C
  C30      1.0000 0.34050  0.70691  0.28219  Biso   1.000  C
  H39      1.0000 0.23341  0.74999  0.32731  Biso   1.000  H
  O22      1.0000 0.35367  0.77715  0.36150  Biso   1.000  O
  H40      1.0000 0.21607  0.67552  0.44961  Biso   1.000  H
  H41      1.0000 0.28647  0.53978  0.23201  Biso   1.000  H
  H42      1.0000 0.23172  0.51672  0.29482  Biso   1.000  H
  O23      1.0000 0.16549  0.57622  0.24203  Biso   1.000  O
  H43      1.0000 0.91833  0.57422  0.48519  Biso   1.000  H
  H44      1.0000 0.97562  0.48870  0.37230  Biso   1.000  H
  O24      1.0000 0.87257  0.53291  0.34233  Biso   1.000  O
  H45      1.0000 0.87720  0.36051  0.29791  Biso   1.000  H
  H46      1.0000 0.88281  0.42942  0.27269  Biso   1.000  H
  O25      1.0000 0.99720  0.39612  0.30044  Biso   1.000  O
  H47      1.0000 0.33907  0.73889  0.25318  Biso   1.000  H
  O26      1.0000 0.42798  0.69099  0.29277  Biso   1.000  O
  H48      1.0000 0.33392  0.80262  0.35902  Biso   1.000  H
  H49      1.0000 0.13030  0.54510  0.23550  Biso   1.000  H
  C31      1.0000 0.91689  0.55338  0.29190  Biso   1.000  C
  H50      1.0000 0.01069  0.35860  0.29961  Biso   1.000  H
  C32      1.0000 0.49211  0.71269  0.25270  Biso   1.000  C
  C33      1.0000 0.93189  0.62139  0.29878  Biso   1.000  C
  O27      1.0000 0.86429  0.54151  0.24220  Biso   1.000  O
  H51      1.0000 0.97797  0.53032  0.28772  Biso   1.000  H
  C34      1.0000 0.56290  0.74289  0.28881  Biso   1.000  C
  H52      1.0000 0.46832  0.73971  0.22992  Biso   1.000  H
  C35      1.0000 0.52751  0.66101  0.21581  Biso   1.000  C
  C36      1.0000 0.84591  0.65551  0.29808  Biso   1.000  C
  H53      1.0000 0.96598  0.63531  0.26611  Biso   1.000  H
  O28      1.0000 0.97947  0.63226  0.35100  Biso   1.000  O
  C37      1.0000 0.77819  0.56762  0.24691  Biso   1.000  C
  C38      1.0000 0.63910  0.76168  0.24991  Biso   1.000  C
  H54      1.0000 0.58369  0.71469  0.31851  Biso   1.000  H
  O29      1.0000 0.52698  0.79593  0.31638  Biso   1.000  O
  H55      1.0000 0.54152  0.63349  0.23689  Biso   1.000  H
  O30      1.0000 0.60279  0.68021  0.18397  Biso   1.000  O
  C39      1.0000 0.46402  0.63581  0.17182  Biso   1.000  C
  C40      1.0000 0.78790  0.63708  0.24821  Biso   1.000  C
  H56      1.0000 0.81860  0.64732  0.33031  Biso   1.000  H
  O31      1.0000 0.86038  0.71951  0.29608  Biso   1.000  O
  H57      1.0000 0.99537  0.66779  0.35192  Biso   1.000  H
  H58      1.0000 0.75160  0.55429  0.28449  Biso   1.000  H
  C41      1.0000 0.72311  0.54319  0.19769  Biso   1.000  C
  C42      1.0000 0.67110  0.70559  0.21690  Biso   1.000  C
  H59      1.0000 0.61589  0.79480  0.21851  Biso   1.000  H
  O32      1.0000 0.70838  0.78756  0.28175  Biso   1.000  O
  H60      1.0000 0.47601  0.78788  0.32861  Biso   1.000  H
  H61      1.0000 0.48859  0.60729  0.15231  Biso   1.000  H
  H62      1.0000 0.42028  0.62030  0.18959  Biso   1.000  H
  O33      1.0000 0.43299  0.68207  0.13310  Biso   1.000  O
  O34      1.0000 0.70402  0.66379  0.25849  Biso   1.000  O
  H63      1.0000 0.80987  0.65041  0.21520  Biso   1.000  H
  H64      1.0000 0.81358  0.73721  0.29229  Biso   1.000  H
  H65      1.0000 0.72038  0.49652  0.20000  Biso   1.000  H
  H66      1.0000 0.66060  0.55980  0.20100  Biso   1.000  H
  O35      1.0000 0.75890  0.56189  0.14390  Biso   1.000  O
  H67      1.0000 0.71979  0.71792  0.18981  Biso   1.000  H
  H68      1.0000 0.68583  0.81058  0.30732  Biso   1.000  H
  H69      1.0000 0.47269  0.69372  0.10989  Biso   1.000  H
  H70      1.0000 0.81613  0.54651  0.13990  Biso   1.000  H
  O36      1.0000 0.74110  0.43811  0.64390  Biso   1.000  O
  C43      1.0000 0.77689  0.45681  0.69769  Biso   1.000  C
  H71      1.0000 0.68387  0.45349  0.63990  Biso   1.000  H
  C44      1.0000 0.72181  0.43238  0.74691  Biso   1.000  C
  H72      1.0000 0.77962  0.50348  0.70000  Biso   1.000  H
  H73      1.0000 0.83940  0.44020  0.70100  Biso   1.000  H
  C45      1.0000 0.71210  0.36292  0.74821  Biso   1.000  C
  H74      1.0000 0.74840  0.44571  0.78449  Biso   1.000  H
  O37      1.0000 0.63571  0.45849  0.74220  Biso   1.000  O
  C46      1.0000 0.65409  0.34449  0.79808  Biso   1.000  C
  H75      1.0000 0.69013  0.34959  0.71520  Biso   1.000  H
  O38      1.0000 0.79598  0.33621  0.75849  Biso   1.000  O
  C47      1.0000 0.58311  0.44662  0.79190  Biso   1.000  C
  C48      1.0000 0.56811  0.37861  0.79878  Biso   1.000  C
  H76      1.0000 0.68140  0.35268  0.83031  Biso   1.000  H
  O39      1.0000 0.63962  0.28049  0.79608  Biso   1.000  O
  C49      1.0000 0.82890  0.29441  0.71690  Biso   1.000  C
  H77      1.0000 0.52203  0.46968  0.78772  Biso   1.000  H
  O40      1.0000 0.62743  0.46709  0.84233  Biso   1.000  O
  H78      1.0000 0.53402  0.36469  0.76611  Biso   1.000  H
  O41      1.0000 0.52053  0.36774  0.85100  Biso   1.000  O
  H79      1.0000 0.68642  0.26279  0.79229  Biso   1.000  H
  H80      1.0000 0.78021  0.28208  0.68981  Biso   1.000  H
  C50      1.0000 0.86090  0.23832  0.74991  Biso   1.000  C
  O42      1.0000 0.89721  0.31979  0.68397  Biso   1.000  O
  C51      1.0000 0.58669  0.51258  0.87761  Biso   1.000  C
  H81      1.0000 0.50463  0.33221  0.85192  Biso   1.000  H
  H82      1.0000 0.88411  0.20520  0.71851  Biso   1.000  H
  O43      1.0000 0.79162  0.21244  0.78175  Biso   1.000  O
  C52      1.0000 0.93710  0.25711  0.78881  Biso   1.000  C
  C53      1.0000 0.97249  0.33899  0.71581  Biso   1.000  C
  C54      1.0000 0.60931  0.49470  0.93990  Biso   1.000  C
  H83      1.0000 0.52438  0.51130  0.87230  Biso   1.000  H
  C55      1.0000 0.62182  0.57449  0.86250  Biso   1.000  C
  H84      1.0000 0.81417  0.18942  0.80732  Biso   1.000  H
  H85      1.0000 0.91631  0.28531  0.81851  Biso   1.000  H
  O44      1.0000 0.97302  0.20407  0.81638  Biso   1.000  O
  C56      1.0000 0.00789  0.28731  0.75270  Biso   1.000  C
  H86      1.0000 0.95848  0.36651  0.73689  Biso   1.000  H
  C57      1.0000 0.03598  0.36419  0.67182  Biso   1.000  C
  C58      1.0000 0.58343  0.54401  0.98171  Biso   1.000  C
  H87      1.0000 0.66732  0.48901  0.94242  Biso   1.000  H
  O45      1.0000 0.56642  0.43866  0.95183  Biso   1.000  O
  H88      1.0000 0.68948  0.57281  0.86389  Biso   1.000  H
  O46      1.0000 0.59282  0.61834  0.90457  Biso   1.000  O
  C59      1.0000 0.59542  0.59851  0.80401  Biso   1.000  C
  H89      1.0000 0.02399  0.21212  0.82861  Biso   1.000  H
  H90      1.0000 0.03168  0.26029  0.72992  Biso   1.000  H
  O47      1.0000 0.07202  0.30901  0.79277  Biso   1.000  O
  H91      1.0000 0.01141  0.39271  0.65231  Biso   1.000  H
  H92      1.0000 0.07972  0.37970  0.68959  Biso   1.000  H
  O48      1.0000 0.06701  0.31793  0.63310  Biso   1.000  O
  C60      1.0000 0.61798  0.60501  0.96298  Biso   1.000  C
  H93      1.0000 0.52588  0.54619  0.98140  Biso   1.000  H
  O49      1.0000 0.60742  0.53009  0.04007  Biso   1.000  O
  H94      1.0000 0.58167  0.42578  0.98519  Biso   1.000  H
  H95      1.0000 0.62280  0.63949  0.79791  Biso   1.000  H
  H96      1.0000 0.61719  0.57058  0.77269  Biso   1.000  H
  O50      1.0000 0.50280  0.60388  0.80044  Biso   1.000  O
  C61      1.0000 0.15950  0.29309  0.78219  Biso   1.000  C
  H97      1.0000 0.02731  0.30628  0.60989  Biso   1.000  H
  H98      1.0000 0.59112  0.64040  0.99190  Biso   1.000  H
  O51      1.0000 0.70890  0.60519  0.96794  Biso   1.000  O
  H99      1.0000 0.66399  0.52982  0.04551  Biso   1.000  H
  H100     1.0000 0.48931  0.64140  0.79961  Biso   1.000  H
  H101     1.0000 0.16093  0.26111  0.75318  Biso   1.000  H
  C62      1.0000 0.20030  0.27021  0.83841  Biso   1.000  C
  O52      1.0000 0.20630  0.34381  0.76058  Biso   1.000  O
  C63      1.0000 0.74879  0.66251  0.98249  Biso   1.000  C
  H102     1.0000 0.26659  0.25001  0.82731  Biso   1.000  H
  O53      1.0000 0.14633  0.22285  0.86150  Biso   1.000  O
  C64      1.0000 0.21373  0.32029  0.88240  Biso   1.000  C
  C65      1.0000 0.21132  0.39421  0.79978  Biso   1.000  C
  H103     1.0000 0.70447  0.69581  0.97901  Biso   1.000  H
  C66      1.0000 0.82388  0.67520  0.94129  Biso   1.000  C
  C67      1.0000 0.78099  0.65860  0.04508  Biso   1.000  C
  H104     1.0000 0.16608  0.19738  0.85902  Biso   1.000  H
  H105     1.0000 0.15819  0.33339  0.89669  Biso   1.000  H
  O54      1.0000 0.26320  0.29550  0.92940  Biso   1.000  O
  C68      1.0000 0.26020  0.37438  0.85449  Biso   1.000  C
  H106     1.0000 0.15611  0.40600  0.81002  Biso   1.000  H
  C69      1.0000 0.25603  0.44521  0.76642  Biso   1.000  C
  H107     1.0000 0.85980  0.64332  0.94020  Biso   1.000  H
  O55      1.0000 0.87101  0.72856  0.96032  Biso   1.000  O
  C70      1.0000 0.79103  0.69049  0.88031  Biso   1.000  C
  C71      1.0000 0.83568  0.71328  0.06128  Biso   1.000  C
  H108     1.0000 0.82232  0.61520  0.05039  Biso   1.000  H
  O56      1.0000 0.70740  0.65487  0.08271  Biso   1.000  O
  H109     1.0000 0.28393  0.32448  0.94961  Biso   1.000  H
  H110     1.0000 0.32010  0.36292  0.84412  Biso   1.000  H
  O57      1.0000 0.26222  0.42210  0.89704  Biso   1.000  O
  H111     1.0000 0.21353  0.46022  0.73201  Biso   1.000  H
  H112     1.0000 0.26828  0.48328  0.79482  Biso   1.000  H
  O58      1.0000 0.33451  0.42378  0.74203  Biso   1.000  O
  C72      1.0000 0.90692  0.72301  0.01620  Biso   1.000  C
  H113     1.0000 0.78223  0.64591  0.85679  Biso   1.000  H
  H114     1.0000 0.77030  0.74098  0.86651  Biso   1.000  H
  O59      1.0000 0.86058  0.70391  0.84229  Biso   1.000  O
  H115     1.0000 0.80068  0.74649  0.06159  Biso   1.000  H
  O60      1.0000 0.87270  0.70627  0.11812  Biso   1.000  O
  H116     1.0000 0.71210  0.62362  0.11119  Biso   1.000  H
  C73      1.0000 0.34428  0.44480  0.91520  Biso   1.000  C
  H117     1.0000 0.36970  0.45490  0.73550  Biso   1.000  H
  O61      1.0000 0.96272  0.67166  0.01986  Biso   1.000  O
  H118     1.0000 0.94023  0.76009  0.02561  Biso   1.000  H
  H119     1.0000 0.88281  0.73839  0.84991  Biso   1.000  H
  H120     1.0000 0.92198  0.68521  0.11542  Biso   1.000  H
  H121     1.0000 0.38411  0.42192  0.90139  Biso   1.000  H
  C74      1.0000 0.34930  0.44389  0.98040  Biso   1.000  C
  O62      1.0000 0.35732  0.50489  0.89456  Biso   1.000  O
  C75      1.0000 0.05227  0.68280  0.03153  Biso   1.000  C
  H122     1.0000 0.40229  0.45558  0.99098  Biso   1.000  H
  O63      1.0000 0.33438  0.38339  0.99965  Biso   1.000  O
  C76      1.0000 0.28399  0.48710  0.00653  Biso   1.000  C
  C77      1.0000 0.29260  0.54751  0.91450  Biso   1.000  C
  C78      1.0000 0.10520  0.67680  0.97548  Biso   1.000  C
  C79      1.0000 0.08271  0.63440  0.07400  Biso   1.000  C
  H123     1.0000 0.06023  0.72529  0.04909  Biso   1.000  H
  H124     1.0000 0.37257  0.37370  0.02278  Biso   1.000  H
  H125     1.0000 0.22579  0.47200  0.99891  Biso   1.000  H
  C80      1.0000 0.29338  0.54988  0.98062  Biso   1.000  C
  O64      1.0000 0.29801  0.48938  0.06829  Biso   1.000  O
  H126     1.0000 0.23967  0.53601  0.90209  Biso   1.000  H
  C81      1.0000 0.31658  0.60820  0.88720  Biso   1.000  C
  H127     1.0000 0.09907  0.63358  0.96141  Biso   1.000  H
  O65      1.0000 0.19613  0.68676  0.98998  Biso   1.000  O
  C82      1.0000 0.07939  0.71842  0.92670  Biso   1.000  C
  C83      1.0000 0.18068  0.64031  0.08389  Biso   1.000  C
  H128     1.0000 0.07111  0.59510  0.05740  Biso   1.000  H
  O66      1.0000 0.03578  0.63972  0.12748  Biso   1.000  O
  H129     1.0000 0.35119  0.57049  0.99538  Biso   1.000  H
  O67      1.0000 0.21868  0.58254  0.00126  Biso   1.000  O
  H130     1.0000 0.27650  0.51458  0.07979  Biso   1.000  H
  H131     1.0000 0.32473  0.60278  0.84769  Biso   1.000  H
  H132     1.0000 0.27083  0.63490  0.89212  Biso   1.000  H
  O68      1.0000 0.39200  0.63413  0.91128  Biso   1.000  O
  C84      1.0000 0.22931  0.64059  0.02700  Biso   1.000  C
  H133     1.0000 0.12267  0.71728  0.89778  Biso   1.000  H
  H134     1.0000 0.02751  0.70382  0.91002  Biso   1.000  H
  O69      1.0000 0.06609  0.77969  0.94469  Biso   1.000  O
  H135     1.0000 0.18941  0.67002  0.09930  Biso   1.000  H
  O70      1.0000 0.21210  0.59187  0.11982  Biso   1.000  O
  H136     1.0000 0.01147  0.60588  0.13528  Biso   1.000  H
  H137     1.0000 0.43899  0.63049  0.88410  Biso   1.000  H
  H138     1.0000 0.28732  0.64768  0.03371  Biso   1.000  H
  H139     1.0000 0.09699  0.79152  0.93049  Biso   1.000  H
  H140     1.0000 0.23309  0.56821  0.10091  Biso   1.000  H
  O71      1.0000 0.56701  0.18205  0.36690  Biso   1.000  O
  C85      1.0000 0.53598  0.13579  0.32818  Biso   1.000  C
  H141     1.0000 0.52731  0.19370  0.39011  Biso   1.000  H
  C86      1.0000 0.47249  0.16099  0.28419  Biso   1.000  C
  H142     1.0000 0.51141  0.10731  0.34769  Biso   1.000  H
  H143     1.0000 0.57972  0.12032  0.31041  Biso   1.000  H
  O72      1.0000 0.39721  0.18023  0.31603  Biso   1.000  O
  C87      1.0000 0.50789  0.21271  0.24730  Biso   1.000  C
  H144     1.0000 0.45848  0.13351  0.26311  Biso   1.000  H
  C88      1.0000 0.32890  0.20561  0.28310  Biso   1.000  C
  C89      1.0000 0.43710  0.24291  0.21119  Biso   1.000  C
  H145     1.0000 0.53168  0.23969  0.27008  Biso   1.000  H
  O73      1.0000 0.57202  0.19097  0.20723  Biso   1.000  O
  C90      1.0000 0.36090  0.26170  0.25009  Biso   1.000  C
  H146     1.0000 0.28021  0.21790  0.31019  Biso   1.000  H
  O74      1.0000 0.29598  0.16376  0.24151  Biso   1.000  O
  H147     1.0000 0.41631  0.21471  0.18149  Biso   1.000  H
  O75      1.0000 0.47302  0.29591  0.18362  Biso   1.000  O
  C91      1.0000 0.65950  0.20689  0.21781  Biso   1.000  C
  O76      1.0000 0.29162  0.28754  0.21825  Biso   1.000  O
  H148     1.0000 0.38411  0.29482  0.28149  Biso   1.000  H
  C92      1.0000 0.21210  0.13711  0.25179  Biso   1.000  C
  H149     1.0000 0.52399  0.28790  0.17139  Biso   1.000  H
  H150     1.0000 0.66093  0.23891  0.24682  Biso   1.000  H
  C93      1.0000 0.70030  0.22981  0.16159  Biso   1.000  C
  O77      1.0000 0.70630  0.15621  0.23942  Biso   1.000  O
  H151     1.0000 0.31417  0.31060  0.19268  Biso   1.000  H
  C94      1.0000 0.15409  0.15548  0.20192  Biso   1.000  C
  H152     1.0000 0.19013  0.15039  0.28480  Biso   1.000  H
  C95      1.0000 0.22181  0.06760  0.25309  Biso   1.000  C
  H153     1.0000 0.76659  0.25001  0.17269  Biso   1.000  H
  O78      1.0000 0.64633  0.27712  0.13850  Biso   1.000  O
  C96      1.0000 0.71373  0.17968  0.11760  Biso   1.000  C
  C97      1.0000 0.71132  0.10581  0.20022  Biso   1.000  C
  C98      1.0000 0.06811  0.12141  0.20122  Biso   1.000  C
  H154     1.0000 0.18140  0.14730  0.16969  Biso   1.000  H
  O79      1.0000 0.13962  0.21953  0.20392  Biso   1.000  O
  H155     1.0000 0.24840  0.05431  0.21551  Biso   1.000  H
  O80      1.0000 0.13571  0.04149  0.25780  Biso   1.000  O
  C99      1.0000 0.27689  0.04322  0.30231  Biso   1.000  C
  H156     1.0000 0.66608  0.30260  0.14098  Biso   1.000  H
  H157     1.0000 0.65819  0.16658  0.10331  Biso   1.000  H
  O81      1.0000 0.76320  0.20448  0.07060  Biso   1.000  O
  C100     1.0000 0.76020  0.12560  0.14551  Biso   1.000  C
  H158     1.0000 0.65611  0.09398  0.18998  Biso   1.000  H
  C101     1.0000 0.75603  0.05482  0.23358  Biso   1.000  C
  C102     1.0000 0.08311  0.05340  0.20810  Biso   1.000  C
  H159     1.0000 0.03402  0.13529  0.23389  Biso   1.000  H
  O82      1.0000 0.02053  0.13224  0.14900  Biso   1.000  O
  H160     1.0000 0.18642  0.23718  0.20771  Biso   1.000  H
  H161     1.0000 0.33940  0.05982  0.29900  Biso   1.000  H
  O83      1.0000 0.24110  0.06191  0.35610  Biso   1.000  O
  H162     1.0000 0.27962  0.99650  0.30000  Biso   1.000  H
  H163     1.0000 0.78393  0.17550  0.05039  Biso   1.000  H
  H164     1.0000 0.82010  0.13711  0.15588  Biso   1.000  H
  O84      1.0000 0.76222  0.07788  0.10296  Biso   1.000  O
  H165     1.0000 0.71353  0.03980  0.26799  Biso   1.000  H
  H166     1.0000 0.76828  0.01669  0.20518  Biso   1.000  H
  O85      1.0000 0.83451  0.07620  0.25797  Biso   1.000  O
  H167     1.0000 0.02203  0.03030  0.21228  Biso   1.000  H
  O86      1.0000 0.12743  0.03289  0.15767  Biso   1.000  O
  H168     1.0000 0.00463  0.16781  0.14808  Biso   1.000  H
  H169     1.0000 0.18387  0.04649  0.36010  Biso   1.000  H
  C103     1.0000 0.84428  0.05518  0.08480  Biso   1.000  C
  H170     1.0000 0.86970  0.04508  0.26450  Biso   1.000  H
  C104     1.0000 0.08669  0.98740  0.12239  Biso   1.000  C
  H171     1.0000 0.88411  0.07811  0.09861  Biso   1.000  H
  C105     1.0000 0.84930  0.05609  0.01960  Biso   1.000  C
  O87      1.0000 0.85732  0.99513  0.10544  Biso   1.000  O
  C106     1.0000 0.10931  0.00532  0.06010  Biso   1.000  C
  H172     1.0000 0.02438  0.98872  0.12770  Biso   1.000  H
  C107     1.0000 0.12182  0.92549  0.13750  Biso   1.000  C
  H173     1.0000 0.90229  0.04440  0.00902  Biso   1.000  H
  O88      1.0000 0.83438  0.11659  0.00035  Biso   1.000  O
  C108     1.0000 0.78399  0.01292  0.99347  Biso   1.000  C
  C109     1.0000 0.79260  0.95251  0.08550  Biso   1.000  C
  H174     1.0000 0.16732  0.01101  0.05758  Biso   1.000  H
  O89      1.0000 0.06642  0.06137  0.04817  Biso   1.000  O
  C110     1.0000 0.08343  0.95601  0.01829  Biso   1.000  C
  H175     1.0000 0.18948  0.92722  0.13611  Biso   1.000  H
  O90      1.0000 0.09282  0.88168  0.09543  Biso   1.000  O
  C111     1.0000 0.09542  0.90151  0.19599  Biso   1.000  C
  H176     1.0000 0.87257  0.12628  0.97722  Biso   1.000  H
  H177     1.0000 0.72579  0.02802  0.00109  Biso   1.000  H
  C112     1.0000 0.79338  0.95010  0.01938  Biso   1.000  C
  O91      1.0000 0.79801  0.01060  0.93171  Biso   1.000  O
  H178     1.0000 0.73967  0.96402  0.09791  Biso   1.000  H
  C113     1.0000 0.81658  0.89178  0.11280  Biso   1.000  C
  H179     1.0000 0.08167  0.07419  0.01481  Biso   1.000  H
  O92      1.0000 0.10742  0.96989  0.95993  Biso   1.000  O
  C114     1.0000 0.11798  0.89501  0.03702  Biso   1.000  C
  H180     1.0000 0.02588  0.95378  0.01860  Biso   1.000  H
  H181     1.0000 0.12280  0.86048  0.20209  Biso   1.000  H
  H182     1.0000 0.11719  0.92940  0.22731  Biso   1.000  H
  O93      1.0000 0.00280  0.89610  0.19956  Biso   1.000  O
  O94      1.0000 0.71868  0.91748  0.99874  Biso   1.000  O
  H183     1.0000 0.85119  0.92949  0.00462  Biso   1.000  H
  H184     1.0000 0.77650  0.98540  0.92021  Biso   1.000  H
  H185     1.0000 0.82473  0.89719  0.15231  Biso   1.000  H
  H186     1.0000 0.77083  0.86508  0.10788  Biso   1.000  H
  O95      1.0000 0.89200  0.86585  0.08872  Biso   1.000  O
  H187     1.0000 0.16399  0.97020  0.95449  Biso   1.000  H
  H188     1.0000 0.09112  0.85962  0.00810  Biso   1.000  H
  O96      1.0000 0.20890  0.89478  0.03206  Biso   1.000  O
  H189     1.0000 0.98931  0.85862  0.20039  Biso   1.000  H
  C115     1.0000 0.72931  0.85939  0.97300  Biso   1.000  C
  H190     1.0000 0.93899  0.86949  0.11590  Biso   1.000  H
  C116     1.0000 0.24879  0.83751  0.01751  Biso   1.000  C
  H191     1.0000 0.78732  0.85229  0.96629  Biso   1.000  H
  C117     1.0000 0.68068  0.85971  0.91611  Biso   1.000  C
  O97      1.0000 0.69613  0.81322  0.01002  Biso   1.000  O
  C118     1.0000 0.28099  0.84138  0.95492  Biso   1.000  C
  H192     1.0000 0.20447  0.80421  0.02099  Biso   1.000  H
  C119     1.0000 0.32388  0.82482  0.05871  Biso   1.000  C
  H193     1.0000 0.68941  0.83001  0.90070  Biso   1.000  H
  O98      1.0000 0.71210  0.90811  0.88018  Biso   1.000  O
  C120     1.0000 0.58271  0.86558  0.92600  Biso   1.000  C
  C121     1.0000 0.60520  0.82318  0.02452  Biso   1.000  C
  C122     1.0000 0.33568  0.78670  0.93872  Biso   1.000  C
  H194     1.0000 0.32232  0.88482  0.94961  Biso   1.000  H
  O99      1.0000 0.20740  0.84511  0.91729  Biso   1.000  O
  H195     1.0000 0.35980  0.85671  0.05980  Biso   1.000  H
  O100     1.0000 0.37101  0.77146  0.03968  Biso   1.000  O
  C123     1.0000 0.29103  0.80949  0.11969  Biso   1.000  C
  H196     1.0000 0.73309  0.93181  0.89909  Biso   1.000  H
  H197     1.0000 0.57111  0.90488  0.94260  Biso   1.000  H
  O101     1.0000 0.53578  0.86030  0.87252  Biso   1.000  O
  C124     1.0000 0.55227  0.81722  0.96847  Biso   1.000  C
  H198     1.0000 0.59907  0.86640  0.03859  Biso   1.000  H
  C125     1.0000 0.57939  0.78160  0.07330  Biso   1.000  C
  C126     1.0000 0.40692  0.77701  0.98380  Biso   1.000  C
  H199     1.0000 0.30068  0.75349  0.93841  Biso   1.000  H
  O102     1.0000 0.37270  0.79370  0.88188  Biso   1.000  O
  H200     1.0000 0.21210  0.87640  0.88881  Biso   1.000  H
  H201     1.0000 0.28223  0.85411  0.14321  Biso   1.000  H
  H202     1.0000 0.27030  0.75900  0.13349  Biso   1.000  H
  O103     1.0000 0.36058  0.79612  0.15771  Biso   1.000  O
  H203     1.0000 0.51147  0.89410  0.86472  Biso   1.000  H
  O104     1.0000 0.46272  0.82837  0.98014  Biso   1.000  O
  H204     1.0000 0.56023  0.77469  0.95091  Biso   1.000  H
  H205     1.0000 0.62267  0.78270  0.10222  Biso   1.000  H
  H206     1.0000 0.52751  0.79621  0.08998  Biso   1.000  H
  O105     1.0000 0.56609  0.72028  0.05531  Biso   1.000  O
  H207     1.0000 0.44023  0.73989  0.97439  Biso   1.000  H
  H208     1.0000 0.42198  0.81481  0.88458  Biso   1.000  H
  H209     1.0000 0.38281  0.76159  0.15009  Biso   1.000  H
  H210     1.0000 0.59699  0.70850  0.06951  Biso   1.000  H
  O106     1.0000 0.36038  0.78047  0.70392  Biso   1.000  O
  C127     1.0000 0.34591  0.84452  0.70192  Biso   1.000  C
  H211     1.0000 0.31358  0.76282  0.70771  Biso   1.000  H
  C128     1.0000 0.28790  0.86289  0.75179  Biso   1.000  C
  C129     1.0000 0.43189  0.87859  0.70122  Biso   1.000  C
  H212     1.0000 0.31860  0.85270  0.66969  Biso   1.000  H
  O107     1.0000 0.20402  0.83624  0.74151  Biso   1.000  O
  H213     1.0000 0.30987  0.84961  0.78480  Biso   1.000  H
  C130     1.0000 0.27819  0.93240  0.75309  Biso   1.000  C
  C131     1.0000 0.41689  0.94660  0.70810  Biso   1.000  C
  H214     1.0000 0.46598  0.86471  0.73389  Biso   1.000  H
  O108     1.0000 0.47947  0.86776  0.64900  Biso   1.000  O
  C132     1.0000 0.17110  0.79439  0.78310  Biso   1.000  C
  H215     1.0000 0.25160  0.94569  0.71551  Biso   1.000  H
  O109     1.0000 0.36429  0.95851  0.75780  Biso   1.000  O
  C133     1.0000 0.22311  0.95678  0.80231  Biso   1.000  C
  H216     1.0000 0.47797  0.96970  0.71228  Biso   1.000  H
  O110     1.0000 0.37257  0.96711  0.65767  Biso   1.000  O
  H217     1.0000 0.49537  0.83219  0.64808  Biso   1.000  H
  C134     1.0000 0.13910  0.73830  0.75009  Biso   1.000  C
  H218     1.0000 0.21979  0.78210  0.81019  Biso   1.000  H
  O111     1.0000 0.10279  0.81977  0.81603  Biso   1.000  O
  H219     1.0000 0.16060  0.94018  0.79900  Biso   1.000  H
  O112     1.0000 0.25890  0.93809  0.85610  Biso   1.000  O
  H220     1.0000 0.22038  0.00350  0.80000  Biso   1.000  H
  C135     1.0000 0.41331  0.01260  0.62239  Biso   1.000  C
  C136     1.0000 0.06290  0.75709  0.71119  Biso   1.000  C
  H221     1.0000 0.11589  0.70518  0.78149  Biso   1.000  H
  O113     1.0000 0.20838  0.71246  0.71825  Biso   1.000  O
  C137     1.0000 0.02751  0.83901  0.78419  Biso   1.000  C
  H222     1.0000 0.31613  0.95351  0.86010  Biso   1.000  H
  C138     1.0000 0.39069  0.99468  0.56010  Biso   1.000  C
  H223     1.0000 0.47562  0.01128  0.62770  Biso   1.000  H
  C139     1.0000 0.37818  0.07451  0.63750  Biso   1.000  C
  O114     1.0000 0.02698  0.70409  0.68362  Biso   1.000  O
  H224     1.0000 0.08369  0.78529  0.68149  Biso   1.000  H
  C140     1.0000 0.99211  0.78729  0.74730  Biso   1.000  C
  H225     1.0000 0.18583  0.68940  0.69268  Biso   1.000  H
  H226     1.0000 0.04152  0.86649  0.76311  Biso   1.000  H
  C141     1.0000 0.96402  0.86421  0.82818  Biso   1.000  C
  H227     1.0000 0.33268  0.98899  0.55758  Biso   1.000  H
  O115     1.0000 0.43358  0.93863  0.54817  Biso   1.000  O
  C142     1.0000 0.41657  0.04399  0.51829  Biso   1.000  C
  H228     1.0000 0.31052  0.07278  0.63611  Biso   1.000  H
  O116     1.0000 0.40718  0.11832  0.59543  Biso   1.000  O
  C143     1.0000 0.40458  0.09849  0.69599  Biso   1.000  C
  H229     1.0000 0.97601  0.71210  0.67139  Biso   1.000  H
  H230     1.0000 0.96832  0.76031  0.77008  Biso   1.000  H
  O117     1.0000 0.92798  0.80903  0.70723  Biso   1.000  O
  H231     1.0000 0.98859  0.89269  0.84769  Biso   1.000  H
  H232     1.0000 0.92028  0.87968  0.81041  Biso   1.000  H
  O118     1.0000 0.93299  0.81795  0.86690  Biso   1.000  O
  H233     1.0000 0.41833  0.92581  0.51481  Biso   1.000  H
  C144     1.0000 0.38202  0.10499  0.53702  Biso   1.000  C
  H234     1.0000 0.47412  0.04622  0.51860  Biso   1.000  H
  O119     1.0000 0.39258  0.03011  0.45993  Biso   1.000  O
  H235     1.0000 0.37720  0.13952  0.70209  Biso   1.000  H
  H236     1.0000 0.38281  0.07060  0.72731  Biso   1.000  H
  O120     1.0000 0.49720  0.10390  0.69956  Biso   1.000  O
  C145     1.0000 0.84050  0.79311  0.71781  Biso   1.000  C
  H237     1.0000 0.97269  0.80630  0.89011  Biso   1.000  H
  H238     1.0000 0.40888  0.14038  0.50810  Biso   1.000  H
  O121     1.0000 0.29110  0.10522  0.53206  Biso   1.000  O
  H239     1.0000 0.33601  0.02980  0.45449  Biso   1.000  H
  H240     1.0000 0.51069  0.14138  0.70039  Biso   1.000  H
  H241     1.0000 0.83907  0.76109  0.74682  Biso   1.000  H
  C146     1.0000 0.79970  0.77019  0.66159  Biso   1.000  C
  O122     1.0000 0.79370  0.84379  0.73942  Biso   1.000  O
  C147     1.0000 0.25121  0.16249  0.51751  Biso   1.000  C
  H242     1.0000 0.73341  0.74999  0.67269  Biso   1.000  H
  O123     1.0000 0.85367  0.72288  0.63850  Biso   1.000  O
  C148     1.0000 0.78627  0.82032  0.61760  Biso   1.000  C
  C149     1.0000 0.78868  0.89419  0.70022  Biso   1.000  C
  C150     1.0000 0.21901  0.15862  0.45492  Biso   1.000  C
  H243     1.0000 0.29553  0.19579  0.52099  Biso   1.000  H
  C151     1.0000 0.17612  0.17518  0.55871  Biso   1.000  C
  H244     1.0000 0.83392  0.69740  0.64098  Biso   1.000  H
  H245     1.0000 0.84181  0.83342  0.60331  Biso   1.000  H
  O124     1.0000 0.73680  0.79552  0.57060  Biso   1.000  O
  C152     1.0000 0.73980  0.87440  0.64551  Biso   1.000  C
  H246     1.0000 0.84389  0.90602  0.68998  Biso   1.000  H
  C153     1.0000 0.74397  0.94518  0.73358  Biso   1.000  C
  C154     1.0000 0.16432  0.21330  0.43872  Biso   1.000  C
  H247     1.0000 0.17768  0.11518  0.44961  Biso   1.000  H
  O125     1.0000 0.29260  0.15489  0.41729  Biso   1.000  O
  H248     1.0000 0.14020  0.14329  0.55980  Biso   1.000  H
  O126     1.0000 0.12899  0.22854  0.53968  Biso   1.000  O
  C155     1.0000 0.20897  0.19051  0.61969  Biso   1.000  C
  H249     1.0000 0.71607  0.82450  0.55039  Biso   1.000  H
  H250     1.0000 0.67990  0.86289  0.65588  Biso   1.000  H
  O127     1.0000 0.73778  0.92212  0.60296  Biso   1.000  O
  H251     1.0000 0.78647  0.96020  0.76799  Biso   1.000  H
  H252     1.0000 0.73172  0.98331  0.70518  Biso   1.000  H
  O128     1.0000 0.66549  0.92380  0.75797  Biso   1.000  O
  C156     1.0000 0.09308  0.22299  0.48380  Biso   1.000  C
  H253     1.0000 0.19932  0.24651  0.43841  Biso   1.000  H
  O129     1.0000 0.12730  0.20630  0.38188  Biso   1.000  O
  H254     1.0000 0.28790  0.12360  0.38881  Biso   1.000  H
  H255     1.0000 0.21777  0.14589  0.64321  Biso   1.000  H
  H256     1.0000 0.22970  0.24100  0.63349  Biso   1.000  H
  O130     1.0000 0.13942  0.20388  0.65771  Biso   1.000  O
  C157     1.0000 0.65572  0.94482  0.58480  Biso   1.000  C
  H257     1.0000 0.63030  0.95492  0.76450  Biso   1.000  H
  O131     1.0000 0.03728  0.17163  0.48014  Biso   1.000  O
  H258     1.0000 0.05977  0.26011  0.47439  Biso   1.000  H
  H259     1.0000 0.07802  0.18519  0.38458  Biso   1.000  H
  H260     1.0000 0.11719  0.23841  0.65009  Biso   1.000  H
  H261     1.0000 0.61589  0.92189  0.59861  Biso   1.000  H
  C158     1.0000 0.65070  0.94391  0.51960  Biso   1.000  C
  O132     1.0000 0.64268  0.00487  0.60544  Biso   1.000  O
  C159     1.0000 0.94773  0.18278  0.46847  Biso   1.000  C
  H262     1.0000 0.59771  0.95560  0.50902  Biso   1.000  H
  O133     1.0000 0.66562  0.88341  0.50035  Biso   1.000  O
  C160     1.0000 0.71601  0.98708  0.49347  Biso   1.000  C
  C161     1.0000 0.70740  0.04749  0.58550  Biso   1.000  C
  C162     1.0000 0.91729  0.13442  0.42600  Biso   1.000  C
  C163     1.0000 0.89480  0.17682  0.52452  Biso   1.000  C
  H263     1.0000 0.93977  0.22531  0.45091  Biso   1.000  H
  H264     1.0000 0.62743  0.87372  0.47722  Biso   1.000  H
  H265     1.0000 0.77421  0.97198  0.50109  Biso   1.000  H
  O134     1.0000 0.70199  0.98940  0.43171  Biso   1.000  O
  C164     1.0000 0.70662  0.04990  0.51938  Biso   1.000  C
  H266     1.0000 0.76033  0.03598  0.59791  Biso   1.000  H
  C165     1.0000 0.68342  0.10822  0.61280  Biso   1.000  C
  C166     1.0000 0.81932  0.14029  0.41611  Biso   1.000  C
  H267     1.0000 0.92889  0.09512  0.44260  Biso   1.000  H
  O135     1.0000 0.96422  0.13970  0.37252  Biso   1.000  O
  O136     1.0000 0.80387  0.18678  0.51002  Biso   1.000  O
  H268     1.0000 0.90093  0.13360  0.53859  Biso   1.000  H
  C167     1.0000 0.92061  0.21840  0.57330  Biso   1.000  C
  H269     1.0000 0.72350  0.01460  0.42021  Biso   1.000  H
  H270     1.0000 0.64881  0.07051  0.50462  Biso   1.000  H
  O137     1.0000 0.78132  0.08252  0.49874  Biso   1.000  O
  H271     1.0000 0.67527  0.10281  0.65231  Biso   1.000  H
  H272     1.0000 0.72917  0.13492  0.60788  Biso   1.000  H
  O138     1.0000 0.60800  0.13415  0.58872  Biso   1.000  O
  C168     1.0000 0.77069  0.14061  0.47300  Biso   1.000  C
  H273     1.0000 0.81059  0.16999  0.40070  Biso   1.000  H
  O139     1.0000 0.78790  0.09189  0.38018  Biso   1.000  O
  H274     1.0000 0.98853  0.10590  0.36472  Biso   1.000  H
  H275     1.0000 0.87733  0.21730  0.60222  Biso   1.000  H
  H276     1.0000 0.97249  0.20379  0.58998  Biso   1.000  H
  O140     1.0000 0.93391  0.27972  0.55531  Biso   1.000  O
  H277     1.0000 0.56101  0.13051  0.61590  Biso   1.000  H
  H278     1.0000 0.71268  0.14771  0.46629  Biso   1.000  H
  H279     1.0000 0.76691  0.06819  0.39909  Biso   1.000  H
  H280     1.0000 0.90301  0.29150  0.56951  Biso   1.000  H
