data_image0
_cell_length_a       13.429
_cell_length_b       17.694
_cell_length_c       35.77
_cell_angle_alpha    90
_cell_angle_beta     95.06
_cell_angle_gamma    90

_symmetry_space_group_name_H-M    "P 1"
_symmetry_int_tables_number       1

loop_
  _symmetry_equiv_pos_as_xyz
  'x, y, z'

loop_
  _atom_site_label
  _atom_site_occupancy
  _atom_site_fract_x
  _atom_site_fract_y
  _atom_site_fract_z
  _atom_site_thermal_displace_type
  _atom_site_B_iso_or_equiv
  _atom_site_type_symbol
  O1       1.0000 0.42529  0.77908  0.46791  Biso   1.000  O
  C1       1.0000 0.39304  0.72019  0.44251  Biso   1.000  C
  C2       1.0000 0.37171  0.74291  0.40311  Biso   1.000  C
  H1       1.0000 0.32906  0.70142  0.45102  Biso   1.000  H
  H2       1.0000 0.44407  0.67859  0.44451  Biso   1.000  H
  C3       1.0000 0.32221  0.68272  0.38099  Biso   1.000  C
  O2       1.0000 0.46703  0.76647  0.39011  Biso   1.000  O
  H3       1.0000 0.32556  0.78688  0.39839  Biso   1.000  H
  O3       1.0000 0.21802  0.68198  0.38950  Biso   1.000  O
  C4       1.0000 0.31253  0.70188  0.33819  Biso   1.000  C
  H4       1.0000 0.36069  0.63507  0.38691  Biso   1.000  H
  C5       1.0000 0.45911  0.79140  0.35099  Biso   1.000  C
  C6       1.0000 0.18575  0.62270  0.41189  Biso   1.000  C
  O4       1.0000 0.27444  0.63400  0.31681  Biso   1.000  O
  C7       1.0000 0.41261  0.72590  0.32742  Biso   1.000  C
  H5       1.0000 0.26221  0.74319  0.33351  Biso   1.000  H
  O5       1.0000 0.39032  0.85351  0.34599  Biso   1.000  O
  H6       1.0000 0.52603  0.80558  0.34299  Biso   1.000  H
  C8       1.0000 0.10587  0.58150  0.38691  Biso   1.000  C
  O6       1.0000 0.14667  0.65231  0.44459  Biso   1.000  O
  H7       1.0000 0.24244  0.58811  0.41989  Biso   1.000  H
  O7       1.0000 0.40185  0.75003  0.28669  Biso   1.000  O
  H8       1.0000 0.45494  0.67989  0.33261  Biso   1.000  H
  C9       1.0000 0.43524  0.92602  0.34420  Biso   1.000  C
  O8       1.0000 0.14842  0.54680  0.35411  Biso   1.000  O
  C10      1.0000 0.02365  0.63660  0.37611  Biso   1.000  C
  H9       1.0000 0.07351  0.54052  0.40069  Biso   1.000  H
  C11      1.0000 0.06745  0.70838  0.43479  Biso   1.000  C
  C12      1.0000 0.39453  0.95609  0.30499  Biso   1.000  C
  C13      1.0000 0.39792  0.97502  0.37361  Biso   1.000  C
  H10      1.0000 0.50994  0.92500  0.34740  Biso   1.000  H
  H11      1.0000 0.05213  0.67650  0.36039  Biso   1.000  H
  O9       1.0000 0.93975  0.59489  0.35719  Biso   1.000  O
  C14      1.0000 0.98613  0.67820  0.40850  Biso   1.000  C
  C15      1.0000 0.04184  0.74472  0.46971  Biso   1.000  C
  H12      1.0000 0.09104  0.74658  0.41700  Biso   1.000  H
  O10      1.0000 0.42732  0.91087  0.27530  Biso   1.000  O
  H13      1.0000 0.31997  0.95349  0.30362  Biso   1.000  H
  C16      1.0000 0.42105  0.03538  0.29929  Biso   1.000  C
  C17      1.0000 0.43726  0.95541  0.41330  Biso   1.000  C
  H14      1.0000 0.32453  0.96428  0.37151  Biso   1.000  H
  O11      1.0000 0.42803  0.05527  0.36609  Biso   1.000  O
  O12      1.0000 0.92003  0.73618  0.39371  Biso   1.000  O
  H15      1.0000 0.94855  0.64259  0.42379  Biso   1.000  H
  H16      1.0000 0.00676  0.79388  0.46429  Biso   1.000  H
  H17      1.0000 0.10444  0.75370  0.48641  Biso   1.000  H
  O13      1.0000 0.98037  0.69798  0.48891  Biso   1.000  O
  O14      1.0000 0.38334  0.06991  0.26430  Biso   1.000  O
  C18      1.0000 0.38707  0.08732  0.33280  Biso   1.000  C
  H18      1.0000 0.49552  0.03120  0.30089  Biso   1.000  H
  O15      1.0000 0.54207  0.95298  0.41599  Biso   1.000  O
  H19      1.0000 0.40823  0.90697  0.42191  Biso   1.000  H
  H20      1.0000 0.41847  0.99768  0.42971  Biso   1.000  H
  C19      1.0000 0.82884  0.74347  0.40810  Biso   1.000  C
  O16      1.0000 0.28073  0.08342  0.32930  Biso   1.000  O
  H21      1.0000 0.40774  0.14140  0.33109  Biso   1.000  H
  O17      1.0000 0.82963  0.80491  0.43300  Biso   1.000  O
  C20      1.0000 0.75361  0.75591  0.37221  Biso   1.000  C
  H22      1.0000 0.81353  0.69707  0.42250  Biso   1.000  H
  C21      1.0000 0.22930  0.15350  0.32879  Biso   1.000  C
  C22      1.0000 0.85128  0.87798  0.41551  Biso   1.000  C
  O18      1.0000 0.75678  0.69159  0.34731  Biso   1.000  O
  C23      1.0000 0.77663  0.83418  0.35481  Biso   1.000  C
  H23      1.0000 0.68323  0.76348  0.37849  Biso   1.000  H
  C24      1.0000 0.15523  0.15129  0.29371  Biso   1.000  C
  C25      1.0000 0.17866  0.16198  0.36331  Biso   1.000  C
  H24      1.0000 0.27546  0.19769  0.32781  Biso   1.000  H
  C26      1.0000 0.77668  0.89601  0.38481  Biso   1.000  C
  C27      1.0000 0.86305  0.93037  0.44911  Biso   1.000  C
  H25      1.0000 0.91281  0.88601  0.40229  Biso   1.000  H
  O19      1.0000 0.69457  0.84803  0.32660  Biso   1.000  O
  H26      1.0000 0.84250  0.83209  0.34389  Biso   1.000  H
  O20      1.0000 0.20605  0.15322  0.25899  Biso   1.000  O
  C28      1.0000 0.08184  0.21098  0.29480  Biso   1.000  C
  H27      1.0000 0.12024  0.10167  0.29531  Biso   1.000  H
  O21      1.0000 0.10303  0.22183  0.36090  Biso   1.000  O
  C29      1.0000 0.24857  0.17870  0.39750  Biso   1.000  C
  H28      1.0000 0.14326  0.11258  0.36511  Biso   1.000  H
  O22      1.0000 0.80227  0.96400  0.36570  Biso   1.000  O
  H29      1.0000 0.70911  0.89703  0.39449  Biso   1.000  H
  O23      1.0000 0.76718  0.94060  0.46452  Biso   1.000  O
  H30      1.0000 0.88802  0.98112  0.44161  Biso   1.000  H
  H31      1.0000 0.91303  0.90782  0.46850  Biso   1.000  H
  C30      1.0000 0.02871  0.21001  0.33109  Biso   1.000  C
  O24      1.0000 0.00201  0.20131  0.26531  Biso   1.000  O
  H32      1.0000 0.12223  0.25738  0.29110  Biso   1.000  H
  O25      1.0000 0.30946  0.24070  0.39359  Biso   1.000  O
  H33      1.0000 0.29638  0.13541  0.40131  Biso   1.000  H
  H34      1.0000 0.21126  0.18481  0.42031  Biso   1.000  H
  C31      1.0000 0.73601  0.02843  0.36671  Biso   1.000  C
  O26      1.0000 0.98212  0.14231  0.33499  Biso   1.000  O
  H35      1.0000 0.97506  0.24929  0.33000  Biso   1.000  H
  O27      1.0000 0.78143  0.08268  0.39171  Biso   1.000  O
  C32      1.0000 0.72495  0.05979  0.32660  Biso   1.000  C
  H36      1.0000 0.67052  0.01051  0.37479  Biso   1.000  H
  C33      1.0000 0.88132  0.13971  0.34431  Biso   1.000  C
  C34      1.0000 0.88026  0.10942  0.38290  Biso   1.000  C
  O28      1.0000 0.67991  0.00300  0.30159  Biso   1.000  O
  C35      1.0000 0.82546  0.08822  0.31860  Biso   1.000  C
  H37      1.0000 0.68196  0.10569  0.32239  Biso   1.000  H
  H38      1.0000 0.85292  0.19187  0.34229  Biso   1.000  H
  C36      1.0000 0.90825  0.16661  0.41490  Biso   1.000  C
  H39      1.0000 0.93007  0.06782  0.38130  Biso   1.000  H
  O29      1.0000 0.81076  0.12597  0.28231  Biso   1.000  O
  H40      1.0000 0.86856  0.04222  0.32200  Biso   1.000  H
  O30      1.0000 0.91905  0.13293  0.45102  Biso   1.000  O
  H41      1.0000 0.85334  0.20498  0.41380  Biso   1.000  H
  H42      1.0000 0.97273  0.19210  0.41071  Biso   1.000  H
  O31      1.0000 0.69068  0.74070  0.60642  Biso   1.000  O
  C37      1.0000 0.75157  0.67870  0.60252  Biso   1.000  C
  C38      1.0000 0.82148  0.66198  0.63670  Biso   1.000  C
  H43      1.0000 0.70376  0.63541  0.59870  Biso   1.000  H
  H44      1.0000 0.78888  0.68481  0.57970  Biso   1.000  H
  C39      1.0000 0.77076  0.65350  0.67119  Biso   1.000  C
  O32      1.0000 0.89711  0.72183  0.63911  Biso   1.000  O
  H45      1.0000 0.85688  0.61258  0.63490  Biso   1.000  H
  O33      1.0000 0.71941  0.58342  0.67072  Biso   1.000  O
  C40      1.0000 0.84491  0.65129  0.70630  Biso   1.000  C
  H46      1.0000 0.72468  0.69769  0.67220  Biso   1.000  H
  C41      1.0000 0.97135  0.71001  0.66889  Biso   1.000  C
  C42      1.0000 0.61307  0.58732  0.66721  Biso   1.000  C
  O34      1.0000 0.79408  0.65322  0.74099  Biso   1.000  O
  C43      1.0000 0.91830  0.71098  0.70521  Biso   1.000  C
  H47      1.0000 0.87991  0.60167  0.70470  Biso   1.000  H
  O35      1.0000 0.01802  0.64231  0.66502  Biso   1.000  O
  H48      1.0000 0.02508  0.74929  0.67001  Biso   1.000  H
  C44      1.0000 0.57910  0.53538  0.70072  Biso   1.000  C
  O36      1.0000 0.57211  0.55527  0.63389  Biso   1.000  O
  H49      1.0000 0.59239  0.64140  0.66889  Biso   1.000  H
  O37      1.0000 0.99806  0.70131  0.73471  Biso   1.000  O
  H50      1.0000 0.87792  0.75738  0.70891  Biso   1.000  H
  C45      1.0000 0.11875  0.63971  0.65570  Biso   1.000  C
  C46      1.0000 0.60560  0.45609  0.69499  Biso   1.000  C
  O38      1.0000 0.61681  0.56991  0.73572  Biso   1.000  O
  H51      1.0000 0.50455  0.53120  0.69912  Biso   1.000  H
  C47      1.0000 0.60215  0.47502  0.62640  Biso   1.000  C
  C48      1.0000 0.17468  0.58822  0.68141  Biso   1.000  C
  C49      1.0000 0.11988  0.60942  0.61711  Biso   1.000  C
  H52      1.0000 0.14721  0.69187  0.65769  Biso   1.000  H
  C50      1.0000 0.56490  0.42602  0.65581  Biso   1.000  C
  O39      1.0000 0.57282  0.41087  0.72471  Biso   1.000  O
  H53      1.0000 0.68017  0.45349  0.69640  Biso   1.000  H
  C51      1.0000 0.56289  0.45541  0.58671  Biso   1.000  C
  H54      1.0000 0.67554  0.46428  0.62850  Biso   1.000  H
  C52      1.0000 0.27519  0.55979  0.67341  Biso   1.000  C
  O40      1.0000 0.18938  0.62597  0.71770  Biso   1.000  O
  H55      1.0000 0.13158  0.54222  0.67801  Biso   1.000  H
  O41      1.0000 0.21871  0.58268  0.60830  Biso   1.000  O
  C53      1.0000 0.09189  0.66661  0.58512  Biso   1.000  C
  H56      1.0000 0.07007  0.56782  0.61871  Biso   1.000  H
  O42      1.0000 0.60975  0.35351  0.65402  Biso   1.000  O
  H57      1.0000 0.49020  0.42500  0.65261  Biso   1.000  H
  O43      1.0000 0.45807  0.45298  0.58399  Biso   1.000  O
  H58      1.0000 0.59184  0.40697  0.57810  Biso   1.000  H
  H59      1.0000 0.58167  0.49768  0.57030  Biso   1.000  H
  C54      1.0000 0.26406  0.52843  0.63330  Biso   1.000  C
  O44      1.0000 0.32016  0.50300  0.69842  Biso   1.000  O
  H60      1.0000 0.31817  0.60569  0.67759  Biso   1.000  H
  O45      1.0000 0.08109  0.63293  0.54899  Biso   1.000  O
  H61      1.0000 0.14680  0.70498  0.58621  Biso   1.000  H
  H62      1.0000 0.02734  0.69210  0.58930  Biso   1.000  H
  C55      1.0000 0.54096  0.29140  0.64899  Biso   1.000  C
  O46      1.0000 0.19787  0.46400  0.63431  Biso   1.000  O
  H63      1.0000 0.32962  0.51051  0.62519  Biso   1.000  H
  O47      1.0000 0.53304  0.26647  0.60990  Biso   1.000  O
  C56      1.0000 0.58746  0.22590  0.67260  Biso   1.000  C
  H64      1.0000 0.47410  0.30558  0.65699  Biso   1.000  H
  C57      1.0000 0.22346  0.39601  0.61520  Biso   1.000  C
  C58      1.0000 0.62835  0.24291  0.59690  Biso   1.000  C
  C59      1.0000 0.68761  0.20188  0.66179  Biso   1.000  C
  O48      1.0000 0.59828  0.25003  0.71329  Biso   1.000  O
  H65      1.0000 0.54521  0.17989  0.66740  Biso   1.000  H
  C60      1.0000 0.14886  0.37798  0.58450  Biso   1.000  C
  C61      1.0000 0.22351  0.33418  0.64520  Biso   1.000  C
  H66      1.0000 0.29096  0.39703  0.60549  Biso   1.000  H
  C62      1.0000 0.60703  0.22019  0.55750  Biso   1.000  C
  C63      1.0000 0.67785  0.18272  0.61899  Biso   1.000  C
  H67      1.0000 0.67459  0.28688  0.60162  Biso   1.000  H
  O49      1.0000 0.72570  0.13400  0.68320  Biso   1.000  O
  H68      1.0000 0.73786  0.24319  0.66651  Biso   1.000  H
  O50      1.0000 0.17044  0.30491  0.56701  Biso   1.000  O
  C64      1.0000 0.13709  0.43037  0.55090  Biso   1.000  C
  H69      1.0000 0.08725  0.38601  0.59772  Biso   1.000  H
  C65      1.0000 0.24645  0.25591  0.62780  Biso   1.000  C
  O51      1.0000 0.30557  0.34803  0.67341  Biso   1.000  O
  H70      1.0000 0.15756  0.33209  0.65609  Biso   1.000  H
  O52      1.0000 0.57485  0.27908  0.53210  Biso   1.000  O
  H71      1.0000 0.67109  0.20142  0.54899  Biso   1.000  H
  H72      1.0000 0.55608  0.17859  0.55551  Biso   1.000  H
  O53      1.0000 0.78205  0.18198  0.61051  Biso   1.000  O
  H73      1.0000 0.63946  0.13507  0.61310  Biso   1.000  H
  C66      1.0000 0.17130  0.24347  0.59191  Biso   1.000  C
  O54      1.0000 0.23296  0.44060  0.53549  Biso   1.000  O
  H74      1.0000 0.11205  0.48112  0.55840  Biso   1.000  H
  H75      1.0000 0.08704  0.40782  0.53151  Biso   1.000  H
  O55      1.0000 0.24337  0.19159  0.65270  Biso   1.000  O
  H76      1.0000 0.31691  0.26348  0.62152  Biso   1.000  H
  C67      1.0000 0.81438  0.12270  0.58809  Biso   1.000  C
  O56      1.0000 0.08011  0.23618  0.60630  Biso   1.000  O
  H77      1.0000 0.18661  0.19707  0.57751  Biso   1.000  H
  O57      1.0000 0.85347  0.15231  0.55539  Biso   1.000  O
  C68      1.0000 0.89428  0.08150  0.61310  Biso   1.000  C
  H78      1.0000 0.75770  0.08811  0.58009  Biso   1.000  H
  C69      1.0000 0.01401  0.17820  0.59151  Biso   1.000  C
  C70      1.0000 0.93270  0.20838  0.56522  Biso   1.000  C
  O58      1.0000 0.85165  0.04680  0.64591  Biso   1.000  O
  C71      1.0000 0.97649  0.13660  0.62390  Biso   1.000  C
  H79      1.0000 0.92656  0.04052  0.59932  Biso   1.000  H
  H80      1.0000 0.05159  0.14259  0.57619  Biso   1.000  H
  C72      1.0000 0.95830  0.24472  0.53030  Biso   1.000  C
  H81      1.0000 0.90910  0.24658  0.58301  Biso   1.000  H
  H82      1.0000 0.94801  0.17650  0.63959  Biso   1.000  H
  O59      1.0000 0.06039  0.09489  0.64282  Biso   1.000  O
  H83      1.0000 0.99338  0.29388  0.53569  Biso   1.000  H
  H84      1.0000 0.89570  0.25370  0.51360  Biso   1.000  H
  O60      1.0000 0.01977  0.19798  0.51111  Biso   1.000  O
  O61      1.0000 0.47914  0.63801  0.24861  Biso   1.000  O
  C73      1.0000 0.50640  0.67339  0.21821  Biso   1.000  C
  C74      1.0000 0.42995  0.67068  0.18411  Biso   1.000  C
  H85      1.0000 0.57080  0.65118  0.21119  Biso   1.000  H
  H86      1.0000 0.51642  0.72810  0.22441  Biso   1.000  H
  O62      1.0000 0.35202  0.71691  0.19789  Biso   1.000  O
  C75      1.0000 0.46634  0.69939  0.14880  Biso   1.000  C
  H87      1.0000 0.40739  0.61880  0.17620  Biso   1.000  H
  C76      1.0000 0.26463  0.71962  0.16980  Biso   1.000  C
  C77      1.0000 0.38439  0.71341  0.11760  Biso   1.000  C
  O63      1.0000 0.52404  0.64039  0.13261  Biso   1.000  O
  H88      1.0000 0.50244  0.74760  0.15571  Biso   1.000  H
  O64      1.0000 0.23805  0.64937  0.15809  Biso   1.000  O
  C78      1.0000 0.29914  0.75811  0.13379  Biso   1.000  C
  H89      1.0000 0.20949  0.74189  0.18330  Biso   1.000  H
  O65      1.0000 0.42432  0.75500  0.08661  Biso   1.000  O
  H90      1.0000 0.35533  0.66429  0.10800  Biso   1.000  H
  C79      1.0000 0.62779  0.64050  0.13710  Biso   1.000  C
  C80      1.0000 0.14042  0.61699  0.16789  Biso   1.000  C
  O66      1.0000 0.21243  0.76970  0.10769  Biso   1.000  O
  H91      1.0000 0.32820  0.80931  0.13929  Biso   1.000  H
  O67      1.0000 0.66501  0.58477  0.16020  Biso   1.000  O
  C81      1.0000 0.66300  0.63411  0.09649  Biso   1.000  C
  H92      1.0000 0.65441  0.68843  0.14900  Biso   1.000  H
  C82      1.0000 0.16149  0.55301  0.19009  Biso   1.000  C
  C83      1.0000 0.07560  0.59907  0.13480  Biso   1.000  C
  H93      1.0000 0.10986  0.65700  0.18330  Biso   1.000  H
  C84      1.0000 0.63801  0.50910  0.14639  Biso   1.000  C
  C85      1.0000 0.63610  0.55770  0.08119  Biso   1.000  C
  O68      1.0000 0.61975  0.69300  0.07311  Biso   1.000  O
  H94      1.0000 0.73703  0.63818  0.09590  Biso   1.000  H
  O69      1.0000 0.06706  0.51571  0.19699  Biso   1.000  O
  C86      1.0000 0.20303  0.57093  0.23121  Biso   1.000  C
  H95      1.0000 0.20691  0.52102  0.17580  Biso   1.000  H
  C87      1.0000 0.98528  0.56239  0.13800  Biso   1.000  C
  O70      1.0000 0.05268  0.67339  0.11361  Biso   1.000  O
  H96      1.0000 0.11315  0.55849  0.12251  Biso   1.000  H
  C88      1.0000 0.68103  0.49503  0.11049  Biso   1.000  C
  C89      1.0000 0.67444  0.45541  0.17690  Biso   1.000  C
  H97      1.0000 0.56533  0.49960  0.13940  Biso   1.000  H
  O71      1.0000 0.67681  0.55098  0.04499  Biso   1.000  O
  H98      1.0000 0.56268  0.54719  0.07931  Biso   1.000  H
  C90      1.0000 0.01363  0.49152  0.16390  Biso   1.000  C
  O72      1.0000 0.15024  0.62501  0.24931  Biso   1.000  O
  H99      1.0000 0.20705  0.52261  0.24580  Biso   1.000  H
  H100     1.0000 0.27103  0.59190  0.22969  Biso   1.000  H
  O73      1.0000 0.93308  0.53261  0.10280  Biso   1.000  O
  H101     1.0000 0.93889  0.60099  0.14720  Biso   1.000  H
  O74      1.0000 0.64598  0.42602  0.09189  Biso   1.000  O
  H102     1.0000 0.75603  0.49791  0.11369  Biso   1.000  H
  O75      1.0000 0.78260  0.45999  0.18431  Biso   1.000  O
  H103     1.0000 0.65513  0.40251  0.16980  Biso   1.000  H
  H104     1.0000 0.64323  0.46982  0.20031  Biso   1.000  H
  O76      1.0000 0.07300  0.44218  0.14401  Biso   1.000  O
  H105     1.0000 0.94934  0.46569  0.16820  Biso   1.000  H
  C91      1.0000 0.71341  0.36950  0.09110  Biso   1.000  C
  C92      1.0000 0.05521  0.36577  0.13960  Biso   1.000  C
  C93      1.0000 0.69518  0.33401  0.05091  Biso   1.000  C
  O77      1.0000 0.70801  0.31299  0.11880  Biso   1.000  O
  H106     1.0000 0.78260  0.39008  0.09590  Biso   1.000  H
  C94      1.0000 0.12704  0.31700  0.16101  Biso   1.000  C
  C95      1.0000 0.04603  0.34842  0.09671  Biso   1.000  C
  H107     1.0000 0.98884  0.35328  0.14869  Biso   1.000  H
  C96      1.0000 0.59589  0.29332  0.04729  Biso   1.000  C
  O78      1.0000 0.69930  0.40002  0.02341  Biso   1.000  O
  H108     1.0000 0.74412  0.29462  0.04429  Biso   1.000  H
  C97      1.0000 0.60902  0.27891  0.11650  Biso   1.000  C
  C98      1.0000 0.12419  0.32633  0.20311  Biso   1.000  C
  O79      1.0000 0.09801  0.23680  0.15411  Biso   1.000  O
  H109     1.0000 0.19260  0.33401  0.15290  Biso   1.000  H
  C99      1.0000 0.02182  0.26501  0.09161  Biso   1.000  C
  H110     1.0000 0.10898  0.35910  0.08479  Biso   1.000  H
  O80      1.0000 0.96073  0.39200  0.07659  Biso   1.000  O
  C100     1.0000 0.58741  0.24002  0.08030  Biso   1.000  C
  O81      1.0000 0.57980  0.25003  0.01179  Biso   1.000  O
  H111     1.0000 0.54393  0.33362  0.04799  Biso   1.000  H
  C101     1.0000 0.61383  0.22448  0.15060  Biso   1.000  C
  H112     1.0000 0.55401  0.31610  0.11911  Biso   1.000  H
  O82      1.0000 0.03113  0.32022  0.21681  Biso   1.000  O
  H113     1.0000 0.16232  0.28219  0.21451  Biso   1.000  H
  H114     1.0000 0.15805  0.37431  0.21190  Biso   1.000  H
  C102     1.0000 0.10045  0.21691  0.11470  Biso   1.000  C
  O83      1.0000 0.02933  0.24398  0.05130  Biso   1.000  O
  H115     1.0000 0.95579  0.25398  0.10151  Biso   1.000  H
  O84      1.0000 0.48739  0.21312  0.07741  Biso   1.000  O
  H116     1.0000 0.64108  0.20097  0.07959  Biso   1.000  H
  O85      1.0000 0.69151  0.16802  0.14619  Biso   1.000  O
  H117     1.0000 0.54809  0.19798  0.15130  Biso   1.000  H
  H118     1.0000 0.63001  0.25189  0.17479  Biso   1.000  H
  O86      1.0000 0.19601  0.22770  0.10339  Biso   1.000  O
  H119     1.0000 0.08849  0.16169  0.11041  Biso   1.000  H
  C103     1.0000 0.45589  0.13841  0.07550  Biso   1.000  C
  C104     1.0000 0.25694  0.16418  0.09461  Biso   1.000  C
  C105     1.0000 0.36967  0.12948  0.04670  Biso   1.000  C
  O87      1.0000 0.42150  0.11411  0.11041  Biso   1.000  O
  H120     1.0000 0.51560  0.10891  0.06910  Biso   1.000  H
  C106     1.0000 0.28848  0.17820  0.05610  Biso   1.000  C
  C107     1.0000 0.34391  0.16311  0.12310  Biso   1.000  C
  H121     1.0000 0.22043  0.11501  0.09579  Biso   1.000  H
  O88      1.0000 0.40932  0.15502  0.01229  Biso   1.000  O
  H122     1.0000 0.33950  0.07788  0.04409  Biso   1.000  H
  O89      1.0000 0.19972  0.17497  0.02759  Biso   1.000  O
  H123     1.0000 0.32238  0.22850  0.05681  Biso   1.000  H
  C108     1.0000 0.32703  0.13202  0.16250  Biso   1.000  C
  H124     1.0000 0.36288  0.21781  0.12430  Biso   1.000  H
  O90      1.0000 0.28352  0.06109  0.15891  Biso   1.000  O
  H125     1.0000 0.27906  0.16571  0.17479  Biso   1.000  H
  H126     1.0000 0.39100  0.12869  0.17869  Biso   1.000  H
  C109     1.0000 0.87587  0.82633  0.79690  Biso   1.000  C
  C110     1.0000 0.87311  0.81700  0.83900  Biso   1.000  C
  O91      1.0000 0.96902  0.82022  0.78320  Biso   1.000  O
  H127     1.0000 0.83783  0.78219  0.78550  Biso   1.000  H
  H128     1.0000 0.84209  0.87431  0.78811  Biso   1.000  H
  O92      1.0000 0.90213  0.73680  0.84590  Biso   1.000  O
  C111     1.0000 0.94493  0.86577  0.86041  Biso   1.000  C
  H129     1.0000 0.80747  0.83401  0.84711  Biso   1.000  H
  C112     1.0000 0.89970  0.71691  0.88531  Biso   1.000  C
  C113     1.0000 0.95411  0.84842  0.90330  Biso   1.000  C
  O93      1.0000 0.92714  0.94218  0.85601  Biso   1.000  O
  H130     1.0000 0.01130  0.85328  0.85132  Biso   1.000  H
  O94      1.0000 0.80413  0.72770  0.89662  Biso   1.000  O
  C114     1.0000 0.97832  0.76501  0.90840  Biso   1.000  C
  H131     1.0000 0.91158  0.66169  0.88960  Biso   1.000  H
  H132     1.0000 0.89108  0.85910  0.91520  Biso   1.000  H
  O95      1.0000 0.03941  0.89200  0.92342  Biso   1.000  O
  C115     1.0000 0.98651  0.99152  0.83611  Biso   1.000  C
  C116     1.0000 0.74320  0.66418  0.90540  Biso   1.000  C
  O96      1.0000 0.97081  0.74398  0.94871  Biso   1.000  O
  H133     1.0000 0.04428  0.75398  0.89850  Biso   1.000  H
  O97      1.0000 0.93309  0.01571  0.80302  Biso   1.000  O
  H134     1.0000 0.05081  0.96569  0.83181  Biso   1.000  H
  C117     1.0000 0.01478  0.06239  0.86201  Biso   1.000  C
  C118     1.0000 0.65623  0.66311  0.87691  Biso   1.000  C
  C119     1.0000 0.71159  0.67820  0.94391  Biso   1.000  C
  H135     1.0000 0.77970  0.61501  0.90419  Biso   1.000  H
  C120     1.0000 0.83857  0.05301  0.80989  Biso   1.000  C
  C121     1.0000 0.92454  0.09907  0.86521  Biso   1.000  C
  O98      1.0000 0.06699  0.03261  0.89721  Biso   1.000  O
  H136     1.0000 0.06117  0.10099  0.85281  Biso   1.000  H
  C122     1.0000 0.67311  0.63202  0.83751  Biso   1.000  C
  O99      1.0000 0.57864  0.61411  0.88960  Biso   1.000  O
  H137     1.0000 0.63718  0.71781  0.87571  Biso   1.000  H
  C123     1.0000 0.63039  0.62948  0.95331  Biso   1.000  C
  O100     1.0000 0.80042  0.67497  0.97239  Biso   1.000  O
  H138     1.0000 0.67769  0.72850  0.94321  Biso   1.000  H
  C124     1.0000 0.85972  0.11699  0.83209  Biso   1.000  C
  C125     1.0000 0.79712  0.07093  0.76881  Biso   1.000  C
  H139     1.0000 0.79323  0.02102  0.82421  Biso   1.000  H
  O101     1.0000 0.94739  0.17339  0.88640  Biso   1.000  O
  H140     1.0000 0.88699  0.05849  0.87750  Biso   1.000  H
  O102     1.0000 0.71663  0.56109  0.84110  Biso   1.000  O
  H141     1.0000 0.72109  0.66571  0.82522  Biso   1.000  H
  H142     1.0000 0.60907  0.62869  0.82132  Biso   1.000  H
  C126     1.0000 0.54425  0.63841  0.92451  Biso   1.000  C
  O103     1.0000 0.59082  0.65502  0.98772  Biso   1.000  O
  H143     1.0000 0.66065  0.57788  0.95592  Biso   1.000  H
  O104     1.0000 0.76209  0.14937  0.84192  Biso   1.000  O
  H144     1.0000 0.89028  0.15700  0.81671  Biso   1.000  H
  O105     1.0000 0.84990  0.12501  0.75070  Biso   1.000  O
  H145     1.0000 0.79309  0.02261  0.75421  Biso   1.000  H
  H146     1.0000 0.72911  0.09190  0.77029  Biso   1.000  H
  O106     1.0000 0.51267  0.71312  0.92261  Biso   1.000  O
  H147     1.0000 0.48454  0.60891  0.93091  Biso   1.000  H
  C127     1.0000 0.73551  0.21962  0.83021  Biso   1.000  C
  C128     1.0000 0.41273  0.74002  0.91972  Biso   1.000  C
  O107     1.0000 0.64811  0.21691  0.80209  Biso   1.000  O
  C129     1.0000 0.70100  0.25811  0.86619  Biso   1.000  C
  H148     1.0000 0.79057  0.24189  0.81671  Biso   1.000  H
  C130     1.0000 0.40425  0.79332  0.95269  Biso   1.000  C
  C131     1.0000 0.39112  0.77891  0.88351  Biso   1.000  C
  H149     1.0000 0.35898  0.70097  0.92042  Biso   1.000  H
  C132     1.0000 0.57019  0.17068  0.81590  Biso   1.000  C
  C133     1.0000 0.61568  0.21341  0.88242  Biso   1.000  C
  O108     1.0000 0.78770  0.26970  0.89229  Biso   1.000  O
  H150     1.0000 0.67193  0.30931  0.86069  Biso   1.000  H
  O109     1.0000 0.42033  0.75003  0.98820  Biso   1.000  O
  C134     1.0000 0.30488  0.83401  0.94910  Biso   1.000  C
  H151     1.0000 0.45621  0.83362  0.95202  Biso   1.000  H
  O110     1.0000 0.29214  0.81299  0.88121  Biso   1.000  O
  C135     1.0000 0.38631  0.72448  0.84941  Biso   1.000  C
  H152     1.0000 0.44613  0.81610  0.88090  Biso   1.000  H
  C136     1.0000 0.53380  0.19939  0.85121  Biso   1.000  C
  C137     1.0000 0.49367  0.17339  0.78180  Biso   1.000  C
  H153     1.0000 0.59267  0.11880  0.82381  Biso   1.000  H
  O111     1.0000 0.57582  0.25500  0.91340  Biso   1.000  O
  H154     1.0000 0.64481  0.16429  0.89201  Biso   1.000  H
  O112     1.0000 0.30085  0.90002  0.97660  Biso   1.000  O
  C138     1.0000 0.28673  0.86950  0.90891  Biso   1.000  C
  H155     1.0000 0.25602  0.79462  0.95570  Biso   1.000  H
  O113     1.0000 0.30864  0.66802  0.85382  Biso   1.000  O
  H156     1.0000 0.45197  0.69798  0.84871  Biso   1.000  H
  H157     1.0000 0.37013  0.75189  0.82522  Biso   1.000  H
  O114     1.0000 0.47610  0.14039  0.86740  Biso   1.000  O
  H158     1.0000 0.49770  0.24760  0.84430  Biso   1.000  H
  O115     1.0000 0.52101  0.13801  0.75140  Biso   1.000  O
  H159     1.0000 0.42927  0.15118  0.78882  Biso   1.000  H
  H160     1.0000 0.48372  0.22810  0.77560  Biso   1.000  H
  O116     1.0000 0.35408  0.92602  0.90810  Biso   1.000  O
  H161     1.0000 0.21754  0.89008  0.90411  Biso   1.000  H
  C139     1.0000 0.37228  0.14050  0.86291  Biso   1.000  C
  C140     1.0000 0.31911  0.99503  0.88952  Biso   1.000  C
  C141     1.0000 0.33714  0.13411  0.90349  Biso   1.000  C
  O117     1.0000 0.33513  0.08477  0.83981  Biso   1.000  O
  H162     1.0000 0.34573  0.18843  0.85101  Biso   1.000  H
  H163     1.0000 0.24411  0.99791  0.88632  Biso   1.000  H
  C142     1.0000 0.36404  0.05770  0.91882  Biso   1.000  C
  C143     1.0000 0.36212  0.00910  0.85359  Biso   1.000  C
  O118     1.0000 0.38039  0.19300  0.92690  Biso   1.000  O
  H164     1.0000 0.26311  0.13818  0.90411  Biso   1.000  H
  O119     1.0000 0.32332  0.05098  0.95499  Biso   1.000  O
  H165     1.0000 0.43739  0.04719  0.92070  Biso   1.000  H
  C144     1.0000 0.32570  0.95541  0.82311  Biso   1.000  C
  H166     1.0000 0.43481  0.99960  0.86061  Biso   1.000  H
  O120     1.0000 0.21747  0.95999  0.81570  Biso   1.000  O
  H167     1.0000 0.34502  0.90251  0.83021  Biso   1.000  H
  H168     1.0000 0.35691  0.96982  0.79971  Biso   1.000  H
