data_image0
_cell_length_a       12.703
_cell_length_b       9.871
_cell_length_c       32.07
_cell_angle_alpha    90
_cell_angle_beta     91.16
_cell_angle_gamma    90

_symmetry_space_group_name_H-M    "P 1"
_symmetry_int_tables_number       1

loop_
  _symmetry_equiv_pos_as_xyz
  'x, y, z'

loop_
  _atom_site_label
  _atom_site_occupancy
  _atom_site_fract_x
  _atom_site_fract_y
  _atom_site_fract_z
  _atom_site_thermal_displace_type
  _atom_site_B_iso_or_equiv
  _atom_site_type_symbol
  C1       1.0000 0.59247  0.47959  0.55169  Biso   1.000  C
  C2       1.0000 0.50287  0.43066  0.58054  Biso   1.000  C
  H1       1.0000 0.62280  0.56144  0.56279  Biso   1.000  H
  H2       1.0000 0.64578  0.41090  0.55032  Biso   1.000  H
  H3       1.0000 0.56407  0.49661  0.52421  Biso   1.000  H
  C3       1.0000 0.45198  0.30666  0.56139  Biso   1.000  C
  C4       1.0000 0.42465  0.54412  0.58587  Biso   1.000  C
  C5       1.0000 0.54984  0.38709  0.62317  Biso   1.000  C
  N1       1.0000 0.35089  0.30321  0.54423  Biso   1.000  N
  C6       1.0000 0.48977  0.18002  0.55531  Biso   1.000  C
  C7       1.0000 0.41460  0.66761  0.56787  Biso   1.000  C
  N2       1.0000 0.34939  0.53885  0.61653  Biso   1.000  N
  C8       1.0000 0.60558  0.49813  0.64803  Biso   1.000  C
  H4       1.0000 0.59959  0.31436  0.61859  Biso   1.000  H
  H5       1.0000 0.49354  0.35103  0.63989  Biso   1.000  H
  C9       1.0000 0.32583  0.17668  0.52827  Biso   1.000  C
  H6       1.0000 0.31209  0.36805  0.54439  Biso   1.000  H
  C10      1.0000 0.41355  0.10009  0.53488  Biso   1.000  C
  H7       1.0000 0.55655  0.15054  0.56351  Biso   1.000  H
  C11      1.0000 0.33264  0.73853  0.58762  Biso   1.000  C
  H8       1.0000 0.45474  0.70044  0.54611  Biso   1.000  H
  C12      1.0000 0.29296  0.65860  0.61831  Biso   1.000  C
  H9       1.0000 0.34312  0.47401  0.63399  Biso   1.000  H
  C13      1.0000 0.64300  0.45304  0.69163  Biso   1.000  C
  H10      1.0000 0.66588  0.52902  0.63259  Biso   1.000  H
  H11      1.0000 0.55794  0.57421  0.65080  Biso   1.000  H
  C14      1.0000 0.22030  0.14142  0.50893  Biso   1.000  C
  H12      1.0000 0.42158  0.00993  0.52721  Biso   1.000  H
  H13      1.0000 0.30954  0.82535  0.58079  Biso   1.000  H
  C15      1.0000 0.20619  0.68129  0.64881  Biso   1.000  C
  H14      1.0000 0.70509  0.39722  0.68820  Biso   1.000  H
  H15      1.0000 0.66526  0.53348  0.70669  Biso   1.000  H
  C16      1.0000 0.56629  0.37352  0.72010  Biso   1.000  C
  C17      1.0000 0.53610  0.46621  0.71630  Biso   1.000  C
  C18      1.0000 0.18616  0.24678  0.47568  Biso   1.000  C
  C19      1.0000 0.13727  0.12724  0.54174  Biso   1.000  C
  C20      1.0000 0.23128  0.00314  0.48660  Biso   1.000  C
  C21      1.0000 0.10727  0.60804  0.63399  Biso   1.000  C
  C22      1.0000 0.18400  0.83426  0.65055  Biso   1.000  C
  C23      1.0000 0.24071  0.63489  0.69266  Biso   1.000  C
  C24      1.0000 0.47180  0.46348  0.72740  Biso   1.000  C
  H16      1.0000 0.60093  0.35123  0.74640  Biso   1.000  H
  H17      1.0000 0.54418  0.28994  0.70660  Biso   1.000  H
  H18      1.0000 0.57401  0.29470  0.74811  Biso   1.000  H
  H19      1.0000 0.44659  0.49934  0.70089  Biso   1.000  H
  H20      1.0000 0.49347  0.53956  0.74471  Biso   1.000  H
  C25      1.0000 0.51817  0.32398  0.72909  Biso   1.000  C
  H21      1.0000 0.47937  0.49944  0.69849  Biso   1.000  H
  H22      1.0000 0.54441  0.52538  0.74031  Biso   1.000  H
  H23      1.0000 0.23853  0.25185  0.45451  Biso   1.000  H
  H24      1.0000 0.11995  0.22034  0.46321  Biso   1.000  H
  H25      1.0000 0.17895  0.33401  0.48859  Biso   1.000  H
  C26      1.0000 0.08399  0.01661  0.55440  Biso   1.000  C
  N3       1.0000 0.09908  0.23351  0.56476  Biso   1.000  N
  H26      1.0000 0.28486  0.00932  0.46601  Biso   1.000  H
  H27      1.0000 0.25025  0.93476  0.50671  Biso   1.000  H
  H28      1.0000 0.16550  0.97964  0.47331  Biso   1.000  H
  N4       1.0000 0.09709  0.46966  0.63661  Biso   1.000  N
  C27      1.0000 0.01796  0.65394  0.61487  Biso   1.000  C
  H29      1.0000 0.16238  0.86567  0.62339  Biso   1.000  H
  H30      1.0000 0.12910  0.85148  0.67002  Biso   1.000  H
  H31      1.0000 0.24680  0.88127  0.65941  Biso   1.000  H
  H32      1.0000 0.30613  0.67795  0.70039  Biso   1.000  H
  H33      1.0000 0.18779  0.65931  0.71231  Biso   1.000  H
  H34      1.0000 0.25000  0.53845  0.69281  Biso   1.000  H
  O1       1.0000 0.38817  0.39398  0.74699  Biso   1.000  O
  H35      1.0000 0.51749  0.26553  0.70492  Biso   1.000  H
  O2       1.0000 0.41518  0.31800  0.75011  Biso   1.000  O
  C28      1.0000 0.01460  0.05633  0.58596  Biso   1.000  C
  H36      1.0000 0.09181  0.92919  0.54411  Biso   1.000  H
  C29      1.0000 0.02428  0.19167  0.59205  Biso   1.000  C
  H37      1.0000 0.11410  0.31304  0.56129  Biso   1.000  H
  C30      1.0000 0.00209  0.42812  0.61996  Biso   1.000  C
  H38      1.0000 0.14408  0.41799  0.64881  Biso   1.000  H
  C31      1.0000 0.95150  0.54209  0.60667  Biso   1.000  C
  H39      1.0000 0.00314  0.74369  0.60829  Biso   1.000  H
  C32      1.0000 0.39417  0.37605  0.79043  Biso   1.000  C
  H40      1.0000 0.96967  0.99909  0.60019  Biso   1.000  H
  C33      1.0000 0.96741  0.28153  0.62230  Biso   1.000  C
  H41      1.0000 0.88466  0.54574  0.59429  Biso   1.000  H
  C34      1.0000 0.29907  0.33867  0.80718  Biso   1.000  C
  C35      1.0000 0.47403  0.41941  0.81570  Biso   1.000  C
  C36      1.0000 0.98952  0.22622  0.66671  Biso   1.000  C
  C37      1.0000 0.84809  0.27221  0.61201  Biso   1.000  C
  O3       1.0000 0.22512  0.29450  0.77896  Biso   1.000  O
  C38      1.0000 0.28803  0.34525  0.84997  Biso   1.000  C
  C39      1.0000 0.46320  0.42711  0.85789  Biso   1.000  C
  H42      1.0000 0.53759  0.44453  0.80409  Biso   1.000  H
  H43      1.0000 0.06511  0.22561  0.67170  Biso   1.000  H
  H44      1.0000 0.96541  0.13302  0.66780  Biso   1.000  H
  C40      1.0000 0.93803  0.30503  0.70208  Biso   1.000  C
  H45      1.0000 0.82560  0.17962  0.61391  Biso   1.000  H
  H46      1.0000 0.80989  0.32631  0.63150  Biso   1.000  H
  H47      1.0000 0.83455  0.30503  0.58419  Biso   1.000  H
  C41      1.0000 0.13023  0.24273  0.79689  Biso   1.000  C
  H48      1.0000 0.22503  0.31952  0.86189  Biso   1.000  H
  C42      1.0000 0.37158  0.39054  0.87514  Biso   1.000  C
  H49      1.0000 0.51885  0.45750  0.87470  Biso   1.000  H
  C43      1.0000 0.01378  0.33208  0.73932  Biso   1.000  C
  H50      1.0000 0.91229  0.39094  0.69129  Biso   1.000  H
  H51      1.0000 0.87791  0.25408  0.71171  Biso   1.000  H
  C44      1.0000 0.05651  0.20829  0.76068  Biso   1.000  C
  H52      1.0000 0.14541  0.16260  0.81339  Biso   1.000  H
  H53      1.0000 0.09871  0.31040  0.81470  Biso   1.000  H
  H54      1.0000 0.36423  0.39550  0.90390  Biso   1.000  H
  H55      1.0000 0.07248  0.38537  0.72962  Biso   1.000  H
  H56      1.0000 0.97711  0.38628  0.75971  Biso   1.000  H
  H57      1.0000 0.09391  0.15378  0.74069  Biso   1.000  H
  H58      1.0000 0.99830  0.15470  0.77082  Biso   1.000  H
  C45      1.0000 0.40762  0.52041  0.44830  Biso   1.000  C
  C46      1.0000 0.49723  0.56945  0.41945  Biso   1.000  C
  H59      1.0000 0.37738  0.43866  0.43720  Biso   1.000  H
  H60      1.0000 0.35432  0.58910  0.44970  Biso   1.000  H
  H61      1.0000 0.43603  0.50339  0.47581  Biso   1.000  H
  C47      1.0000 0.45026  0.61291  0.37685  Biso   1.000  C
  C48      1.0000 0.54812  0.69345  0.43863  Biso   1.000  C
  C49      1.0000 0.57544  0.45588  0.41412  Biso   1.000  C
  C50      1.0000 0.39451  0.50187  0.35196  Biso   1.000  C
  H62      1.0000 0.40051  0.68575  0.38140  Biso   1.000  H
  H63      1.0000 0.50656  0.64897  0.36010  Biso   1.000  H
  C51      1.0000 0.51033  0.81998  0.44468  Biso   1.000  C
  N5       1.0000 0.64929  0.69679  0.45578  Biso   1.000  N
  C52      1.0000 0.58558  0.33239  0.43214  Biso   1.000  C
  N6       1.0000 0.65071  0.46125  0.38349  Biso   1.000  N
  C53      1.0000 0.35710  0.54706  0.30836  Biso   1.000  C
  H64      1.0000 0.33421  0.47098  0.36740  Biso   1.000  H
  H65      1.0000 0.44216  0.42579  0.34921  Biso   1.000  H
  H66      1.0000 0.44355  0.84956  0.43651  Biso   1.000  H
  C54      1.0000 0.58655  0.89991  0.46511  Biso   1.000  C
  C55      1.0000 0.67427  0.82332  0.47175  Biso   1.000  C
  H67      1.0000 0.68801  0.63205  0.45560  Biso   1.000  H
  C56      1.0000 0.66746  0.26147  0.41237  Biso   1.000  C
  H68      1.0000 0.54536  0.29956  0.45391  Biso   1.000  H
  C57      1.0000 0.70714  0.34140  0.38168  Biso   1.000  C
  H69      1.0000 0.65706  0.52599  0.36599  Biso   1.000  H
  H70      1.0000 0.29500  0.60278  0.31179  Biso   1.000  H
  H71      1.0000 0.33484  0.46652  0.29329  Biso   1.000  H
  C58      1.0000 0.43381  0.62648  0.27991  Biso   1.000  C
  C59      1.0000 0.46400  0.53379  0.28369  Biso   1.000  C
  H72      1.0000 0.57852  0.99017  0.47281  Biso   1.000  H
  C60      1.0000 0.77988  0.85858  0.49109  Biso   1.000  C
  H73      1.0000 0.69056  0.17475  0.41920  Biso   1.000  H
  C61      1.0000 0.79391  0.31871  0.35118  Biso   1.000  C
  C62      1.0000 0.52830  0.53652  0.27258  Biso   1.000  C
  H74      1.0000 0.39925  0.64877  0.25359  Biso   1.000  H
  H75      1.0000 0.45591  0.71016  0.29339  Biso   1.000  H
  H76      1.0000 0.42616  0.70530  0.25191  Biso   1.000  H
  H77      1.0000 0.55351  0.50076  0.29909  Biso   1.000  H
  H78      1.0000 0.50663  0.46054  0.25531  Biso   1.000  H
  C63      1.0000 0.48192  0.67602  0.27090  Biso   1.000  C
  H79      1.0000 0.52072  0.50066  0.30150  Biso   1.000  H
  H80      1.0000 0.45569  0.47462  0.25970  Biso   1.000  H
  C64      1.0000 0.86283  0.87286  0.45825  Biso   1.000  C
  C65      1.0000 0.76882  0.99696  0.51339  Biso   1.000  C
  C66      1.0000 0.81394  0.75322  0.52434  Biso   1.000  C
  C67      1.0000 0.89283  0.39206  0.36602  Biso   1.000  C
  C68      1.0000 0.81610  0.16584  0.34946  Biso   1.000  C
  C69      1.0000 0.75939  0.36511  0.30733  Biso   1.000  C
  O4       1.0000 0.61192  0.60602  0.25300  Biso   1.000  O
  H81      1.0000 0.48261  0.73447  0.29510  Biso   1.000  H
  O5       1.0000 0.58492  0.68200  0.24991  Biso   1.000  O
  C70      1.0000 0.91611  0.98339  0.44562  Biso   1.000  C
  N7       1.0000 0.90101  0.76649  0.43523  Biso   1.000  N
  H82      1.0000 0.71524  0.99068  0.53400  Biso   1.000  H
  H83      1.0000 0.74984  0.06524  0.49330  Biso   1.000  H
  H84      1.0000 0.83468  0.02046  0.52671  Biso   1.000  H
  H85      1.0000 0.76157  0.74825  0.54551  Biso   1.000  H
  H86      1.0000 0.88015  0.77976  0.53681  Biso   1.000  H
  H87      1.0000 0.82115  0.66599  0.51139  Biso   1.000  H
  C71      1.0000 0.98213  0.34606  0.38514  Biso   1.000  C
  N8       1.0000 0.90301  0.53044  0.36337  Biso   1.000  N
  H88      1.0000 0.83772  0.13443  0.37660  Biso   1.000  H
  H89      1.0000 0.87100  0.14852  0.33000  Biso   1.000  H
  H90      1.0000 0.75330  0.11883  0.34061  Biso   1.000  H
  H91      1.0000 0.69405  0.32216  0.29959  Biso   1.000  H
  H92      1.0000 0.81231  0.34069  0.28771  Biso   1.000  H
  H93      1.0000 0.75009  0.46166  0.30720  Biso   1.000  H
  C72      1.0000 0.60593  0.62405  0.20958  Biso   1.000  C
  C73      1.0000 0.98558  0.94377  0.41402  Biso   1.000  C
  H94      1.0000 0.90837  0.07081  0.45591  Biso   1.000  H
  C74      1.0000 0.97582  0.80833  0.40797  Biso   1.000  C
  H95      1.0000 0.88608  0.68706  0.43869  Biso   1.000  H
  H96      1.0000 0.99695  0.25631  0.39169  Biso   1.000  H
  C75      1.0000 0.04860  0.45791  0.39335  Biso   1.000  C
  C76      1.0000 0.99801  0.57188  0.38003  Biso   1.000  C
  H97      1.0000 0.85602  0.58201  0.35121  Biso   1.000  H
  C77      1.0000 0.70103  0.66133  0.19281  Biso   1.000  C
  C78      1.0000 0.52615  0.58059  0.18429  Biso   1.000  C
  H98      1.0000 0.03043  0.00091  0.39980  Biso   1.000  H
  C79      1.0000 0.03276  0.71857  0.37769  Biso   1.000  C
  H99      1.0000 0.11544  0.45436  0.40570  Biso   1.000  H
  C80      1.0000 0.71215  0.65485  0.15002  Biso   1.000  C
  O6       1.0000 0.77505  0.70550  0.22106  Biso   1.000  O
  C81      1.0000 0.53690  0.57289  0.14209  Biso   1.000  C
  H100     1.0000 0.46250  0.55557  0.19589  Biso   1.000  H
  C82      1.0000 0.01066  0.77378  0.33331  Biso   1.000  C
  C83      1.0000 0.15200  0.72779  0.38798  Biso   1.000  C
  H101     1.0000 0.77514  0.68048  0.13810  Biso   1.000  H
  C84      1.0000 0.62852  0.60956  0.12485  Biso   1.000  C
  C85      1.0000 0.86994  0.75737  0.20310  Biso   1.000  C
  H102     1.0000 0.48133  0.54250  0.12531  Biso   1.000  H
  C86      1.0000 0.06215  0.69507  0.29794  Biso   1.000  C
  H103     1.0000 0.93507  0.77439  0.32829  Biso   1.000  H
  H104     1.0000 0.03469  0.86698  0.33219  Biso   1.000  H
  H105     1.0000 0.17450  0.82038  0.38611  Biso   1.000  H
  H106     1.0000 0.19021  0.67369  0.36849  Biso   1.000  H
  H107     1.0000 0.16555  0.69507  0.41580  Biso   1.000  H
  H108     1.0000 0.63586  0.60450  0.09609  Biso   1.000  H
  C87      1.0000 0.94359  0.79171  0.23931  Biso   1.000  C
  H109     1.0000 0.85469  0.83740  0.18660  Biso   1.000  H
  H110     1.0000 0.90139  0.68960  0.18529  Biso   1.000  H
  C88      1.0000 0.98632  0.66792  0.26067  Biso   1.000  C
  H111     1.0000 0.08781  0.60916  0.30870  Biso   1.000  H
  H112     1.0000 0.12219  0.74592  0.28830  Biso   1.000  H
  H113     1.0000 0.90619  0.84622  0.25930  Biso   1.000  H
  H114     1.0000 0.00180  0.84530  0.22920  Biso   1.000  H
  H115     1.0000 0.92762  0.61463  0.27040  Biso   1.000  H
  H116     1.0000 0.02299  0.61372  0.24030  Biso   1.000  H
  C89      1.0000 0.62857  0.89049  0.62486  Biso   1.000  C
  C90      1.0000 0.71220  0.84520  0.65002  Biso   1.000  C
  H117     1.0000 0.63599  0.89555  0.59610  Biso   1.000  H
  C91      1.0000 0.53695  0.92716  0.64210  Biso   1.000  C
  C92      1.0000 0.70108  0.83872  0.69281  Biso   1.000  C
  H118     1.0000 0.77519  0.81957  0.63811  Biso   1.000  H
  H119     1.0000 0.48138  0.95755  0.62529  Biso   1.000  H
  C93      1.0000 0.52620  0.91946  0.68430  Biso   1.000  C
  C94      1.0000 0.60597  0.87600  0.70959  Biso   1.000  C
  O7       1.0000 0.77510  0.79455  0.72104  Biso   1.000  O
  H120     1.0000 0.46255  0.94448  0.69590  Biso   1.000  H
  O8       1.0000 0.61197  0.89403  0.75301  Biso   1.000  O
  O9       1.0000 0.58497  0.81805  0.74989  Biso   1.000  O
  C95      1.0000 0.86999  0.74268  0.70311  Biso   1.000  C
  C96      1.0000 0.52843  0.96353  0.77259  Biso   1.000  C
  C97      1.0000 0.48197  0.82403  0.77091  Biso   1.000  C
  C98      1.0000 0.94371  0.70834  0.73932  Biso   1.000  C
  H121     1.0000 0.85474  0.66265  0.68661  Biso   1.000  H
  H122     1.0000 0.90151  0.81045  0.68530  Biso   1.000  H
  H123     1.0000 0.55363  0.99929  0.79910  Biso   1.000  H
  C99      1.0000 0.43386  0.87357  0.77989  Biso   1.000  C
  H124     1.0000 0.52077  0.99939  0.80151  Biso   1.000  H
  H125     1.0000 0.50668  0.03951  0.75532  Biso   1.000  H
  H126     1.0000 0.45582  0.02543  0.75971  Biso   1.000  H
  H127     1.0000 0.39930  0.85118  0.75360  Biso   1.000  H
  H128     1.0000 0.45596  0.78989  0.79340  Biso   1.000  H
  C100     1.0000 0.46413  0.96626  0.78370  Biso   1.000  C
  H129     1.0000 0.48266  0.76547  0.79511  Biso   1.000  H
  H130     1.0000 0.42621  0.79475  0.75192  Biso   1.000  H
  C101     1.0000 0.98637  0.83213  0.76068  Biso   1.000  C
  H131     1.0000 0.90632  0.65383  0.75931  Biso   1.000  H
  H132     1.0000 0.00184  0.65475  0.72921  Biso   1.000  H
  C102     1.0000 0.35722  0.95299  0.80837  Biso   1.000  C
  H133     1.0000 0.92767  0.88542  0.77041  Biso   1.000  H
  C103     1.0000 0.06219  0.80498  0.79792  Biso   1.000  C
  H134     1.0000 0.02312  0.88633  0.74031  Biso   1.000  H
  H135     1.0000 0.29513  0.89727  0.81180  Biso   1.000  H
  C104     1.0000 0.39464  0.99818  0.85197  Biso   1.000  C
  H136     1.0000 0.33488  0.03353  0.79330  Biso   1.000  H
  C105     1.0000 0.01071  0.72627  0.83329  Biso   1.000  C
  H137     1.0000 0.08786  0.89089  0.80871  Biso   1.000  H
  H138     1.0000 0.12232  0.75413  0.78831  Biso   1.000  H
  C106     1.0000 0.45031  0.88714  0.87686  Biso   1.000  C
  H139     1.0000 0.33434  0.02908  0.86741  Biso   1.000  H
  H140     1.0000 0.44220  0.07426  0.84919  Biso   1.000  H
  H141     1.0000 0.93511  0.72566  0.82830  Biso   1.000  H
  C107     1.0000 0.03281  0.78148  0.87770  Biso   1.000  C
  H142     1.0000 0.03482  0.63307  0.83219  Biso   1.000  H
  C108     1.0000 0.49728  0.93060  0.91946  Biso   1.000  C
  H143     1.0000 0.40063  0.81430  0.88141  Biso   1.000  H
  H144     1.0000 0.50661  0.85098  0.86011  Biso   1.000  H
  C109     1.0000 0.97587  0.69172  0.90798  Biso   1.000  C
  C110     1.0000 0.99814  0.92817  0.88004  Biso   1.000  C
  C111     1.0000 0.15213  0.77226  0.88799  Biso   1.000  C
  C112     1.0000 0.54825  0.80661  0.93861  Biso   1.000  C
  C113     1.0000 0.40775  0.97964  0.94831  Biso   1.000  C
  C114     1.0000 0.57549  0.04417  0.91413  Biso   1.000  C
  C115     1.0000 0.98563  0.55628  0.91403  Biso   1.000  C
  N9       1.0000 0.90114  0.73356  0.93524  Biso   1.000  N
  N10      1.0000 0.90314  0.96961  0.86338  Biso   1.000  N
  C116     1.0000 0.04873  0.04214  0.89335  Biso   1.000  C
  H145     1.0000 0.17463  0.67967  0.88609  Biso   1.000  H
  H146     1.0000 0.19026  0.82636  0.86850  Biso   1.000  H
  H147     1.0000 0.16560  0.80498  0.91581  Biso   1.000  H
  C117     1.0000 0.51038  0.67997  0.94469  Biso   1.000  C
  N11      1.0000 0.64934  0.80326  0.95576  Biso   1.000  N
  H148     1.0000 0.35445  0.91095  0.94971  Biso   1.000  H
  H149     1.0000 0.43616  0.99666  0.97582  Biso   1.000  H
  H150     1.0000 0.37743  0.06139  0.93720  Biso   1.000  H
  C118     1.0000 0.58562  0.16766  0.93215  Biso   1.000  C
  N12      1.0000 0.65084  0.03880  0.88347  Biso   1.000  N
  C119     1.0000 0.91624  0.51666  0.94563  Biso   1.000  C
  H151     1.0000 0.03048  0.49914  0.89981  Biso   1.000  H
  C120     1.0000 0.86288  0.62719  0.95826  Biso   1.000  C
  H152     1.0000 0.88612  0.81299  0.93870  Biso   1.000  H
  H153     1.0000 0.85607  0.91804  0.85119  Biso   1.000  H
  C121     1.0000 0.89288  0.10799  0.86600  Biso   1.000  C
  C122     1.0000 0.98218  0.15389  0.88512  Biso   1.000  C
  H154     1.0000 0.11549  0.04569  0.90570  Biso   1.000  H
  H155     1.0000 0.44360  0.65049  0.93649  Biso   1.000  H
  C123     1.0000 0.58660  0.60014  0.96512  Biso   1.000  C
  C124     1.0000 0.67432  0.67673  0.97173  Biso   1.000  C
  H156     1.0000 0.68814  0.86800  0.95561  Biso   1.000  H
  C125     1.0000 0.66751  0.23858  0.91238  Biso   1.000  C
  H157     1.0000 0.54541  0.20049  0.95389  Biso   1.000  H
  H158     1.0000 0.65711  0.97407  0.86600  Biso   1.000  H
  C126     1.0000 0.70719  0.15865  0.88169  Biso   1.000  C
  H159     1.0000 0.90842  0.42924  0.95589  Biso   1.000  H
  C127     1.0000 0.77993  0.64137  0.99107  Biso   1.000  C
  C128     1.0000 0.79403  0.18134  0.85119  Biso   1.000  C
  H160     1.0000 0.99700  0.24374  0.89170  Biso   1.000  H
  H161     1.0000 0.57865  0.50988  0.97279  Biso   1.000  H
  H162     1.0000 0.69061  0.32530  0.91921  Biso   1.000  H
  C129     1.0000 0.76887  0.50309  0.01340  Biso   1.000  C
  C130     1.0000 0.81391  0.74683  0.02434  Biso   1.000  C
  C131     1.0000 0.81622  0.33421  0.84944  Biso   1.000  C
  C132     1.0000 0.75952  0.13494  0.80734  Biso   1.000  C
  H163     1.0000 0.74989  0.43481  0.99331  Biso   1.000  H
  H164     1.0000 0.83465  0.47959  0.02671  Biso   1.000  H
  H165     1.0000 0.71521  0.50927  0.03401  Biso   1.000  H
  H166     1.0000 0.76153  0.75180  0.04549  Biso   1.000  H
  H167     1.0000 0.88012  0.72029  0.03679  Biso   1.000  H
  H168     1.0000 0.82112  0.83406  0.01140  Biso   1.000  H
  H169     1.0000 0.83776  0.36562  0.87661  Biso   1.000  H
  H170     1.0000 0.87112  0.35153  0.83001  Biso   1.000  H
  H171     1.0000 0.75343  0.38122  0.84062  Biso   1.000  H
  H172     1.0000 0.69410  0.17789  0.79960  Biso   1.000  H
  H173     1.0000 0.81236  0.15936  0.78769  Biso   1.000  H
  H174     1.0000 0.75022  0.03840  0.80721  Biso   1.000  H
  C133     1.0000 0.37153  0.10951  0.37516  Biso   1.000  C
  C134     1.0000 0.28798  0.15480  0.34999  Biso   1.000  C
  H175     1.0000 0.36418  0.10455  0.40389  Biso   1.000  H
  C135     1.0000 0.46315  0.07294  0.35792  Biso   1.000  C
  C136     1.0000 0.29902  0.16128  0.30720  Biso   1.000  C
  H176     1.0000 0.22498  0.18053  0.36191  Biso   1.000  H
  C137     1.0000 0.47390  0.08064  0.31572  Biso   1.000  C
  H177     1.0000 0.51872  0.04255  0.37469  Biso   1.000  H
  O10      1.0000 0.22499  0.20555  0.27895  Biso   1.000  O
  C138     1.0000 0.39412  0.12400  0.29042  Biso   1.000  C
  H178     1.0000 0.53754  0.05552  0.30408  Biso   1.000  H
  C139     1.0000 0.13011  0.25732  0.29691  Biso   1.000  C
  O11      1.0000 0.38813  0.10597  0.24701  Biso   1.000  O
  O12      1.0000 0.41513  0.18205  0.25010  Biso   1.000  O
  C140     1.0000 0.05646  0.29166  0.26070  Biso   1.000  C
  H179     1.0000 0.14536  0.33745  0.31341  Biso   1.000  H
  H180     1.0000 0.09866  0.18965  0.31469  Biso   1.000  H
  C141     1.0000 0.47175  0.03647  0.22739  Biso   1.000  C
  C142     1.0000 0.51813  0.17597  0.22911  Biso   1.000  C
  C143     1.0000 0.01373  0.16787  0.23931  Biso   1.000  C
  H181     1.0000 0.09386  0.34617  0.24071  Biso   1.000  H
  H182     1.0000 0.99825  0.34536  0.27081  Biso   1.000  H
  H183     1.0000 0.44654  0.00071  0.20091  Biso   1.000  H
  C144     1.0000 0.56624  0.12653  0.22009  Biso   1.000  C
  H184     1.0000 0.47933  0.00061  0.19851  Biso   1.000  H
  H185     1.0000 0.49342  0.96049  0.24470  Biso   1.000  H
  H186     1.0000 0.54436  0.97457  0.24030  Biso   1.000  H
  H187     1.0000 0.60080  0.14882  0.24639  Biso   1.000  H
  H188     1.0000 0.54413  0.21011  0.20659  Biso   1.000  H
  C145     1.0000 0.53605  0.03384  0.21629  Biso   1.000  C
  H189     1.0000 0.51744  0.23453  0.20491  Biso   1.000  H
  H190     1.0000 0.57389  0.20535  0.24810  Biso   1.000  H
  H191     1.0000 0.07243  0.11458  0.22961  Biso   1.000  H
  C146     1.0000 0.93790  0.19502  0.20207  Biso   1.000  C
  H192     1.0000 0.97706  0.11367  0.25970  Biso   1.000  H
  C147     1.0000 0.64295  0.04701  0.19162  Biso   1.000  C
  C148     1.0000 0.98939  0.27383  0.16670  Biso   1.000  C
  H193     1.0000 0.91224  0.10911  0.19131  Biso   1.000  H
  H194     1.0000 0.87786  0.24587  0.21171  Biso   1.000  H
  H195     1.0000 0.70504  0.10283  0.18819  Biso   1.000  H
  C149     1.0000 0.60553  0.00192  0.14802  Biso   1.000  C
  H196     1.0000 0.66521  0.96647  0.20672  Biso   1.000  H
  H197     1.0000 0.06498  0.27444  0.17169  Biso   1.000  H
  C150     1.0000 0.96728  0.21852  0.12229  Biso   1.000  C
  H198     1.0000 0.96536  0.36703  0.16779  Biso   1.000  H
  C151     1.0000 0.54979  0.11286  0.12316  Biso   1.000  C
  H199     1.0000 0.66583  0.97103  0.13261  Biso   1.000  H
  H200     1.0000 0.55789  0.92584  0.15079  Biso   1.000  H
  C152     1.0000 0.02423  0.30828  0.09204  Biso   1.000  C
  C153     1.0000 0.00204  0.07193  0.11998  Biso   1.000  C
  C154     1.0000 0.84805  0.22784  0.11203  Biso   1.000  C
  C155     1.0000 0.50282  0.06940  0.08053  Biso   1.000  C
  H201     1.0000 0.59954  0.18570  0.11861  Biso   1.000  H
  H202     1.0000 0.49349  0.14902  0.13991  Biso   1.000  H
  C156     1.0000 0.01455  0.44372  0.08595  Biso   1.000  C
  N13      1.0000 0.09903  0.26654  0.06475  Biso   1.000  N
  N14      1.0000 0.09704  0.03039  0.13664  Biso   1.000  N
  C157     1.0000 0.95145  0.95786  0.10666  Biso   1.000  C
  H203     1.0000 0.82555  0.32043  0.11390  Biso   1.000  H
  H204     1.0000 0.80984  0.17374  0.13149  Biso   1.000  H
  H205     1.0000 0.83450  0.19502  0.08421  Biso   1.000  H
  C158     1.0000 0.45193  0.19339  0.06138  Biso   1.000  C
  C159     1.0000 0.59242  0.02036  0.05168  Biso   1.000  C
  C160     1.0000 0.42460  0.95593  0.08586  Biso   1.000  C
  C161     1.0000 0.08394  0.48344  0.05439  Biso   1.000  C
  H206     1.0000 0.96962  0.50096  0.10021  Biso   1.000  H
  C162     1.0000 0.13722  0.37281  0.04173  Biso   1.000  C
  H207     1.0000 0.11397  0.18701  0.06128  Biso   1.000  H
  H208     1.0000 0.14403  0.08196  0.14880  Biso   1.000  H
  C163     1.0000 0.10722  0.89201  0.13398  Biso   1.000  C
  H209     1.0000 0.88461  0.95431  0.09431  Biso   1.000  H
  C164     1.0000 0.01792  0.84611  0.11487  Biso   1.000  C
  C165     1.0000 0.48972  0.32003  0.05530  Biso   1.000  C
  N15      1.0000 0.35084  0.19684  0.04422  Biso   1.000  N
  H210     1.0000 0.64573  0.08915  0.05031  Biso   1.000  H
  H211     1.0000 0.56402  0.00344  0.02420  Biso   1.000  H
  H212     1.0000 0.62267  0.93861  0.06281  Biso   1.000  H
  C166     1.0000 0.41447  0.83244  0.06787  Biso   1.000  C
  N16      1.0000 0.34934  0.96120  0.11652  Biso   1.000  N
  H213     1.0000 0.09168  0.57086  0.04410  Biso   1.000  H
  C167     1.0000 0.22017  0.35863  0.00892  Biso   1.000  C
  C168     1.0000 0.20614  0.81866  0.14883  Biso   1.000  C
  H214     1.0000 0.00309  0.75626  0.10829  Biso   1.000  H
  C169     1.0000 0.41350  0.39996  0.03490  Biso   1.000  C
  H215     1.0000 0.55650  0.34951  0.06350  Biso   1.000  H
  C170     1.0000 0.32578  0.32327  0.02826  Biso   1.000  C
  H216     1.0000 0.31204  0.13200  0.04441  Biso   1.000  H
  C171     1.0000 0.33259  0.76152  0.08761  Biso   1.000  C
  H217     1.0000 0.45469  0.79962  0.04610  Biso   1.000  H
  C172     1.0000 0.29291  0.84135  0.11830  Biso   1.000  C
  H218     1.0000 0.34299  0.02604  0.13402  Biso   1.000  H
  C173     1.0000 0.23131  0.49691  0.98659  Biso   1.000  C
  C174     1.0000 0.18619  0.25317  0.97567  Biso   1.000  C
  C175     1.0000 0.18395  0.66579  0.15055  Biso   1.000  C
  C176     1.0000 0.24066  0.86506  0.19268  Biso   1.000  C
  H219     1.0000 0.42153  0.49012  0.02720  Biso   1.000  H
  H220     1.0000 0.30949  0.67470  0.08081  Biso   1.000  H
  H221     1.0000 0.25020  0.56519  0.00671  Biso   1.000  H
  H222     1.0000 0.16545  0.52041  0.97330  Biso   1.000  H
  H223     1.0000 0.28489  0.49073  0.96600  Biso   1.000  H
  H224     1.0000 0.23856  0.24820  0.95450  Biso   1.000  H
  H225     1.0000 0.11998  0.27971  0.96320  Biso   1.000  H
  H226     1.0000 0.17898  0.16604  0.98859  Biso   1.000  H
  H227     1.0000 0.16233  0.63438  0.12341  Biso   1.000  H
  H228     1.0000 0.12905  0.64847  0.17001  Biso   1.000  H
  H229     1.0000 0.24675  0.61878  0.15940  Biso   1.000  H
  H230     1.0000 0.30600  0.82211  0.20042  Biso   1.000  H
  H231     1.0000 0.18774  0.84075  0.21230  Biso   1.000  H
  H232     1.0000 0.24995  0.96160  0.19281  Biso   1.000  H
