data_image0
_cell_length_a       12.585
_cell_length_b       22.902
_cell_length_c       24.272
_cell_angle_alpha    90
_cell_angle_beta     102.98
_cell_angle_gamma    90

_symmetry_space_group_name_H-M    "P 1"
_symmetry_int_tables_number       1

loop_
  _symmetry_equiv_pos_as_xyz
  'x, y, z'

loop_
  _atom_site_label
  _atom_site_occupancy
  _atom_site_fract_x
  _atom_site_fract_y
  _atom_site_fract_z
  _atom_site_thermal_displace_type
  _atom_site_B_iso_or_equiv
  _atom_site_type_symbol
  O1       1.0000 0.65661  0.63235  0.61437  Biso   1.000  O
  C1       1.0000 0.58414  0.65331  0.63399  Biso   1.000  C
  N1       1.0000 0.51967  0.69880  0.61192  Biso   1.000  N
  N2       1.0000 0.55452  0.63580  0.68155  Biso   1.000  N
  C2       1.0000 0.43807  0.71347  0.64439  Biso   1.000  C
  C3       1.0000 0.51738  0.72160  0.55509  Biso   1.000  C
  C4       1.0000 0.46403  0.66859  0.69369  Biso   1.000  C
  C5       1.0000 0.59281  0.58117  0.70959  Biso   1.000  C
  N3       1.0000 0.45264  0.76893  0.67217  Biso   1.000  N
  H1       1.0000 0.36363  0.70880  0.62169  Biso   1.000  H
  N4       1.0000 0.57919  0.77417  0.55488  Biso   1.000  N
  H2       1.0000 0.44217  0.72898  0.53611  Biso   1.000  H
  H3       1.0000 0.54554  0.69190  0.53370  Biso   1.000  H
  N5       1.0000 0.49201  0.70601  0.74324  Biso   1.000  N
  H4       1.0000 0.40132  0.64348  0.69458  Biso   1.000  H
  N6       1.0000 0.67846  0.58903  0.75965  Biso   1.000  N
  H5       1.0000 0.61956  0.55641  0.68329  Biso   1.000  H
  H6       1.0000 0.53204  0.56139  0.71990  Biso   1.000  H
  C6       1.0000 0.48231  0.76378  0.73039  Biso   1.000  C
  C7       1.0000 0.44127  0.82447  0.64409  Biso   1.000  C
  C8       1.0000 0.54283  0.83167  0.56596  Biso   1.000  C
  C9       1.0000 0.68120  0.77439  0.54402  Biso   1.000  C
  C10      1.0000 0.51660  0.68601  0.80019  Biso   1.000  C
  C11      1.0000 0.65667  0.60300  0.81389  Biso   1.000  C
  C12      1.0000 0.78343  0.56960  0.76387  Biso   1.000  C
  O2       1.0000 0.49604  0.80456  0.76354  Biso   1.000  O
  N7       1.0000 0.53504  0.84163  0.62355  Biso   1.000  N
  H7       1.0000 0.42712  0.85399  0.67031  Biso   1.000  H
  H8       1.0000 0.37844  0.82307  0.61260  Biso   1.000  H
  H9       1.0000 0.47477  0.84198  0.53928  Biso   1.000  H
  C13      1.0000 0.63751  0.87141  0.55818  Biso   1.000  C
  O3       1.0000 0.73215  0.73199  0.53434  Biso   1.000  O
  N8       1.0000 0.71426  0.83132  0.54313  Biso   1.000  N
  N9       1.0000 0.62702  0.66330  0.81939  Biso   1.000  N
  H10      1.0000 0.50655  0.71797  0.82467  Biso   1.000  H
  H11      1.0000 0.46525  0.65549  0.80400  Biso   1.000  H
  C14      1.0000 0.76981  0.59838  0.85461  Biso   1.000  C
  H12      1.0000 0.60380  0.57611  0.82429  Biso   1.000  H
  O4       1.0000 0.81990  0.55104  0.72481  Biso   1.000  O
  N10      1.0000 0.83661  0.57397  0.81913  Biso   1.000  N
  C15      1.0000 0.60473  0.88529  0.64870  Biso   1.000  C
  N11      1.0000 0.67271  0.89848  0.61395  Biso   1.000  N
  H13      1.0000 0.61317  0.90058  0.52859  Biso   1.000  H
  C16      1.0000 0.81656  0.84779  0.53091  Biso   1.000  C
  C17      1.0000 0.70769  0.69409  0.85427  Biso   1.000  C
  N12      1.0000 0.79510  0.65789  0.87207  Biso   1.000  N
  H14      1.0000 0.76807  0.57301  0.88691  Biso   1.000  H
  C18      1.0000 0.95186  0.56039  0.83939  Biso   1.000  C
  O5       1.0000 0.60756  0.90743  0.69449  Biso   1.000  O
  C19      1.0000 0.74198  0.94948  0.62380  Biso   1.000  C
  N13      1.0000 0.90283  0.85997  0.58038  Biso   1.000  N
  H15      1.0000 0.84057  0.81661  0.50947  Biso   1.000  H
  H16      1.0000 0.80529  0.88228  0.50711  Biso   1.000  H
  O6       1.0000 0.70420  0.74561  0.86695  Biso   1.000  O
  C20      1.0000 0.87703  0.67090  0.92289  Biso   1.000  C
  H17      1.0000 0.97376  0.53358  0.81309  Biso   1.000  H
  H18      1.0000 0.96174  0.54061  0.87558  Biso   1.000  H
  N14      1.0000 0.02180  0.61056  0.84602  Biso   1.000  N
  N15      1.0000 0.85783  0.93568  0.64122  Biso   1.000  N
  H19      1.0000 0.72961  0.97249  0.58938  Biso   1.000  H
  H20      1.0000 0.72133  0.97319  0.65280  Biso   1.000  H
  C21      1.0000 0.98797  0.82329  0.59919  Biso   1.000  C
  C22      1.0000 0.92487  0.91809  0.60321  Biso   1.000  C
  N16      1.0000 0.98311  0.68352  0.91135  Biso   1.000  N
  H21      1.0000 0.85331  0.70431  0.94170  Biso   1.000  H
  H22      1.0000 0.88374  0.63789  0.94847  Biso   1.000  H
  C23      1.0000 0.08475  0.62348  0.80810  Biso   1.000  C
  C24      1.0000 0.05810  0.64108  0.89900  Biso   1.000  C
  C25      1.0000 0.91456  0.93948  0.69661  Biso   1.000  C
  O7       1.0000 0.99194  0.77207  0.58376  Biso   1.000  O
  N17      1.0000 0.06690  0.85128  0.63648  Biso   1.000  N
  H23      1.0000 0.92424  0.94708  0.57349  Biso   1.000  H
  C26      1.0000 0.03885  0.91210  0.64308  Biso   1.000  C
  C27      1.0000 0.01933  0.73989  0.91021  Biso   1.000  C
  O8       1.0000 0.07725  0.60034  0.76235  Biso   1.000  O
  N18      1.0000 0.15581  0.66719  0.83127  Biso   1.000  N
  H24      1.0000 0.08151  0.61379  0.93050  Biso   1.000  H
  C28      1.0000 0.15401  0.67889  0.88949  Biso   1.000  C
  O9       1.0000 0.87685  0.95433  0.73686  Biso   1.000  O
  N19      1.0000 0.02053  0.92586  0.69800  Biso   1.000  N
  C29      1.0000 0.17663  0.82910  0.65390  Biso   1.000  C
  H25      1.0000 0.09171  0.93870  0.63230  Biso   1.000  H
  O10      1.0000 0.97166  0.78391  0.91976  Biso   1.000  O
  N20      1.0000 0.12106  0.73710  0.89980  Biso   1.000  N
  C30      1.0000 0.24561  0.68518  0.80670  Biso   1.000  C
  H26      1.0000 0.22287  0.66819  0.91528  Biso   1.000  H
  C31      1.0000 0.10609  0.93097  0.74878  Biso   1.000  C
  N21      1.0000 0.20435  0.80748  0.71111  Biso   1.000  N
  H27      1.0000 0.18613  0.79788  0.62849  Biso   1.000  H
  H28      1.0000 0.22715  0.86010  0.65018  Biso   1.000  H
  C32      1.0000 0.18870  0.78888  0.90150  Biso   1.000  C
  N22      1.0000 0.23095  0.74212  0.78057  Biso   1.000  N
  H29      1.0000 0.25464  0.65671  0.77859  Biso   1.000  H
  H30      1.0000 0.31213  0.68549  0.83609  Biso   1.000  H
  N23      1.0000 0.14336  0.87503  0.77427  Biso   1.000  N
  H31      1.0000 0.16755  0.95140  0.73969  Biso   1.000  H
  H32      1.0000 0.07950  0.95450  0.77618  Biso   1.000  H
  C33      1.0000 0.20255  0.74849  0.72290  Biso   1.000  C
  C34      1.0000 0.23234  0.84268  0.76159  Biso   1.000  C
  N24      1.0000 0.18610  0.81386  0.84615  Biso   1.000  N
  H33      1.0000 0.26339  0.77888  0.91930  Biso   1.000  H
  H34      1.0000 0.16454  0.81827  0.92479  Biso   1.000  H
  C35      1.0000 0.25811  0.79648  0.80971  Biso   1.000  C
  C36      1.0000 0.11960  0.85949  0.82400  Biso   1.000  C
  O11      1.0000 0.18290  0.71003  0.68819  Biso   1.000  O
  H35      1.0000 0.29524  0.86778  0.76151  Biso   1.000  H
  H36      1.0000 0.33495  0.79779  0.82970  Biso   1.000  H
  O12      1.0000 0.05067  0.88171  0.84628  Biso   1.000  O
  O13      1.0000 0.34330  0.36765  0.38564  Biso   1.000  O
  C37      1.0000 0.41575  0.34669  0.36598  Biso   1.000  C
  N25      1.0000 0.44536  0.36420  0.31841  Biso   1.000  N
  N26      1.0000 0.48030  0.30120  0.38805  Biso   1.000  N
  C38      1.0000 0.40708  0.41878  0.29038  Biso   1.000  C
  C39      1.0000 0.53586  0.33141  0.30628  Biso   1.000  C
  C40      1.0000 0.56182  0.28648  0.35558  Biso   1.000  C
  C41      1.0000 0.48260  0.27840  0.44491  Biso   1.000  C
  N27      1.0000 0.32145  0.41097  0.24036  Biso   1.000  N
  H37      1.0000 0.38033  0.44359  0.31668  Biso   1.000  H
  H38      1.0000 0.46786  0.43861  0.28011  Biso   1.000  H
  N28      1.0000 0.50787  0.29399  0.25672  Biso   1.000  N
  H39      1.0000 0.59856  0.35648  0.30539  Biso   1.000  H
  N29      1.0000 0.54726  0.23107  0.32784  Biso   1.000  N
  H40      1.0000 0.63626  0.29120  0.37828  Biso   1.000  H
  N30      1.0000 0.42080  0.22583  0.44512  Biso   1.000  N
  H41      1.0000 0.55773  0.27098  0.46390  Biso   1.000  H
  H42      1.0000 0.45437  0.30810  0.46631  Biso   1.000  H
  C42      1.0000 0.34332  0.39700  0.18612  Biso   1.000  C
  C43      1.0000 0.21646  0.43040  0.23609  Biso   1.000  C
  C44      1.0000 0.48330  0.31399  0.19982  Biso   1.000  C
  C45      1.0000 0.51757  0.23618  0.26958  Biso   1.000  C
  C46      1.0000 0.55871  0.17549  0.35591  Biso   1.000  C
  C47      1.0000 0.45708  0.16828  0.43405  Biso   1.000  C
  C48      1.0000 0.31879  0.22561  0.45599  Biso   1.000  C
  N31      1.0000 0.37288  0.33670  0.18062  Biso   1.000  N
  C49      1.0000 0.23009  0.40158  0.14540  Biso   1.000  C
  H43      1.0000 0.39610  0.42389  0.17572  Biso   1.000  H
  N32      1.0000 0.16328  0.42603  0.18083  Biso   1.000  N
  O14      1.0000 0.17998  0.44891  0.27516  Biso   1.000  O
  H44      1.0000 0.49342  0.28198  0.17529  Biso   1.000  H
  H45      1.0000 0.53465  0.34451  0.19601  Biso   1.000  H
  O15      1.0000 0.50387  0.19544  0.23647  Biso   1.000  O
  N33      1.0000 0.46487  0.15837  0.37646  Biso   1.000  N
  H46      1.0000 0.57278  0.14601  0.32970  Biso   1.000  H
  H47      1.0000 0.62146  0.17688  0.38741  Biso   1.000  H
  H48      1.0000 0.52519  0.15798  0.46068  Biso   1.000  H
  C50      1.0000 0.36238  0.12859  0.44178  Biso   1.000  C
  O16      1.0000 0.26776  0.26797  0.46567  Biso   1.000  O
  N34      1.0000 0.28562  0.16863  0.45684  Biso   1.000  N
  C51      1.0000 0.29220  0.30591  0.14570  Biso   1.000  C
  N35      1.0000 0.20479  0.34211  0.12790  Biso   1.000  N
  H49      1.0000 0.23191  0.42699  0.11310  Biso   1.000  H
  C52      1.0000 0.04811  0.43961  0.16058  Biso   1.000  C
  C53      1.0000 0.39517  0.11471  0.35130  Biso   1.000  C
  N36      1.0000 0.32717  0.10152  0.38602  Biso   1.000  N
  H50      1.0000 0.38672  0.09938  0.47138  Biso   1.000  H
  C54      1.0000 0.18335  0.15221  0.46910  Biso   1.000  C
  O17      1.0000 0.29568  0.25439  0.13301  Biso   1.000  O
  C55      1.0000 0.12288  0.32910  0.07712  Biso   1.000  C
  H51      1.0000 0.02621  0.46638  0.18688  Biso   1.000  H
  H52      1.0000 0.03815  0.45939  0.12439  Biso   1.000  H
  N37      1.0000 0.97809  0.38944  0.15394  Biso   1.000  N
  O18      1.0000 0.39242  0.09257  0.30552  Biso   1.000  O
  C56      1.0000 0.25801  0.05052  0.37621  Biso   1.000  C
  N38      1.0000 0.09706  0.14003  0.41959  Biso   1.000  N
  H53      1.0000 0.15940  0.18339  0.49049  Biso   1.000  H
  H54      1.0000 0.19469  0.11772  0.49290  Biso   1.000  H
  N39      1.0000 0.01678  0.31644  0.08862  Biso   1.000  N
  H55      1.0000 0.14659  0.29569  0.05830  Biso   1.000  H
  H56      1.0000 0.11623  0.36211  0.05150  Biso   1.000  H
  C57      1.0000 0.94181  0.35888  0.10101  Biso   1.000  C
  C58      1.0000 0.91516  0.37647  0.19191  Biso   1.000  C
  N40      1.0000 0.14206  0.06432  0.35875  Biso   1.000  N
  H57      1.0000 0.27027  0.02751  0.41058  Biso   1.000  H
  H58      1.0000 0.27858  0.02681  0.34720  Biso   1.000  H
  C59      1.0000 0.07511  0.08191  0.39680  Biso   1.000  C
  C60      1.0000 0.01201  0.17671  0.40081  Biso   1.000  C
  C61      1.0000 0.98058  0.26011  0.08980  Biso   1.000  C
  H59      1.0000 0.91839  0.38621  0.06951  Biso   1.000  H
  C62      1.0000 0.84587  0.32111  0.11048  Biso   1.000  C
  N41      1.0000 0.84409  0.33277  0.16874  Biso   1.000  N
  O19      1.0000 0.92272  0.39966  0.23761  Biso   1.000  O
  C63      1.0000 0.08535  0.06052  0.30340  Biso   1.000  C
  C64      1.0000 0.96104  0.08790  0.35689  Biso   1.000  C
  H60      1.0000 0.07565  0.05288  0.42648  Biso   1.000  H
  N42      1.0000 0.93298  0.14872  0.36348  Biso   1.000  N
  O20      1.0000 0.00797  0.22793  0.41625  Biso   1.000  O
  O21      1.0000 0.02833  0.21609  0.08025  Biso   1.000  O
  N43      1.0000 0.87893  0.26286  0.10020  Biso   1.000  N
  H61      1.0000 0.77701  0.33181  0.08469  Biso   1.000  H
  C65      1.0000 0.75430  0.31478  0.19330  Biso   1.000  C
  N44      1.0000 0.97938  0.07414  0.30201  Biso   1.000  N
  O22      1.0000 0.12312  0.04563  0.26311  Biso   1.000  O
  H62      1.0000 0.90820  0.06130  0.36771  Biso   1.000  H
  C66      1.0000 0.82327  0.17090  0.34610  Biso   1.000  C
  C67      1.0000 0.81121  0.21112  0.09851  Biso   1.000  C
  N45      1.0000 0.76902  0.25788  0.21939  Biso   1.000  N
  H63      1.0000 0.74524  0.34329  0.22138  Biso   1.000  H
  H64      1.0000 0.68776  0.31451  0.16388  Biso   1.000  H
  C68      1.0000 0.89379  0.06899  0.25119  Biso   1.000  C
  N46      1.0000 0.79555  0.19252  0.28890  Biso   1.000  N
  H65      1.0000 0.81378  0.20208  0.37151  Biso   1.000  H
  H66      1.0000 0.77274  0.13990  0.34978  Biso   1.000  H
  N47      1.0000 0.81381  0.18614  0.15386  Biso   1.000  N
  H67      1.0000 0.73651  0.22112  0.08071  Biso   1.000  H
  H68      1.0000 0.83544  0.18169  0.07522  Biso   1.000  H
  C69      1.0000 0.74179  0.20348  0.19030  Biso   1.000  C
  C70      1.0000 0.79735  0.25151  0.27710  Biso   1.000  C
  N48      1.0000 0.85661  0.12497  0.22569  Biso   1.000  N
  H69      1.0000 0.83234  0.04860  0.26028  Biso   1.000  H
  H70      1.0000 0.92038  0.04550  0.22379  Biso   1.000  H
  C71      1.0000 0.76756  0.15728  0.23842  Biso   1.000  C
  C72      1.0000 0.88030  0.14051  0.17601  Biso   1.000  C
  H71      1.0000 0.66503  0.20221  0.17030  Biso   1.000  H
  O23      1.0000 0.81700  0.28997  0.31182  Biso   1.000  O
  H72      1.0000 0.70467  0.13222  0.23850  Biso   1.000  H
  O24      1.0000 0.94931  0.11829  0.15373  Biso   1.000  O
  O25      1.0000 0.55064  0.61824  0.34627  Biso   1.000  O
  C73      1.0000 0.61965  0.64051  0.32399  Biso   1.000  C
  N49      1.0000 0.64334  0.62497  0.27431  Biso   1.000  N
  N50      1.0000 0.68614  0.68614  0.34615  Biso   1.000  N
  C74      1.0000 0.60614  0.56899  0.24878  Biso   1.000  C
  C75      1.0000 0.73239  0.65728  0.26159  Biso   1.000  C
  C76      1.0000 0.75816  0.70348  0.30970  Biso   1.000  C
  C77      1.0000 0.68874  0.71107  0.40149  Biso   1.000  C
  N51      1.0000 0.52057  0.57414  0.19800  Biso   1.000  N
  H73      1.0000 0.66760  0.54860  0.23969  Biso   1.000  H
  H74      1.0000 0.57957  0.54550  0.27622  Biso   1.000  H
  N52      1.0000 0.70440  0.69247  0.21110  Biso   1.000  N
  H75      1.0000 0.79528  0.63217  0.26150  Biso   1.000  H
  N53      1.0000 0.73100  0.75788  0.28057  Biso   1.000  N
  H76      1.0000 0.83500  0.70221  0.32970  Biso   1.000  H
  N54      1.0000 0.62103  0.76286  0.39980  Biso   1.000  N
  H77      1.0000 0.76344  0.72107  0.41929  Biso   1.000  H
  H78      1.0000 0.66459  0.68169  0.42479  Biso   1.000  H
  C78      1.0000 0.41461  0.56048  0.19660  Biso   1.000  C
  C79      1.0000 0.53891  0.58790  0.14312  Biso   1.000  C
  C80      1.0000 0.67668  0.67090  0.15390  Biso   1.000  C
  C81      1.0000 0.70260  0.75151  0.22290  Biso   1.000  C
  C82      1.0000 0.74565  0.81478  0.30670  Biso   1.000  C
  C83      1.0000 0.51937  0.76011  0.41020  Biso   1.000  C
  C84      1.0000 0.65406  0.82111  0.38948  Biso   1.000  C
  O26      1.0000 0.37692  0.54563  0.23690  Biso   1.000  O
  N55      1.0000 0.35788  0.56432  0.14122  Biso   1.000  N
  C85      1.0000 0.42492  0.58187  0.10321  Biso   1.000  C
  N56      1.0000 0.56695  0.64872  0.13648  Biso   1.000  N
  H79      1.0000 0.59175  0.56130  0.13229  Biso   1.000  H
  H80      1.0000 0.68617  0.70208  0.12849  Biso   1.000  H
  H81      1.0000 0.72719  0.63990  0.15018  Biso   1.000  H
  O27      1.0000 0.68295  0.78997  0.18819  Biso   1.000  O
  N57      1.0000 0.65586  0.83277  0.33126  Biso   1.000  N
  H82      1.0000 0.75469  0.84329  0.27858  Biso   1.000  H
  H83      1.0000 0.81218  0.81447  0.33608  Biso   1.000  H
  O28      1.0000 0.47163  0.71609  0.41976  Biso   1.000  O
  N58      1.0000 0.48316  0.81644  0.41134  Biso   1.000  N
  C86      1.0000 0.55814  0.85888  0.39900  Biso   1.000  C
  H84      1.0000 0.72292  0.83181  0.41527  Biso   1.000  H
  C87      1.0000 0.24195  0.55048  0.12380  Biso   1.000  C
  N59      1.0000 0.40287  0.64003  0.08037  Biso   1.000  N
  H85      1.0000 0.42428  0.55288  0.07348  Biso   1.000  H
  C88      1.0000 0.48794  0.67671  0.09919  Biso   1.000  C
  C89      1.0000 0.58480  0.87647  0.30809  Biso   1.000  C
  C90      1.0000 0.37707  0.82910  0.42289  Biso   1.000  C
  N60      1.0000 0.52184  0.88940  0.34602  Biso   1.000  N
  H86      1.0000 0.58156  0.88617  0.43050  Biso   1.000  H
  N61      1.0000 0.17278  0.60152  0.11399  Biso   1.000  N
  H87      1.0000 0.22966  0.52751  0.08938  Biso   1.000  H
  H88      1.0000 0.22138  0.52681  0.15280  Biso   1.000  H
  C91      1.0000 0.31661  0.65217  0.03091  Biso   1.000  C
  O29      1.0000 0.49198  0.72788  0.08376  Biso   1.000  O
  O30      1.0000 0.57731  0.89966  0.26239  Biso   1.000  O
  N62      1.0000 0.29515  0.84211  0.37206  Biso   1.000  N
  H89      1.0000 0.35336  0.79569  0.44170  Biso   1.000  H
  H90      1.0000 0.38380  0.86211  0.44851  Biso   1.000  H
  C92      1.0000 0.45183  0.93957  0.33938  Biso   1.000  C
  C93      1.0000 0.10478  0.61471  0.14870  Biso   1.000  C
  C94      1.0000 0.13758  0.62859  0.05822  Biso   1.000  C
  N63      1.0000 0.21431  0.66863  0.04313  Biso   1.000  N
  H91      1.0000 0.34063  0.68339  0.00951  Biso   1.000  H
  H92      1.0000 0.30526  0.61768  0.00710  Biso   1.000  H
  C95      1.0000 0.20775  0.80587  0.35431  Biso   1.000  C
  C96      1.0000 0.26986  0.90158  0.35460  Biso   1.000  C
  N64      1.0000 0.33667  0.92603  0.31917  Biso   1.000  N
  H93      1.0000 0.47373  0.96638  0.31308  Biso   1.000  H
  H94      1.0000 0.46180  0.95939  0.37562  Biso   1.000  H
  O31      1.0000 0.10761  0.59252  0.19449  Biso   1.000  O
  N65      1.0000 0.03508  0.65837  0.12354  Biso   1.000  N
  C97      1.0000 0.04287  0.66828  0.06596  Biso   1.000  C
  H95      1.0000 0.11322  0.59938  0.02858  Biso   1.000  H
  C98      1.0000 0.18116  0.72557  0.04401  Biso   1.000  C
  N66      1.0000 0.12707  0.83665  0.31938  Biso   1.000  N
  O32      1.0000 0.20427  0.75439  0.36699  Biso   1.000  O
  C99      1.0000 0.15663  0.89700  0.31389  Biso   1.000  C
  H96      1.0000 0.26804  0.92699  0.38690  Biso   1.000  H
  C100     1.0000 0.28349  0.93040  0.26391  Biso   1.000  C
  C101     1.0000 0.94132  0.67549  0.14409  Biso   1.000  C
  N67      1.0000 0.07916  0.72583  0.05488  Biso   1.000  N
  H97      1.0000 0.97484  0.65798  0.03932  Biso   1.000  H
  O33      1.0000 0.23219  0.76797  0.03433  Biso   1.000  O
  C102     1.0000 0.01665  0.81399  0.30019  Biso   1.000  C
  N68      1.0000 0.17851  0.91097  0.25964  Biso   1.000  N
  H98      1.0000 0.10385  0.92389  0.32429  Biso   1.000  H
  O34      1.0000 0.31995  0.94891  0.22480  Biso   1.000  O
  N69      1.0000 0.95269  0.73107  0.17216  Biso   1.000  N
  H99      1.0000 0.92717  0.64597  0.17030  Biso   1.000  H
  H100     1.0000 0.87849  0.67688  0.11259  Biso   1.000  H
  C103     1.0000 0.01743  0.77840  0.05509  Biso   1.000  C
  N70      1.0000 0.99208  0.79399  0.24328  Biso   1.000  N
  H101     1.0000 0.00661  0.78198  0.32471  Biso   1.000  H
  H102     1.0000 0.96530  0.84447  0.30399  Biso   1.000  H
  C104     1.0000 0.09286  0.91878  0.20958  Biso   1.000  C
  C105     1.0000 0.93811  0.78648  0.14439  Biso   1.000  C
  C106     1.0000 0.98236  0.73618  0.23038  Biso   1.000  C
  N71      1.0000 0.01974  0.80120  0.11196  Biso   1.000  N
  H103     1.0000 0.04559  0.80810  0.03370  Biso   1.000  H
  H104     1.0000 0.94222  0.77098  0.03611  Biso   1.000  H
  C107     1.0000 0.96408  0.83137  0.19368  Biso   1.000  C
  N72      1.0000 0.05459  0.86416  0.18159  Biso   1.000  N
  H105     1.0000 0.11960  0.94359  0.18328  Biso   1.000  H
  H106     1.0000 0.03209  0.93861  0.21990  Biso   1.000  H
  H107     1.0000 0.86368  0.79120  0.12168  Biso   1.000  H
  O35      1.0000 0.99608  0.69544  0.26353  Biso   1.000  O
  C108     1.0000 0.08418  0.84669  0.13399  Biso   1.000  C
  H108     1.0000 0.90139  0.85648  0.19462  Biso   1.000  H
  O36      1.0000 0.15666  0.86765  0.11437  Biso   1.000  O
  O37      1.0000 0.44926  0.38171  0.65373  Biso   1.000  O
  C109     1.0000 0.38023  0.35949  0.67597  Biso   1.000  C
  N73      1.0000 0.31374  0.31386  0.65382  Biso   1.000  N
  N74      1.0000 0.35656  0.37503  0.72569  Biso   1.000  N
  C110     1.0000 0.31114  0.28888  0.59847  Biso   1.000  C
  C111     1.0000 0.24175  0.29648  0.69031  Biso   1.000  C
  C112     1.0000 0.26758  0.34268  0.73838  Biso   1.000  C
  C113     1.0000 0.39375  0.43101  0.75119  Biso   1.000  C
  N75      1.0000 0.37886  0.23710  0.60017  Biso   1.000  N
  H109     1.0000 0.23645  0.27888  0.58067  Biso   1.000  H
  H110     1.0000 0.33538  0.31831  0.57518  Biso   1.000  H
  N76      1.0000 0.26897  0.24212  0.71940  Biso   1.000  N
  H111     1.0000 0.16499  0.29779  0.67031  Biso   1.000  H
  N77      1.0000 0.29556  0.30748  0.78886  Biso   1.000  N
  H112     1.0000 0.20462  0.36778  0.73851  Biso   1.000  H
  N78      1.0000 0.47933  0.42586  0.80201  Biso   1.000  N
  H113     1.0000 0.33237  0.45140  0.76028  Biso   1.000  H
  H114     1.0000 0.42034  0.45450  0.72379  Biso   1.000  H
  C114     1.0000 0.48051  0.23989  0.58976  Biso   1.000  C
  C115     1.0000 0.34582  0.17889  0.61048  Biso   1.000  C
  C116     1.0000 0.25425  0.18518  0.69331  Biso   1.000  C
  C117     1.0000 0.29739  0.24849  0.77711  Biso   1.000  C
  C118     1.0000 0.32322  0.32910  0.84611  Biso   1.000  C
  C119     1.0000 0.58538  0.43948  0.80341  Biso   1.000  C
  C120     1.0000 0.46107  0.41210  0.85689  Biso   1.000  C
  O38      1.0000 0.52828  0.28391  0.58025  Biso   1.000  O
  N79      1.0000 0.51673  0.18356  0.58862  Biso   1.000  N
  C121     1.0000 0.44176  0.14108  0.60101  Biso   1.000  C
  N80      1.0000 0.34403  0.16719  0.66870  Biso   1.000  N
  H115     1.0000 0.27696  0.16819  0.58469  Biso   1.000  H
  H116     1.0000 0.24528  0.15671  0.72138  Biso   1.000  H
  H117     1.0000 0.18771  0.18549  0.66388  Biso   1.000  H
  O39      1.0000 0.31693  0.21003  0.81178  Biso   1.000  O
  N81      1.0000 0.43294  0.35128  0.86349  Biso   1.000  N
  H118     1.0000 0.31371  0.29788  0.87148  Biso   1.000  H
  H119     1.0000 0.27277  0.36010  0.84979  Biso   1.000  H
  O40      1.0000 0.62307  0.45433  0.76311  Biso   1.000  O
  N82      1.0000 0.64201  0.43568  0.85875  Biso   1.000  N
  H120     1.0000 0.40813  0.43870  0.86767  Biso   1.000  H
  C122     1.0000 0.57506  0.41809  0.89680  Biso   1.000  C
  C123     1.0000 0.62281  0.17090  0.57708  Biso   1.000  C
  N83      1.0000 0.47804  0.11056  0.65395  Biso   1.000  N
  H121     1.0000 0.41834  0.11379  0.56951  Biso   1.000  H
  C124     1.0000 0.41517  0.12348  0.69187  Biso   1.000  C
  C125     1.0000 0.51194  0.32329  0.90078  Biso   1.000  C
  C126     1.0000 0.75794  0.44948  0.87617  Biso   1.000  C
  N84      1.0000 0.59701  0.35997  0.91959  Biso   1.000  N
  H122     1.0000 0.57560  0.44708  0.92648  Biso   1.000  H
  N85      1.0000 0.70474  0.15789  0.62790  Biso   1.000  N
  H123     1.0000 0.64654  0.20431  0.55831  Biso   1.000  H
  H124     1.0000 0.61618  0.13789  0.55150  Biso   1.000  H
  C127     1.0000 0.54806  0.06039  0.66058  Biso   1.000  C
  O41      1.0000 0.42267  0.10034  0.73762  Biso   1.000  O
  O42      1.0000 0.50790  0.27207  0.91621  Biso   1.000  O
  N86      1.0000 0.82713  0.39848  0.88602  Biso   1.000  N
  H125     1.0000 0.77023  0.47249  0.91059  Biso   1.000  H
  H126     1.0000 0.77853  0.47319  0.84721  Biso   1.000  H
  C128     1.0000 0.68330  0.34779  0.96910  Biso   1.000  C
  C129     1.0000 0.79215  0.19409  0.64570  Biso   1.000  C
  C130     1.0000 0.73004  0.09842  0.64541  Biso   1.000  C
  N87      1.0000 0.66323  0.07397  0.68084  Biso   1.000  N
  H127     1.0000 0.52616  0.03358  0.68688  Biso   1.000  H
  H128     1.0000 0.53818  0.04061  0.62439  Biso   1.000  H
  C131     1.0000 0.89512  0.38529  0.85131  Biso   1.000  C
  C132     1.0000 0.86233  0.37141  0.94179  Biso   1.000  C
  N88      1.0000 0.78565  0.33132  0.95684  Biso   1.000  N
  H129     1.0000 0.65935  0.31661  0.99049  Biso   1.000  H
  H130     1.0000 0.69464  0.38228  0.99290  Biso   1.000  H
  O43      1.0000 0.79563  0.24561  0.63302  Biso   1.000  O
  N89      1.0000 0.87283  0.16330  0.68062  Biso   1.000  N
  H131     1.0000 0.73186  0.07301  0.61310  Biso   1.000  H
  C133     1.0000 0.84325  0.10300  0.68608  Biso   1.000  C
  C134     1.0000 0.71641  0.06960  0.73610  Biso   1.000  C
  N90      1.0000 0.96480  0.34163  0.87642  Biso   1.000  N
  O44      1.0000 0.89235  0.40743  0.80548  Biso   1.000  O
  C135     1.0000 0.95703  0.33167  0.93405  Biso   1.000  C
  H132     1.0000 0.88675  0.40058  0.97138  Biso   1.000  H
  C136     1.0000 0.81874  0.27439  0.95599  Biso   1.000  C
  C137     1.0000 0.98324  0.18601  0.69978  Biso   1.000  C
  N91      1.0000 0.82146  0.08903  0.74032  Biso   1.000  N
  H133     1.0000 0.89604  0.07611  0.67568  Biso   1.000  H
  O45      1.0000 0.67994  0.05104  0.77516  Biso   1.000  O
  C138     1.0000 0.05864  0.32451  0.85588  Biso   1.000  C
  N92      1.0000 0.92073  0.27417  0.94509  Biso   1.000  N
  H134     1.0000 0.02514  0.34198  0.96069  Biso   1.000  H
  O46      1.0000 0.76771  0.23199  0.96568  Biso   1.000  O
  H135     1.0000 0.99337  0.21802  0.67530  Biso   1.000  H
  N93      1.0000 0.00783  0.20601  0.75673  Biso   1.000  N
  H136     1.0000 0.03467  0.15549  0.69597  Biso   1.000  H
  C139     1.0000 0.90703  0.08122  0.79038  Biso   1.000  C
  N94      1.0000 0.04721  0.26893  0.82784  Biso   1.000  N
  H137     1.0000 0.07273  0.35399  0.82970  Biso   1.000  H
  H138     1.0000 0.12139  0.32312  0.88737  Biso   1.000  H
  C140     1.0000 0.98254  0.22160  0.94487  Biso   1.000  C
  C141     1.0000 0.03581  0.16859  0.80628  Biso   1.000  C
  C142     1.0000 0.01753  0.26378  0.76958  Biso   1.000  C
  N95      1.0000 0.94532  0.13580  0.81842  Biso   1.000  N
  H139     1.0000 0.88036  0.05641  0.81668  Biso   1.000  H
  H140     1.0000 0.96782  0.06139  0.78011  Biso   1.000  H
  C143     1.0000 0.06185  0.21352  0.85558  Biso   1.000  C
  N96      1.0000 0.98025  0.19880  0.88805  Biso   1.000  N
  H141     1.0000 0.95430  0.19190  0.96627  Biso   1.000  H
  H142     1.0000 0.05768  0.22898  0.96390  Biso   1.000  H
  H143     1.0000 0.09851  0.14348  0.80539  Biso   1.000  H
  O47      1.0000 0.00382  0.30456  0.73648  Biso   1.000  O
  C144     1.0000 0.91570  0.15331  0.86598  Biso   1.000  C
  H144     1.0000 0.13621  0.20880  0.87828  Biso   1.000  H
  O48      1.0000 0.84323  0.13235  0.88560  Biso   1.000  O
