data_image0
_cell_length_a       27.391
_cell_length_b       20.23
_cell_length_c       13.282
_cell_angle_alpha    90
_cell_angle_beta     116.53
_cell_angle_gamma    90

_symmetry_space_group_name_H-M    "P 1"
_symmetry_int_tables_number       1

loop_
  _symmetry_equiv_pos_as_xyz
  'x, y, z'

loop_
  _atom_site_label
  _atom_site_occupancy
  _atom_site_fract_x
  _atom_site_fract_y
  _atom_site_fract_z
  _atom_site_thermal_displace_type
  _atom_site_B_iso_or_equiv
  _atom_site_type_symbol
  C1       1.0000 0.57960  0.59110  0.34401  Biso   1.000  C
  N1       1.0000 0.63497  0.56362  0.39349  Biso   1.000  N
  N2       1.0000 0.57229  0.64681  0.26861  Biso   1.000  N
  C2       1.0000 0.57621  0.62378  0.44650  Biso   1.000  C
  H1       1.0000 0.55172  0.55699  0.30883  Biso   1.000  H
  C3       1.0000 0.65939  0.56639  0.51012  Biso   1.000  C
  C4       1.0000 0.65151  0.51419  0.33467  Biso   1.000  C
  C5       1.0000 0.57581  0.64192  0.16300  Biso   1.000  C
  C6       1.0000 0.57030  0.70682  0.31658  Biso   1.000  C
  N3       1.0000 0.62671  0.60371  0.54160  Biso   1.000  N
  N4       1.0000 0.57275  0.69441  0.42042  Biso   1.000  N
  H2       1.0000 0.54410  0.60850  0.45450  Biso   1.000  H
  O1       1.0000 0.70265  0.54068  0.57349  Biso   1.000  O
  N5       1.0000 0.68290  0.54221  0.28090  Biso   1.000  N
  H3       1.0000 0.61920  0.49288  0.27787  Biso   1.000  H
  H4       1.0000 0.67330  0.48062  0.38794  Biso   1.000  H
  H5       1.0000 0.55728  0.67958  0.11638  Biso   1.000  H
  H6       1.0000 0.55658  0.60242  0.12379  Biso   1.000  H
  N6       1.0000 0.63108  0.63950  0.17613  Biso   1.000  N
  O2       1.0000 0.56667  0.76110  0.27248  Biso   1.000  O
  C7       1.0000 0.64122  0.61908  0.65713  Biso   1.000  C
  C8       1.0000 0.55659  0.74449  0.47730  Biso   1.000  C
  C9       1.0000 0.73871  0.54612  0.33324  Biso   1.000  C
  C10      1.0000 0.65868  0.57761  0.17377  Biso   1.000  C
  C11      1.0000 0.65549  0.69298  0.15366  Biso   1.000  C
  N7       1.0000 0.66316  0.68631  0.69138  Biso   1.000  N
  H7       1.0000 0.66811  0.58739  0.70493  Biso   1.000  H
  H8       1.0000 0.60908  0.61399  0.66959  Biso   1.000  H
  N8       1.0000 0.60240  0.77331  0.57601  Biso   1.000  N
  H9       1.0000 0.53101  0.72521  0.50112  Biso   1.000  H
  H10      1.0000 0.53781  0.77958  0.42429  Biso   1.000  H
  O3       1.0000 0.76986  0.52358  0.42547  Biso   1.000  O
  N9       1.0000 0.75511  0.58008  0.26297  Biso   1.000  N
  C12      1.0000 0.70879  0.60198  0.15871  Biso   1.000  C
  H11      1.0000 0.63501  0.54879  0.11184  Biso   1.000  H
  N10      1.0000 0.70212  0.67281  0.14979  Biso   1.000  N
  O4       1.0000 0.63766  0.75022  0.13910  Biso   1.000  O
  C13      1.0000 0.71500  0.69560  0.77091  Biso   1.000  C
  C14      1.0000 0.62759  0.74192  0.68457  Biso   1.000  C
  C15      1.0000 0.62819  0.83000  0.57172  Biso   1.000  C
  C16      1.0000 0.81139  0.58898  0.28889  Biso   1.000  C
  H12      1.0000 0.70980  0.58270  0.09189  Biso   1.000  H
  C17      1.0000 0.72990  0.71448  0.10157  Biso   1.000  C
  O5       1.0000 0.75325  0.65546  0.80002  Biso   1.000  O
  N11      1.0000 0.71894  0.75798  0.81744  Biso   1.000  N
  C18      1.0000 0.66891  0.79501  0.75988  Biso   1.000  C
  H13      1.0000 0.60089  0.73020  0.71200  Biso   1.000  H
  O6       1.0000 0.61688  0.86500  0.48749  Biso   1.000  O
  N12      1.0000 0.66939  0.84301  0.67834  Biso   1.000  N
  N13      1.0000 0.83062  0.65699  0.32171  Biso   1.000  N
  H14      1.0000 0.83350  0.55942  0.34982  Biso   1.000  H
  H15      1.0000 0.81658  0.57701  0.22367  Biso   1.000  H
  N14      1.0000 0.78107  0.74202  0.18261  Biso   1.000  N
  H16      1.0000 0.70580  0.75052  0.06093  Biso   1.000  H
  H17      1.0000 0.73670  0.68848  0.04771  Biso   1.000  H
  C19      1.0000 0.77010  0.78552  0.89840  Biso   1.000  C
  H18      1.0000 0.65721  0.81508  0.81290  Biso   1.000  H
  C20      1.0000 0.68860  0.91102  0.71108  Biso   1.000  C
  C21      1.0000 0.87182  0.67000  0.42833  Biso   1.000  C
  C22      1.0000 0.83109  0.70499  0.24008  Biso   1.000  C
  C23      1.0000 0.78500  0.80440  0.22906  Biso   1.000  C
  N15      1.0000 0.79788  0.82719  0.85018  Biso   1.000  N
  H19      1.0000 0.79422  0.74948  0.93912  Biso   1.000  H
  H20      1.0000 0.76331  0.81152  0.95234  Biso   1.000  H
  N16      1.0000 0.74489  0.91992  0.73699  Biso   1.000  N
  H21      1.0000 0.66652  0.94058  0.65023  Biso   1.000  H
  H22      1.0000 0.68342  0.92299  0.77629  Biso   1.000  H
  O7       1.0000 0.88311  0.63500  0.51248  Biso   1.000  O
  N17      1.0000 0.89758  0.72669  0.42404  Biso   1.000  N
  H23      1.0000 0.84279  0.68492  0.18707  Biso   1.000  H
  C24      1.0000 0.87241  0.75808  0.31540  Biso   1.000  C
  O8       1.0000 0.74673  0.84454  0.20003  Biso   1.000  O
  N18      1.0000 0.83683  0.81369  0.30858  Biso   1.000  N
  C25      1.0000 0.79122  0.89802  0.84134  Biso   1.000  C
  C26      1.0000 0.84450  0.80702  0.84631  Biso   1.000  C
  C27      1.0000 0.76131  0.95388  0.66681  Biso   1.000  C
  C28      1.0000 0.94340  0.75551  0.52266  Biso   1.000  C
  H24      1.0000 0.89910  0.76980  0.28796  Biso   1.000  H
  C29      1.0000 0.85880  0.88092  0.34291  Biso   1.000  C
  H25      1.0000 0.79020  0.91730  0.90807  Biso   1.000  H
  C30      1.0000 0.84132  0.92239  0.82619  Biso   1.000  C
  O9       1.0000 0.86233  0.74978  0.86086  Biso   1.000  O
  N19      1.0000 0.86894  0.86050  0.82392  Biso   1.000  N
  O10      1.0000 0.73014  0.97642  0.57450  Biso   1.000  O
  N20      1.0000 0.81709  0.95779  0.71907  Biso   1.000  N
  N21      1.0000 0.92723  0.80559  0.57963  Biso   1.000  N
  H26      1.0000 0.96900  0.77479  0.49893  Biso   1.000  H
  H27      1.0000 0.96219  0.72042  0.57568  Biso   1.000  H
  N22      1.0000 0.87329  0.89629  0.45837  Biso   1.000  N
  H28      1.0000 0.83191  0.91261  0.29512  Biso   1.000  H
  H29      1.0000 0.89091  0.88601  0.33038  Biso   1.000  H
  H30      1.0000 0.86501  0.95121  0.88821  Biso   1.000  H
  C31      1.0000 0.92419  0.85808  0.83696  Biso   1.000  C
  C32      1.0000 0.84849  0.98581  0.66530  Biso   1.000  C
  C33      1.0000 0.92379  0.87622  0.55346  Biso   1.000  C
  C34      1.0000 0.92970  0.79318  0.68339  Biso   1.000  C
  C35      1.0000 0.84059  0.93361  0.48993  Biso   1.000  C
  N23      1.0000 0.92773  0.85319  0.73144  Biso   1.000  N
  H31      1.0000 0.94268  0.82042  0.88358  Biso   1.000  H
  H32      1.0000 0.94341  0.89758  0.87618  Biso   1.000  H
  N24      1.0000 0.86503  0.93638  0.60648  Biso   1.000  N
  H33      1.0000 0.88080  0.00712  0.72210  Biso   1.000  H
  H34      1.0000 0.82671  0.01938  0.61211  Biso   1.000  H
  H35      1.0000 0.95590  0.89150  0.54547  Biso   1.000  H
  C36      1.0000 0.92041  0.90890  0.65604  Biso   1.000  C
  O11      1.0000 0.93333  0.73890  0.72748  Biso   1.000  O
  O12      1.0000 0.79731  0.95932  0.42648  Biso   1.000  O
  H36      1.0000 0.94829  0.94301  0.69122  Biso   1.000  H
  C37      1.0000 0.42041  0.59110  0.15602  Biso   1.000  C
  N25      1.0000 0.36505  0.56362  0.10654  Biso   1.000  N
  N26      1.0000 0.42769  0.64681  0.23141  Biso   1.000  N
  C38      1.0000 0.42381  0.62378  0.05352  Biso   1.000  C
  H37      1.0000 0.44830  0.55699  0.19119  Biso   1.000  H
  C39      1.0000 0.34849  0.51419  0.16527  Biso   1.000  C
  C40      1.0000 0.34063  0.56639  0.98990  Biso   1.000  C
  C41      1.0000 0.42421  0.64192  0.33702  Biso   1.000  C
  C42      1.0000 0.42970  0.70682  0.18336  Biso   1.000  C
  N27      1.0000 0.37331  0.60371  0.95843  Biso   1.000  N
  N28      1.0000 0.42723  0.69441  0.07961  Biso   1.000  N
  H38      1.0000 0.45592  0.60850  0.04553  Biso   1.000  H
  N29      1.0000 0.31711  0.54221  0.21913  Biso   1.000  N
  H39      1.0000 0.38080  0.49288  0.22207  Biso   1.000  H
  H40      1.0000 0.32671  0.48062  0.11209  Biso   1.000  H
  O13      1.0000 0.29737  0.54068  0.92654  Biso   1.000  O
  N30      1.0000 0.36894  0.63950  0.32390  Biso   1.000  N
  H41      1.0000 0.44268  0.67958  0.38356  Biso   1.000  H
  H42      1.0000 0.44340  0.60242  0.37624  Biso   1.000  H
  O14      1.0000 0.43333  0.76110  0.22746  Biso   1.000  O
  C43      1.0000 0.35882  0.61908  0.84297  Biso   1.000  C
  C44      1.0000 0.44339  0.74449  0.02272  Biso   1.000  C
  C45      1.0000 0.26131  0.54612  0.16679  Biso   1.000  C
  C46      1.0000 0.34128  0.57761  0.32617  Biso   1.000  C
  C47      1.0000 0.34451  0.69298  0.34628  Biso   1.000  C
  N31      1.0000 0.33689  0.68631  0.80864  Biso   1.000  N
  H43      1.0000 0.33193  0.58739  0.79518  Biso   1.000  H
  H44      1.0000 0.39093  0.61399  0.83044  Biso   1.000  H
  H45      1.0000 0.46221  0.77958  0.07574  Biso   1.000  H
  N32      1.0000 0.39762  0.77331  0.92401  Biso   1.000  N
  H46      1.0000 0.46900  0.72521  0.99891  Biso   1.000  H
  O15      1.0000 0.23014  0.52358  0.07447  Biso   1.000  O
  N33      1.0000 0.24489  0.58008  0.23697  Biso   1.000  N
  C48      1.0000 0.29119  0.60198  0.34132  Biso   1.000  C
  H47      1.0000 0.36501  0.54879  0.38819  Biso   1.000  H
  N34      1.0000 0.29790  0.67281  0.35024  Biso   1.000  N
  O16      1.0000 0.36235  0.75022  0.36092  Biso   1.000  O
  C49      1.0000 0.28502  0.69560  0.72912  Biso   1.000  C
  C50      1.0000 0.37243  0.74192  0.81546  Biso   1.000  C
  C51      1.0000 0.37182  0.83000  0.92830  Biso   1.000  C
  C52      1.0000 0.18862  0.58898  0.21113  Biso   1.000  C
  H48      1.0000 0.29022  0.58270  0.40813  Biso   1.000  H
  C53      1.0000 0.27010  0.71448  0.39837  Biso   1.000  C
  O17      1.0000 0.24677  0.65546  0.70000  Biso   1.000  O
  N35      1.0000 0.28109  0.75798  0.68267  Biso   1.000  N
  C54      1.0000 0.33111  0.79501  0.74014  Biso   1.000  C
  H49      1.0000 0.39912  0.73020  0.78802  Biso   1.000  H
  O18      1.0000 0.38313  0.86500  0.01254  Biso   1.000  O
  N36      1.0000 0.33064  0.84301  0.82177  Biso   1.000  N
  N37      1.0000 0.16936  0.65699  0.17832  Biso   1.000  N
  H50      1.0000 0.16652  0.55942  0.15021  Biso   1.000  H
  H51      1.0000 0.18338  0.57701  0.27627  Biso   1.000  H
  N38      1.0000 0.21894  0.74202  0.31742  Biso   1.000  N
  H52      1.0000 0.29418  0.75052  0.43910  Biso   1.000  H
  H53      1.0000 0.26331  0.68848  0.45231  Biso   1.000  H
  C55      1.0000 0.22992  0.78552  0.60163  Biso   1.000  C
  H54      1.0000 0.34281  0.81508  0.68713  Biso   1.000  H
  C56      1.0000 0.31141  0.91102  0.78895  Biso   1.000  C
  C57      1.0000 0.12819  0.67000  0.07170  Biso   1.000  C
  C58      1.0000 0.16887  0.70499  0.25986  Biso   1.000  C
  C59      1.0000 0.21500  0.80440  0.27088  Biso   1.000  C
  N39      1.0000 0.20214  0.82719  0.64985  Biso   1.000  N
  H55      1.0000 0.20580  0.74948  0.56090  Biso   1.000  H
  H56      1.0000 0.23672  0.81152  0.54777  Biso   1.000  H
  N40      1.0000 0.25513  0.91992  0.76303  Biso   1.000  N
  H57      1.0000 0.33352  0.94058  0.84987  Biso   1.000  H
  H58      1.0000 0.31664  0.92299  0.72373  Biso   1.000  H
  N41      1.0000 0.10240  0.72669  0.07599  Biso   1.000  N
  O19      1.0000 0.11690  0.63500  0.98755  Biso   1.000  O
  H59      1.0000 0.15721  0.68492  0.31287  Biso   1.000  H
  C60      1.0000 0.12761  0.75808  0.18463  Biso   1.000  C
  N42      1.0000 0.16313  0.81369  0.19136  Biso   1.000  N
  O20      1.0000 0.25325  0.84454  0.30000  Biso   1.000  O
  C61      1.0000 0.20881  0.89802  0.65877  Biso   1.000  C
  C62      1.0000 0.15551  0.80702  0.65372  Biso   1.000  C
  C63      1.0000 0.23871  0.95388  0.83321  Biso   1.000  C
  C64      1.0000 0.05661  0.75551  0.97736  Biso   1.000  C
  H60      1.0000 0.10089  0.76980  0.21198  Biso   1.000  H
  C65      1.0000 0.14122  0.88092  0.15711  Biso   1.000  C
  C66      1.0000 0.15874  0.92239  0.67383  Biso   1.000  C
  H61      1.0000 0.20982  0.91730  0.59195  Biso   1.000  H
  N43      1.0000 0.13108  0.86050  0.67610  Biso   1.000  N
  O21      1.0000 0.13768  0.74978  0.63916  Biso   1.000  O
  N44      1.0000 0.18292  0.95779  0.78096  Biso   1.000  N
  O22      1.0000 0.26988  0.97642  0.92553  Biso   1.000  O
  H62      1.0000 0.03101  0.77479  0.00109  Biso   1.000  H
  N45      1.0000 0.07279  0.80559  0.92039  Biso   1.000  N
  H63      1.0000 0.03783  0.72042  0.92435  Biso   1.000  H
  N46      1.0000 0.12671  0.89629  0.04157  Biso   1.000  N
  H64      1.0000 0.16811  0.91261  0.20491  Biso   1.000  H
  H65      1.0000 0.10909  0.88601  0.16956  Biso   1.000  H
  H66      1.0000 0.13501  0.95121  0.61181  Biso   1.000  H
  C67      1.0000 0.07583  0.85808  0.66306  Biso   1.000  C
  C68      1.0000 0.15153  0.98581  0.83473  Biso   1.000  C
  C69      1.0000 0.07623  0.87622  0.94656  Biso   1.000  C
  C70      1.0000 0.07032  0.79318  0.81664  Biso   1.000  C
  C71      1.0000 0.15939  0.93361  0.01010  Biso   1.000  C
  N47      1.0000 0.07234  0.85319  0.76867  Biso   1.000  N
  H67      1.0000 0.05734  0.82042  0.61644  Biso   1.000  H
  H68      1.0000 0.05664  0.89758  0.62385  Biso   1.000  H
  N48      1.0000 0.13499  0.93638  0.89355  Biso   1.000  N
  H69      1.0000 0.11922  0.00712  0.77793  Biso   1.000  H
  H70      1.0000 0.17331  0.01938  0.88791  Biso   1.000  H
  H71      1.0000 0.04412  0.89150  0.95456  Biso   1.000  H
  C72      1.0000 0.07962  0.90890  0.84407  Biso   1.000  C
  O23      1.0000 0.06668  0.73890  0.77254  Biso   1.000  O
  O24      1.0000 0.20265  0.95932  0.07346  Biso   1.000  O
  H72      1.0000 0.05172  0.94301  0.80881  Biso   1.000  H
  C73      1.0000 0.35882  0.38092  0.34291  Biso   1.000  C
  N49      1.0000 0.33685  0.31369  0.30858  Biso   1.000  N
  N50      1.0000 0.37331  0.39629  0.45837  Biso   1.000  N
  H73      1.0000 0.33189  0.41261  0.29512  Biso   1.000  H
  H74      1.0000 0.39089  0.38601  0.33038  Biso   1.000  H
  C74      1.0000 0.28498  0.30440  0.22906  Biso   1.000  C
  C75      1.0000 0.37239  0.25808  0.31540  Biso   1.000  C
  C76      1.0000 0.34061  0.43361  0.48993  Biso   1.000  C
  C77      1.0000 0.42381  0.37622  0.55346  Biso   1.000  C
  N51      1.0000 0.28105  0.24202  0.18261  Biso   1.000  N
  O25      1.0000 0.24675  0.34454  0.20003  Biso   1.000  O
  C78      1.0000 0.33111  0.20499  0.24008  Biso   1.000  C
  N52      1.0000 0.39760  0.22669  0.42404  Biso   1.000  N
  H75      1.0000 0.39909  0.26980  0.28796  Biso   1.000  H
  O26      1.0000 0.29733  0.45932  0.42648  Biso   1.000  O
  N53      1.0000 0.36505  0.43638  0.60648  Biso   1.000  N
  N54      1.0000 0.42725  0.30559  0.57963  Biso   1.000  N
  H76      1.0000 0.45588  0.39150  0.54547  Biso   1.000  H
  C79      1.0000 0.42040  0.40890  0.65604  Biso   1.000  C
  C80      1.0000 0.22988  0.21448  0.10157  Biso   1.000  C
  N55      1.0000 0.33064  0.15699  0.32171  Biso   1.000  N
  H77      1.0000 0.34281  0.18492  0.18707  Biso   1.000  H
  C81      1.0000 0.37180  0.17000  0.42833  Biso   1.000  C
  C82      1.0000 0.44338  0.25551  0.52266  Biso   1.000  C
  C83      1.0000 0.34851  0.48581  0.66530  Biso   1.000  C
  C84      1.0000 0.42971  0.29318  0.68339  Biso   1.000  C
  N56      1.0000 0.42771  0.35319  0.73144  Biso   1.000  N
  H78      1.0000 0.44831  0.44301  0.69122  Biso   1.000  H
  N57      1.0000 0.20213  0.17281  0.14979  Biso   1.000  N
  H79      1.0000 0.20581  0.25052  0.06093  Biso   1.000  H
  H80      1.0000 0.23669  0.18848  0.04771  Biso   1.000  H
  C85      1.0000 0.31141  0.08898  0.28889  Biso   1.000  C
  O27      1.0000 0.38313  0.13500  0.51248  Biso   1.000  O
  H81      1.0000 0.46902  0.27479  0.49893  Biso   1.000  H
  H82      1.0000 0.46221  0.22042  0.57568  Biso   1.000  H
  N58      1.0000 0.31711  0.45779  0.71907  Biso   1.000  N
  H83      1.0000 0.38082  0.50712  0.72210  Biso   1.000  H
  H84      1.0000 0.32669  0.51938  0.61211  Biso   1.000  H
  O28      1.0000 0.43331  0.23890  0.72748  Biso   1.000  O
  C86      1.0000 0.42420  0.35808  0.83696  Biso   1.000  C
  C87      1.0000 0.20881  0.10198  0.15871  Biso   1.000  C
  C88      1.0000 0.15547  0.19298  0.15366  Biso   1.000  C
  N59      1.0000 0.25509  0.08008  0.26297  Biso   1.000  N
  H85      1.0000 0.33352  0.05942  0.34982  Biso   1.000  H
  H86      1.0000 0.31660  0.07701  0.22367  Biso   1.000  H
  C89      1.0000 0.26129  0.45388  0.66681  Biso   1.000  C
  C90      1.0000 0.34130  0.42239  0.82619  Biso   1.000  C
  H87      1.0000 0.44270  0.32042  0.88358  Biso   1.000  H
  H88      1.0000 0.44340  0.39758  0.87618  Biso   1.000  H
  N60      1.0000 0.36892  0.36050  0.82392  Biso   1.000  N
  H89      1.0000 0.20978  0.08270  0.09189  Biso   1.000  H
  C91      1.0000 0.15870  0.07761  0.17377  Biso   1.000  C
  O29      1.0000 0.13765  0.25022  0.13910  Biso   1.000  O
  N61      1.0000 0.13110  0.13950  0.17613  Biso   1.000  N
  C92      1.0000 0.23869  0.04612  0.33324  Biso   1.000  C
  O30      1.0000 0.23012  0.47642  0.57450  Biso   1.000  O
  N62      1.0000 0.24487  0.41992  0.73699  Biso   1.000  N
  C93      1.0000 0.29120  0.39802  0.84134  Biso   1.000  C
  H90      1.0000 0.36499  0.45121  0.88821  Biso   1.000  H
  C94      1.0000 0.34449  0.30702  0.84631  Biso   1.000  C
  N63      1.0000 0.18289  0.04221  0.28090  Biso   1.000  N
  H91      1.0000 0.13503  0.04879  0.11184  Biso   1.000  H
  C95      1.0000 0.07579  0.14192  0.16300  Biso   1.000  C
  O31      1.0000 0.26984  0.02358  0.42547  Biso   1.000  O
  C96      1.0000 0.18859  0.41102  0.71108  Biso   1.000  C
  N64      1.0000 0.29786  0.32719  0.85018  Biso   1.000  N
  H92      1.0000 0.29018  0.41730  0.90807  Biso   1.000  H
  O32      1.0000 0.36235  0.24978  0.86086  Biso   1.000  O
  C97      1.0000 0.15149  0.01419  0.33467  Biso   1.000  C
  N65      1.0000 0.07231  0.14681  0.26861  Biso   1.000  N
  H93      1.0000 0.05730  0.17958  0.11638  Biso   1.000  H
  H94      1.0000 0.05660  0.10242  0.12379  Biso   1.000  H
  N66      1.0000 0.16937  0.34301  0.67834  Biso   1.000  N
  H95      1.0000 0.16650  0.44058  0.65023  Biso   1.000  H
  H96      1.0000 0.18340  0.42299  0.77629  Biso   1.000  H
  C98      1.0000 0.27008  0.28552  0.89840  Biso   1.000  C
  N67      1.0000 0.13495  0.06362  0.39349  Biso   1.000  N
  H97      1.0000 0.11918  0.99288  0.27787  Biso   1.000  H
  H98      1.0000 0.17332  0.98062  0.38794  Biso   1.000  H
  C99      1.0000 0.07962  0.09110  0.34401  Biso   1.000  C
  C100     1.0000 0.07028  0.20682  0.31658  Biso   1.000  C
  C101     1.0000 0.12821  0.33000  0.57172  Biso   1.000  C
  C102     1.0000 0.16889  0.29501  0.75988  Biso   1.000  C
  N68      1.0000 0.21896  0.25798  0.81744  Biso   1.000  N
  H99      1.0000 0.29420  0.24948  0.93912  Biso   1.000  H
  H100     1.0000 0.26329  0.31152  0.95234  Biso   1.000  H
  C103     1.0000 0.15941  0.06639  0.51012  Biso   1.000  C
  C104     1.0000 0.07619  0.12378  0.44650  Biso   1.000  C
  H101     1.0000 0.05170  0.05699  0.30883  Biso   1.000  H
  O33      1.0000 0.06668  0.26110  0.27248  Biso   1.000  O
  N69      1.0000 0.07277  0.19441  0.42042  Biso   1.000  N
  N70      1.0000 0.10242  0.27331  0.57601  Biso   1.000  N
  O34      1.0000 0.11687  0.36500  0.48749  Biso   1.000  O
  C105     1.0000 0.12761  0.24192  0.68457  Biso   1.000  C
  H102     1.0000 0.15719  0.31508  0.81290  Biso   1.000  H
  C106     1.0000 0.21502  0.19560  0.77091  Biso   1.000  C
  O35      1.0000 0.20267  0.04068  0.57349  Biso   1.000  O
  N71      1.0000 0.12669  0.10371  0.54160  Biso   1.000  N
  H103     1.0000 0.04412  0.10850  0.45450  Biso   1.000  H
  C107     1.0000 0.05661  0.24449  0.47730  Biso   1.000  C
  N72      1.0000 0.16315  0.18631  0.69138  Biso   1.000  N
  H104     1.0000 0.10091  0.23020  0.71200  Biso   1.000  H
  O36      1.0000 0.25327  0.15546  0.80002  Biso   1.000  O
  C108     1.0000 0.14120  0.11908  0.65713  Biso   1.000  C
  H105     1.0000 0.03099  0.22521  0.50112  Biso   1.000  H
  H106     1.0000 0.03779  0.27958  0.42429  Biso   1.000  H
  H107     1.0000 0.16812  0.08739  0.70493  Biso   1.000  H
  H108     1.0000 0.10910  0.11399  0.66959  Biso   1.000  H
  C109     1.0000 0.64120  0.38092  0.15711  Biso   1.000  C
  N73      1.0000 0.66315  0.31369  0.19136  Biso   1.000  N
  N74      1.0000 0.62669  0.39629  0.04157  Biso   1.000  N
  H109     1.0000 0.66809  0.41261  0.20491  Biso   1.000  H
  H110     1.0000 0.60910  0.38601  0.16956  Biso   1.000  H
  C110     1.0000 0.62759  0.25808  0.18463  Biso   1.000  C
  C111     1.0000 0.71498  0.30440  0.27088  Biso   1.000  C
  C112     1.0000 0.57621  0.37622  0.94656  Biso   1.000  C
  C113     1.0000 0.65941  0.43361  0.01010  Biso   1.000  C
  N75      1.0000 0.60242  0.22669  0.07599  Biso   1.000  N
  C114     1.0000 0.66889  0.20499  0.25986  Biso   1.000  C
  H111     1.0000 0.60091  0.26980  0.21198  Biso   1.000  H
  N76      1.0000 0.71893  0.24202  0.31742  Biso   1.000  N
  O37      1.0000 0.75327  0.34454  0.30000  Biso   1.000  O
  N77      1.0000 0.57277  0.30559  0.92039  Biso   1.000  N
  H112     1.0000 0.54414  0.39150  0.95456  Biso   1.000  H
  C115     1.0000 0.57964  0.40890  0.84407  Biso   1.000  C
  O38      1.0000 0.70267  0.45932  0.07346  Biso   1.000  O
  N78      1.0000 0.63497  0.43638  0.89355  Biso   1.000  N
  C116     1.0000 0.62821  0.17000  0.07170  Biso   1.000  C
  C117     1.0000 0.55663  0.25551  0.97736  Biso   1.000  C
  N79      1.0000 0.66938  0.15699  0.17832  Biso   1.000  N
  H113     1.0000 0.65719  0.18492  0.31287  Biso   1.000  H
  C118     1.0000 0.77008  0.21448  0.39837  Biso   1.000  C
  C119     1.0000 0.57034  0.29318  0.81664  Biso   1.000  C
  N80      1.0000 0.57233  0.35319  0.76867  Biso   1.000  N
  H114     1.0000 0.55170  0.44301  0.80881  Biso   1.000  H
  C120     1.0000 0.65151  0.48581  0.83473  Biso   1.000  C
  O39      1.0000 0.61689  0.13500  0.98755  Biso   1.000  O
  H115     1.0000 0.53100  0.27479  0.00109  Biso   1.000  H
  H116     1.0000 0.53781  0.22042  0.92435  Biso   1.000  H
  C121     1.0000 0.68861  0.08898  0.21113  Biso   1.000  C
  N81      1.0000 0.79788  0.17281  0.35024  Biso   1.000  N
  H117     1.0000 0.79420  0.25052  0.43910  Biso   1.000  H
  H118     1.0000 0.76329  0.18848  0.45231  Biso   1.000  H
  O40      1.0000 0.56670  0.23890  0.77254  Biso   1.000  O
  C122     1.0000 0.57581  0.35808  0.66306  Biso   1.000  C
  N82      1.0000 0.68291  0.45779  0.78096  Biso   1.000  N
  H119     1.0000 0.61924  0.50712  0.77793  Biso   1.000  H
  H120     1.0000 0.67332  0.51938  0.88791  Biso   1.000  H
  N83      1.0000 0.74487  0.08008  0.23697  Biso   1.000  N
  H121     1.0000 0.66650  0.05942  0.15021  Biso   1.000  H
  H122     1.0000 0.68340  0.07701  0.27627  Biso   1.000  H
  C123     1.0000 0.79121  0.10198  0.34132  Biso   1.000  C
  C124     1.0000 0.84449  0.19298  0.34628  Biso   1.000  C
  H123     1.0000 0.55732  0.32042  0.61644  Biso   1.000  H
  H124     1.0000 0.55662  0.39758  0.62385  Biso   1.000  H
  N84      1.0000 0.63110  0.36050  0.67610  Biso   1.000  N
  C125     1.0000 0.65872  0.42239  0.67383  Biso   1.000  C
  C126     1.0000 0.73873  0.45388  0.83321  Biso   1.000  C
  C127     1.0000 0.76129  0.04612  0.16679  Biso   1.000  C
  H125     1.0000 0.79020  0.08270  0.40813  Biso   1.000  H
  C128     1.0000 0.84130  0.07761  0.32617  Biso   1.000  C
  O41      1.0000 0.86237  0.25022  0.36092  Biso   1.000  O
  N85      1.0000 0.86892  0.13950  0.32390  Biso   1.000  N
  C129     1.0000 0.65553  0.30702  0.65372  Biso   1.000  C
  C130     1.0000 0.70883  0.39802  0.65877  Biso   1.000  C
  H126     1.0000 0.63503  0.45121  0.61181  Biso   1.000  H
  O42      1.0000 0.76989  0.47642  0.92553  Biso   1.000  O
  N86      1.0000 0.75514  0.41992  0.76303  Biso   1.000  N
  O43      1.0000 0.73012  0.02358  0.07447  Biso   1.000  O
  N87      1.0000 0.81713  0.04221  0.21913  Biso   1.000  N
  H127     1.0000 0.86499  0.04879  0.38819  Biso   1.000  H
  C131     1.0000 0.92419  0.14192  0.33702  Biso   1.000  C
  N88      1.0000 0.70215  0.32719  0.64985  Biso   1.000  N
  O44      1.0000 0.63766  0.24978  0.63916  Biso   1.000  O
  H128     1.0000 0.70984  0.41730  0.59195  Biso   1.000  H
  C132     1.0000 0.81143  0.41102  0.78895  Biso   1.000  C
  C133     1.0000 0.84851  0.01419  0.16527  Biso   1.000  C
  N89      1.0000 0.92771  0.14681  0.23141  Biso   1.000  N
  H129     1.0000 0.94270  0.17958  0.38356  Biso   1.000  H
  H130     1.0000 0.94342  0.10242  0.37624  Biso   1.000  H
  C134     1.0000 0.72993  0.28552  0.60163  Biso   1.000  C
  N90      1.0000 0.83066  0.34301  0.82177  Biso   1.000  N
  H131     1.0000 0.83354  0.44058  0.84987  Biso   1.000  H
  H132     1.0000 0.81662  0.42299  0.72373  Biso   1.000  H
  N91      1.0000 0.86503  0.06362  0.10654  Biso   1.000  N
  H133     1.0000 0.88078  0.99288  0.22207  Biso   1.000  H
  H134     1.0000 0.82669  0.98062  0.11209  Biso   1.000  H
  C135     1.0000 0.92040  0.09110  0.15602  Biso   1.000  C
  C136     1.0000 0.92968  0.20682  0.18336  Biso   1.000  C
  N92      1.0000 0.78107  0.25798  0.68267  Biso   1.000  N
  H135     1.0000 0.70582  0.24948  0.56090  Biso   1.000  H
  H136     1.0000 0.73674  0.31152  0.54777  Biso   1.000  H
  C137     1.0000 0.83113  0.29501  0.74014  Biso   1.000  C
  C138     1.0000 0.87181  0.33000  0.92830  Biso   1.000  C
  C139     1.0000 0.84061  0.06639  0.98990  Biso   1.000  C
  C140     1.0000 0.92379  0.12378  0.05352  Biso   1.000  C
  H137     1.0000 0.94831  0.05699  0.19119  Biso   1.000  H
  O45      1.0000 0.93332  0.26110  0.22746  Biso   1.000  O
  N93      1.0000 0.92725  0.19441  0.07961  Biso   1.000  N
  C141     1.0000 0.78500  0.19560  0.72912  Biso   1.000  C
  H138     1.0000 0.84283  0.31508  0.68713  Biso   1.000  H
  C142     1.0000 0.87241  0.24192  0.81546  Biso   1.000  C
  N94      1.0000 0.89760  0.27331  0.92401  Biso   1.000  N
  O46      1.0000 0.88311  0.36500  0.01254  Biso   1.000  O
  O47      1.0000 0.79735  0.04068  0.92654  Biso   1.000  O
  N95      1.0000 0.87333  0.10371  0.95843  Biso   1.000  N
  H139     1.0000 0.95590  0.10850  0.04553  Biso   1.000  H
  C143     1.0000 0.94340  0.24449  0.02272  Biso   1.000  C
  N96      1.0000 0.83687  0.18631  0.80864  Biso   1.000  N
  O48      1.0000 0.74675  0.15546  0.70000  Biso   1.000  O
  H140     1.0000 0.89911  0.23020  0.78802  Biso   1.000  H
  C144     1.0000 0.85884  0.11908  0.84297  Biso   1.000  C
  H141     1.0000 0.96223  0.27958  0.07574  Biso   1.000  H
  H142     1.0000 0.96902  0.22521  0.99891  Biso   1.000  H
  H143     1.0000 0.83195  0.08739  0.79518  Biso   1.000  H
  H144     1.0000 0.89091  0.11399  0.83044  Biso   1.000  H
  Ne1      1.0000 0.25000  0.25000  0.50000  Biso   1.000  Ne
  He1      1.0000 0.31368  0.12079  0.65003  Biso   1.000  He
  He2      1.0000 0.18005  0.38862  0.33628  Biso   1.000  He
  Ar1      1.0000 0.25000  0.25000  0.50000  Biso   1.000  Ar
  Ne2      1.0000 0.25001  0.75000  0.00002  Biso   1.000  Ne
  He3      1.0000 0.30537  0.86678  0.13193  Biso   1.000  He
  He4      1.0000 0.19179  0.62894  0.86185  Biso   1.000  He
  Ar2      1.0000 0.25001  0.75000  0.00002  Biso   1.000  Ar
  Ne3      1.0000 0.75001  0.25000  0.00002  Biso   1.000  Ne
  He5      1.0000 0.80536  0.36678  0.13191  Biso   1.000  He
  He6      1.0000 0.69177  0.12894  0.86186  Biso   1.000  He
  Ar3      1.0000 0.75001  0.25000  0.00002  Biso   1.000  Ar
  Ne4      1.0000 0.75000  0.75000  0.50000  Biso   1.000  Ne
  He7      1.0000 0.81366  0.62079  0.65003  Biso   1.000  He
  He8      1.0000 0.68004  0.88863  0.33627  Biso   1.000  He
  Ar4      1.0000 0.75000  0.75000  0.50000  Biso   1.000  Ar
