data_image0
_cell_length_a       12.314
_cell_length_b       19.618
_cell_length_c       14.383
_cell_angle_alpha    90
_cell_angle_beta     97.75
_cell_angle_gamma    90

_symmetry_space_group_name_H-M    "P 1"
_symmetry_int_tables_number       1

loop_
  _symmetry_equiv_pos_as_xyz
  'x, y, z'

loop_
  _atom_site_label
  _atom_site_occupancy
  _atom_site_fract_x
  _atom_site_fract_y
  _atom_site_fract_z
  _atom_site_thermal_displace_type
  _atom_site_B_iso_or_equiv
  _atom_site_type_symbol
  C1       1.0000 0.48007  0.32501  0.69683  Biso   1.000  C
  N1       1.0000 0.36929  0.32852  0.69318  Biso   1.000  N
  N2       1.0000 0.50289  0.28530  0.62365  Biso   1.000  N
  O1       1.0000 0.54777  0.35065  0.75648  Biso   1.000  O
  C2       1.0000 0.31200  0.29137  0.61509  Biso   1.000  C
  C3       1.0000 0.31538  0.36981  0.75669  Biso   1.000  C
  C4       1.0000 0.40541  0.25895  0.56878  Biso   1.000  C
  C5       1.0000 0.61172  0.26246  0.61340  Biso   1.000  C
  N3       1.0000 0.25603  0.33372  0.54176  Biso   1.000  N
  H1       1.0000 0.26322  0.25670  0.63586  Biso   1.000  H
  N4       1.0000 0.27725  0.43480  0.71823  Biso   1.000  N
  H2       1.0000 0.25348  0.34458  0.77409  Biso   1.000  H
  H3       1.0000 0.36614  0.37761  0.81338  Biso   1.000  H
  N5       1.0000 0.38688  0.28525  0.47433  Biso   1.000  N
  H4       1.0000 0.40279  0.20899  0.57018  Biso   1.000  H
  N6       1.0000 0.65788  0.29422  0.53629  Biso   1.000  N
  H5       1.0000 0.61008  0.21348  0.60400  Biso   1.000  H
  H6       1.0000 0.65958  0.27169  0.67129  Biso   1.000  H
  C6       1.0000 0.29858  0.32643  0.45925  Biso   1.000  C
  C7       1.0000 0.14588  0.35911  0.54359  Biso   1.000  C
  C8       1.0000 0.16582  0.44750  0.67536  Biso   1.000  C
  C9       1.0000 0.32869  0.49399  0.75198  Biso   1.000  C
  C10      1.0000 0.43863  0.25772  0.39764  Biso   1.000  C
  C11      1.0000 0.64359  0.26873  0.44142  Biso   1.000  C
  C12      1.0000 0.73602  0.34295  0.55131  Biso   1.000  C
  O2       1.0000 0.26269  0.35340  0.38452  Biso   1.000  O
  N7       1.0000 0.14214  0.42757  0.57762  Biso   1.000  N
  H7       1.0000 0.10631  0.35712  0.48058  Biso   1.000  H
  H8       1.0000 0.10863  0.32939  0.58295  Biso   1.000  H
  H9       1.0000 0.11258  0.42772  0.71269  Biso   1.000  H
  C13      1.0000 0.15766  0.52579  0.67255  Biso   1.000  C
  N8       1.0000 0.26050  0.54741  0.72378  Biso   1.000  N
  O3       1.0000 0.41827  0.49776  0.79844  Biso   1.000  O
  N9       1.0000 0.54142  0.28887  0.38669  Biso   1.000  N
  H10      1.0000 0.45023  0.20920  0.40788  Biso   1.000  H
  H11      1.0000 0.38908  0.26328  0.33982  Biso   1.000  H
  H12      1.0000 0.65542  0.21939  0.43918  Biso   1.000  H
  C14      1.0000 0.72986  0.30880  0.39518  Biso   1.000  C
  N10      1.0000 0.77712  0.35350  0.46893  Biso   1.000  N
  O4       1.0000 0.76440  0.37262  0.62533  Biso   1.000  O
  C15      1.0000 0.13248  0.48303  0.51938  Biso   1.000  C
  N11      1.0000 0.14504  0.54042  0.57334  Biso   1.000  N
  H13      1.0000 0.09517  0.54231  0.70167  Biso   1.000  H
  C16      1.0000 0.28772  0.61663  0.75219  Biso   1.000  C
  C17      1.0000 0.55607  0.32934  0.31217  Biso   1.000  C
  N12      1.0000 0.66622  0.34254  0.31702  Biso   1.000  N
  H14      1.0000 0.78498  0.27842  0.37441  Biso   1.000  H
  C18      1.0000 0.87537  0.39260  0.46472  Biso   1.000  C
  O5       1.0000 0.11417  0.48119  0.43406  Biso   1.000  O
  C19      1.0000 0.12468  0.60745  0.53531  Biso   1.000  C
  N13      1.0000 0.33382  0.65746  0.68294  Biso   1.000  N
  H15      1.0000 0.33981  0.61540  0.80917  Biso   1.000  H
  H16      1.0000 0.22192  0.63890  0.76707  Biso   1.000  H
  O6       1.0000 0.48490  0.34912  0.25113  Biso   1.000  O
  C20      1.0000 0.71232  0.38337  0.24776  Biso   1.000  C
  N14      1.0000 0.85493  0.45963  0.42669  Biso   1.000  N
  H17      1.0000 0.92183  0.36818  0.42662  Biso   1.000  H
  H18      1.0000 0.91498  0.39652  0.52745  Biso   1.000  H
  N15      1.0000 0.22283  0.64650  0.53103  Biso   1.000  N
  H19      1.0000 0.07822  0.63182  0.57341  Biso   1.000  H
  H20      1.0000 0.08498  0.60353  0.47251  Biso   1.000  H
  C21      1.0000 0.27010  0.69120  0.60477  Biso   1.000  C
  C22      1.0000 0.44388  0.67071  0.68778  Biso   1.000  C
  N16      1.0000 0.73946  0.45259  0.27618  Biso   1.000  N
  H21      1.0000 0.66023  0.38460  0.19079  Biso   1.000  H
  H22      1.0000 0.77811  0.36110  0.23289  Biso   1.000  H
  C23      1.0000 0.84229  0.47426  0.32740  Biso   1.000  C
  C24      1.0000 0.86748  0.51697  0.48058  Biso   1.000  C
  C25      1.0000 0.26402  0.65705  0.44865  Biso   1.000  C
  C26      1.0000 0.35637  0.73127  0.55853  Biso   1.000  C
  H23      1.0000 0.21499  0.72158  0.62561  Biso   1.000  H
  N17      1.0000 0.45862  0.71113  0.61326  Biso   1.000  N
  O7       1.0000 0.51506  0.65088  0.74883  Biso   1.000  O
  C27      1.0000 0.67126  0.50601  0.24797  Biso   1.000  C
  C28      1.0000 0.83422  0.55255  0.32459  Biso   1.000  C
  H24      1.0000 0.90479  0.45769  0.29828  Biso   1.000  H
  N18      1.0000 0.85782  0.57243  0.42234  Biso   1.000  N
  O8       1.0000 0.88579  0.51881  0.56590  Biso   1.000  O
  O9       1.0000 0.23555  0.62738  0.37462  Biso   1.000  O
  N19      1.0000 0.34207  0.70583  0.46367  Biso   1.000  N
  H25      1.0000 0.34462  0.78061  0.56078  Biso   1.000  H
  C29      1.0000 0.56141  0.74228  0.60232  Biso   1.000  C
  O10      1.0000 0.58177  0.50224  0.20152  Biso   1.000  O
  N20      1.0000 0.72279  0.56520  0.28172  Biso   1.000  N
  H26      1.0000 0.88738  0.57228  0.28727  Biso   1.000  H
  C30      1.0000 0.85408  0.64089  0.45637  Biso   1.000  C
  C31      1.0000 0.38832  0.73754  0.38655  Biso   1.000  C
  N21      1.0000 0.61316  0.71475  0.52562  Biso   1.000  N
  H27      1.0000 0.54981  0.79080  0.59207  Biso   1.000  H
  H28      1.0000 0.61089  0.73672  0.66021  Biso   1.000  H
  C32      1.0000 0.68457  0.63019  0.24327  Biso   1.000  C
  N22      1.0000 0.74393  0.66628  0.45819  Biso   1.000  N
  H29      1.0000 0.89373  0.64293  0.51938  Biso   1.000  H
  H30      1.0000 0.89141  0.67061  0.41701  Biso   1.000  H
  N23      1.0000 0.49707  0.71470  0.37631  Biso   1.000  N
  H31      1.0000 0.38988  0.78652  0.39595  Biso   1.000  H
  H32      1.0000 0.34038  0.72831  0.32866  Biso   1.000  H
  C33      1.0000 0.59463  0.74105  0.43118  Biso   1.000  C
  C34      1.0000 0.70138  0.67362  0.54071  Biso   1.000  C
  N24      1.0000 0.63066  0.67148  0.30677  Biso   1.000  N
  H33      1.0000 0.74647  0.65542  0.22587  Biso   1.000  H
  H34      1.0000 0.63390  0.62239  0.18658  Biso   1.000  H
  C35      1.0000 0.68795  0.70869  0.38487  Biso   1.000  C
  C36      1.0000 0.51989  0.67504  0.30312  Biso   1.000  C
  H35      1.0000 0.59717  0.79101  0.42978  Biso   1.000  H
  O11      1.0000 0.73726  0.64660  0.61544  Biso   1.000  O
  H36      1.0000 0.73682  0.74330  0.36410  Biso   1.000  H
  O12      1.0000 0.45227  0.64935  0.24348  Biso   1.000  O
  C37      1.0000 0.55613  0.17066  0.81212  Biso   1.000  C
  O13      1.0000 0.48497  0.15088  0.75114  Biso   1.000  O
  N25      1.0000 0.54140  0.21113  0.88671  Biso   1.000  N
  N26      1.0000 0.66621  0.15746  0.81703  Biso   1.000  N
  C38      1.0000 0.64357  0.23127  0.94144  Biso   1.000  C
  C39      1.0000 0.43861  0.24228  0.89765  Biso   1.000  C
  C40      1.0000 0.72992  0.19120  0.89520  Biso   1.000  C
  C41      1.0000 0.71231  0.11663  0.74777  Biso   1.000  C
  H37      1.0000 0.65540  0.28061  0.93919  Biso   1.000  H
  N27      1.0000 0.65787  0.20578  0.03630  Biso   1.000  N
  N28      1.0000 0.38686  0.21475  0.97435  Biso   1.000  N
  H38      1.0000 0.45021  0.29080  0.90790  Biso   1.000  H
  H39      1.0000 0.38913  0.23672  0.83976  Biso   1.000  H
  N29      1.0000 0.77711  0.14650  0.96894  Biso   1.000  N
  H40      1.0000 0.78503  0.22158  0.87436  Biso   1.000  H
  N30      1.0000 0.73952  0.04741  0.77619  Biso   1.000  N
  H41      1.0000 0.66021  0.11540  0.69080  Biso   1.000  H
  H42      1.0000 0.77810  0.13890  0.73290  Biso   1.000  H
  C42      1.0000 0.73592  0.15705  0.05132  Biso   1.000  C
  C43      1.0000 0.61162  0.23754  0.11342  Biso   1.000  C
  C44      1.0000 0.29864  0.17362  0.95919  Biso   1.000  C
  C45      1.0000 0.40539  0.24105  0.06879  Biso   1.000  C
  C46      1.0000 0.87535  0.10745  0.96466  Biso   1.000  C
  C47      1.0000 0.84228  0.02579  0.82741  Biso   1.000  C
  C48      1.0000 0.67133  0.99399  0.74798  Biso   1.000  C
  O14      1.0000 0.76440  0.12738  0.12542  Biso   1.000  O
  N31      1.0000 0.50288  0.21470  0.12366  Biso   1.000  N
  H43      1.0000 0.61006  0.28652  0.10401  Biso   1.000  H
  H44      1.0000 0.65956  0.22831  0.17131  Biso   1.000  H
  O15      1.0000 0.26267  0.14660  0.88446  Biso   1.000  O
  N32      1.0000 0.25602  0.16628  0.04178  Biso   1.000  N
  H45      1.0000 0.40277  0.29101  0.07019  Biso   1.000  H
  C49      1.0000 0.31200  0.20869  0.11517  Biso   1.000  C
  N33      1.0000 0.85498  0.04042  0.92663  Biso   1.000  N
  H46      1.0000 0.92181  0.13182  0.92656  Biso   1.000  H
  H47      1.0000 0.91497  0.10348  0.02753  Biso   1.000  H
  H48      1.0000 0.90477  0.04231  0.79829  Biso   1.000  H
  C50      1.0000 0.83420  0.94750  0.82461  Biso   1.000  C
  O16      1.0000 0.58175  0.99776  0.70153  Biso   1.000  O
  N34      1.0000 0.72277  0.93480  0.78174  Biso   1.000  N
  C51      1.0000 0.48005  0.17504  0.19685  Biso   1.000  C
  C52      1.0000 0.14586  0.14089  0.04360  Biso   1.000  C
  N35      1.0000 0.36928  0.17148  0.19320  Biso   1.000  N
  H49      1.0000 0.26313  0.24330  0.13594  Biso   1.000  H
  C53      1.0000 0.86746  0.98303  0.98059  Biso   1.000  C
  N36      1.0000 0.85788  0.92757  0.92235  Biso   1.000  N
  H50      1.0000 0.88736  0.92772  0.78728  Biso   1.000  H
  C54      1.0000 0.68456  0.86981  0.74328  Biso   1.000  C
  O17      1.0000 0.54767  0.14935  0.25649  Biso   1.000  O
  H51      1.0000 0.10629  0.14288  0.98059  Biso   1.000  H
  N37      1.0000 0.14214  0.07243  0.07770  Biso   1.000  N
  H52      1.0000 0.10854  0.17061  0.08303  Biso   1.000  H
  C55      1.0000 0.31537  0.13019  0.25670  Biso   1.000  C
  O18      1.0000 0.88578  0.98124  0.06598  Biso   1.000  O
  C56      1.0000 0.85407  0.85911  0.95638  Biso   1.000  C
  N38      1.0000 0.63065  0.82852  0.80679  Biso   1.000  N
  H53      1.0000 0.74646  0.84463  0.72588  Biso   1.000  H
  H54      1.0000 0.63389  0.87761  0.68659  Biso   1.000  H
  C57      1.0000 0.13247  0.01697  0.01939  Biso   1.000  C
  C58      1.0000 0.16580  0.05255  0.17537  Biso   1.000  C
  N39      1.0000 0.27715  0.06520  0.21825  Biso   1.000  N
  H55      1.0000 0.25347  0.15542  0.27410  Biso   1.000  H
  H56      1.0000 0.36604  0.12239  0.31339  Biso   1.000  H
  N40      1.0000 0.74399  0.83372  0.95821  Biso   1.000  N
  H57      1.0000 0.89138  0.82939  0.91695  Biso   1.000  H
  H58      1.0000 0.89363  0.85712  0.01939  Biso   1.000  H
  C59      1.0000 0.51987  0.82501  0.80314  Biso   1.000  C
  C60      1.0000 0.68802  0.79137  0.88488  Biso   1.000  C
  O19      1.0000 0.11422  0.01881  0.93400  Biso   1.000  O
  N41      1.0000 0.14502  0.95963  0.07335  Biso   1.000  N
  C61      1.0000 0.15766  0.97426  0.17264  Biso   1.000  C
  H59      1.0000 0.11256  0.07228  0.21270  Biso   1.000  H
  C62      1.0000 0.32869  0.00601  0.25207  Biso   1.000  C
  C63      1.0000 0.70137  0.82643  0.04079  Biso   1.000  C
  O20      1.0000 0.45225  0.85065  0.74349  Biso   1.000  O
  N42      1.0000 0.49705  0.78530  0.87632  Biso   1.000  N
  C64      1.0000 0.59462  0.75895  0.93119  Biso   1.000  C
  H60      1.0000 0.73679  0.75670  0.86404  Biso   1.000  H
  C65      1.0000 0.12458  0.89260  0.03532  Biso   1.000  C
  N43      1.0000 0.26049  0.95259  0.22379  Biso   1.000  N
  H61      1.0000 0.09516  0.95769  0.20169  Biso   1.000  H
  O21      1.0000 0.41826  0.00224  0.29845  Biso   1.000  O
  O22      1.0000 0.73726  0.85340  0.11552  Biso   1.000  O
  N44      1.0000 0.61308  0.78525  0.02571  Biso   1.000  N
  C66      1.0000 0.38830  0.76246  0.88657  Biso   1.000  C
  H62      1.0000 0.59724  0.70899  0.92979  Biso   1.000  H
  H63      1.0000 0.08504  0.89652  0.97245  Biso   1.000  H
  N45      1.0000 0.22282  0.85350  0.03104  Biso   1.000  N
  H64      1.0000 0.07820  0.86823  0.07342  Biso   1.000  H
  C67      1.0000 0.28770  0.88337  0.25221  Biso   1.000  C
  C68      1.0000 0.56140  0.75772  0.10233  Biso   1.000  C
  N46      1.0000 0.34214  0.79422  0.96368  Biso   1.000  N
  H65      1.0000 0.38986  0.71353  0.89597  Biso   1.000  H
  H66      1.0000 0.34037  0.77169  0.82868  Biso   1.000  H
  C69      1.0000 0.26401  0.84300  0.94866  Biso   1.000  C
  C70      1.0000 0.27008  0.80885  0.10479  Biso   1.000  C
  N47      1.0000 0.33380  0.84259  0.18295  Biso   1.000  N
  H67      1.0000 0.33980  0.88460  0.30918  Biso   1.000  H
  H68      1.0000 0.22183  0.86110  0.26708  Biso   1.000  H
  N48      1.0000 0.45862  0.78887  0.11335  Biso   1.000  N
  H69      1.0000 0.54981  0.70920  0.09216  Biso   1.000  H
  H70      1.0000 0.61087  0.76333  0.16022  Biso   1.000  H
  C71      1.0000 0.35636  0.76873  0.05862  Biso   1.000  C
  O23      1.0000 0.23553  0.87262  0.87457  Biso   1.000  O
  H71      1.0000 0.21498  0.77842  0.12563  Biso   1.000  H
  C72      1.0000 0.44388  0.82934  0.18786  Biso   1.000  C
  H72      1.0000 0.34452  0.71939  0.06079  Biso   1.000  H
  O24      1.0000 0.51505  0.84912  0.24891  Biso   1.000  O
  Ne1      1.0000 0.49999  0.50001  0.49998  Biso   1.000  Ne
  He1      1.0000 0.63488  0.50627  0.69015  Biso   1.000  He
  He2      1.0000 0.36976  0.49398  0.31549  Biso   1.000  He
  Ar1      1.0000 0.50000  0.50001  0.49998  Biso   1.000  Ar
  Ne2      1.0000 0.49999  0.00001  1.00000  Biso   1.000  Ne
  He3      1.0000 0.62559  0.99423  0.17881  Biso   1.000  He
  He4      1.0000 0.36967  0.00602  0.81538  Biso   1.000  He
  Ar2      1.0000 0.49998  0.00001  1.00000  Biso   1.000  Ar
