data_image0
_cell_length_a       7.744
_cell_length_b       24.157
_cell_length_c       14.585
_cell_angle_alpha    90
_cell_angle_beta     91.66
_cell_angle_gamma    90

_symmetry_space_group_name_H-M    "P 1"
_symmetry_int_tables_number       1

loop_
  _symmetry_equiv_pos_as_xyz
  'x, y, z'

loop_
  _atom_site_label
  _atom_site_occupancy
  _atom_site_fract_x
  _atom_site_fract_y
  _atom_site_fract_z
  _atom_site_thermal_displace_type
  _atom_site_B_iso_or_equiv
  _atom_site_type_symbol
  C1       1.0000 0.09033  0.64540  0.16682  Biso   1.000  C
  C2       1.0000 0.04733  0.61481  0.08890  Biso   1.000  C
  C3       1.0000 0.11168  0.61970  0.25050  Biso   1.000  C
  H1       1.0000 0.10494  0.68349  0.16243  Biso   1.000  H
  H2       1.0000 0.10507  0.68349  0.16243  Biso   1.000  H
  C4       1.0000 0.02911  0.55802  0.09569  Biso   1.000  C
  H3       1.0000 0.03083  0.63228  0.03251  Biso   1.000  H
  C5       1.0000 0.09045  0.64540  0.16682  Biso   1.000  C
  C6       1.0000 0.09654  0.56282  0.25708  Biso   1.000  C
  C7       1.0000 0.09667  0.56282  0.25708  Biso   1.000  C
  O1       1.0000 0.15255  0.64751  0.33226  Biso   1.000  O
  O2       1.0000 0.98225  0.52362  0.02250  Biso   1.000  O
  C8       1.0000 0.05466  0.53219  0.18060  Biso   1.000  C
  H4       1.0000 0.11510  0.54531  0.31326  Biso   1.000  H
  C9       1.0000 0.16529  0.70460  0.32657  Biso   1.000  C
  C10      1.0000 0.94617  0.54936  0.93882  Biso   1.000  C
  H5       1.0000 0.04291  0.49402  0.18527  Biso   1.000  H
  C11      1.0000 0.01824  0.73681  0.32959  Biso   1.000  C
  C12      1.0000 0.32688  0.72931  0.32273  Biso   1.000  C
  C13      1.0000 0.77860  0.56009  0.91110  Biso   1.000  C
  C14      1.0000 0.08289  0.56360  0.88380  Biso   1.000  C
  C15      1.0000 0.33926  0.78710  0.31539  Biso   1.000  C
  C16      1.0000 0.48975  0.69649  0.32568  Biso   1.000  C
  C17      1.0000 0.33939  0.78710  0.31539  Biso   1.000  C
  C18      1.0000 0.48988  0.69649  0.32568  Biso   1.000  C
  H6       1.0000 0.91101  0.72000  0.33569  Biso   1.000  H
  C19      1.0000 0.02863  0.79410  0.32348  Biso   1.000  C
  C20      1.0000 0.74815  0.58658  0.82639  Biso   1.000  C
  C21      1.0000 0.62318  0.54680  0.96419  Biso   1.000  C
  H7       1.0000 0.19539  0.55549  0.90328  Biso   1.000  H
  C22      1.0000 0.05365  0.58981  0.79998  Biso   1.000  C
  H8       1.0000 0.44665  0.80411  0.31203  Biso   1.000  H
  C23      1.0000 0.19000  0.81819  0.31319  Biso   1.000  C
  O3       1.0000 0.48954  0.65790  0.26271  Biso   1.000  O
  O4       1.0000 0.60727  0.70439  0.38041  Biso   1.000  O
  C24      1.0000 0.86575  0.82742  0.32520  Biso   1.000  C
  C25      1.0000 0.88337  0.60161  0.77241  Biso   1.000  C
  H9       1.0000 0.63536  0.59399  0.80650  Biso   1.000  H
  O5       1.0000 0.49957  0.57681  0.96852  Biso   1.000  O
  O6       1.0000 0.62397  0.49609  0.99767  Biso   1.000  O
  O7       1.0000 0.49944  0.57681  0.96852  Biso   1.000  O
  O8       1.0000 0.62384  0.49609  0.99767  Biso   1.000  O
  C26      1.0000 0.21177  0.60210  0.74662  Biso   1.000  C
  O9       1.0000 0.20589  0.87498  0.30153  Biso   1.000  O
  O10      1.0000 0.20601  0.87498  0.30146  Biso   1.000  O
  C27      1.0000 0.63647  0.62019  0.26223  Biso   1.000  C
  C28      1.0000 0.63659  0.62019  0.26216  Biso   1.000  C
  O11      1.0000 0.88427  0.87519  0.37589  Biso   1.000  O
  O12      1.0000 0.73752  0.81649  0.28020  Biso   1.000  O
  O13      1.0000 0.73739  0.81649  0.28020  Biso   1.000  O
  O14      1.0000 0.86602  0.85420  0.40099  Biso   1.000  O
  O15      1.0000 0.84482  0.62669  0.68818  Biso   1.000  O
  C29      1.0000 0.47222  0.47680  0.04472  Biso   1.000  C
  O16      1.0000 0.19233  0.64300  0.68852  Biso   1.000  O
  O17      1.0000 0.34277  0.57702  0.75478  Biso   1.000  O
  C30      1.0000 0.12840  0.89651  0.22087  Biso   1.000  C
  H10      1.0000 0.69423  0.62011  0.32211  Biso   1.000  H
  C31      1.0000 0.58089  0.56671  0.24007  Biso   1.000  C
  H11      1.0000 0.71848  0.63269  0.21751  Biso   1.000  H
  C32      1.0000 0.73877  0.91319  0.38117  Biso   1.000  C
  C33      1.0000 0.70406  0.88500  0.40998  Biso   1.000  C
  C34      1.0000 0.82383  0.68432  0.68928  Biso   1.000  C
  H12      1.0000 0.40525  0.50830  0.06448  Biso   1.000  H
  C35      1.0000 0.36350  0.44120  0.98333  Biso   1.000  C
  C36      1.0000 0.36337  0.44120  0.98326  Biso   1.000  C
  H13      1.0000 0.50823  0.45589  0.09870  Biso   1.000  H
  H14      1.0000 0.50810  0.45589  0.09870  Biso   1.000  H
  C37      1.0000 0.34600  0.65931  0.63660  Biso   1.000  C
  C38      1.0000 0.10133  0.86509  0.14363  Biso   1.000  C
  C39      1.0000 0.08621  0.95210  0.22148  Biso   1.000  C
  C40      1.0000 0.10145  0.86509  0.14356  Biso   1.000  C
  H15      1.0000 0.48062  0.55789  0.27437  Biso   1.000  H
  H16      1.0000 0.55271  0.56460  0.17567  Biso   1.000  H
  H17      1.0000 0.67146  0.54080  0.25510  Biso   1.000  H
  H18      1.0000 0.78208  0.95041  0.39159  Biso   1.000  H
  H19      1.0000 0.67465  0.91299  0.32307  Biso   1.000  H
  C41      1.0000 0.62154  0.89858  0.45490  Biso   1.000  C
  C42      1.0000 0.62141  0.89858  0.45490  Biso   1.000  C
  H20      1.0000 0.66108  0.89829  0.35119  Biso   1.000  H
  C43      1.0000 0.75799  0.93298  0.47308  Biso   1.000  C
  H21      1.0000 0.56049  0.86530  0.43892  Biso   1.000  H
  H22      1.0000 0.56036  0.86530  0.43892  Biso   1.000  H
  H23      1.0000 0.61660  0.86219  0.43783  Biso   1.000  H
  C44      1.0000 0.79190  0.70948  0.60587  Biso   1.000  C
  C45      1.0000 0.79177  0.70948  0.60587  Biso   1.000  C
  C46      1.0000 0.83028  0.71470  0.76960  Biso   1.000  C
  H24      1.0000 0.33249  0.46132  0.92853  Biso   1.000  H
  H25      1.0000 0.42657  0.40862  0.96769  Biso   1.000  H
  H26      1.0000 0.26020  0.43089  0.01420  Biso   1.000  H
  H27      1.0000 0.45021  0.65029  0.67199  Biso   1.000  H
  H28      1.0000 0.34440  0.69889  0.62610  Biso   1.000  H
  C47      1.0000 0.34592  0.63042  0.54983  Biso   1.000  C
  C48      1.0000 0.34592  0.63042  0.54976  Biso   1.000  C
  H29      1.0000 0.10164  0.97289  0.27478  Biso   1.000  H
  H30      1.0000 0.10177  0.97289  0.27478  Biso   1.000  H
  C49      1.0000 0.02014  0.97649  0.14199  Biso   1.000  C
  C50      1.0000 0.03369  0.88980  0.06372  Biso   1.000  C
  H31      1.0000 0.12797  0.82759  0.14432  Biso   1.000  H
  H32      1.0000 0.68736  0.89291  0.51101  Biso   1.000  H
  H33      1.0000 0.54050  0.92810  0.46307  Biso   1.000  H
  H34      1.0000 0.68723  0.89291  0.51101  Biso   1.000  H
  H35      1.0000 0.54037  0.92810  0.46307  Biso   1.000  H
  H36      1.0000 0.79967  0.96299  0.43693  Biso   1.000  H
  H37      1.0000 0.65948  0.94519  0.50649  Biso   1.000  H
  H38      1.0000 0.84708  0.92102  0.51547  Biso   1.000  H
  C51      1.0000 0.76845  0.76620  0.60210  Biso   1.000  C
  H39      1.0000 0.78601  0.68850  0.55237  Biso   1.000  H
  C52      1.0000 0.80783  0.77170  0.76528  Biso   1.000  C
  H40      1.0000 0.84948  0.69731  0.82578  Biso   1.000  H
  C53      1.0000 0.80770  0.77170  0.76528  Biso   1.000  C
  H41      1.0000 0.44388  0.64201  0.51581  Biso   1.000  H
  H42      1.0000 0.35219  0.59130  0.56060  Biso   1.000  H
  H43      1.0000 0.24178  0.63890  0.51553  Biso   1.000  H
  H44      1.0000 0.24164  0.63890  0.51546  Biso   1.000  H
  C54      1.0000 0.99342  0.94498  0.06400  Biso   1.000  C
  C55      1.0000 0.99329  0.94498  0.06400  Biso   1.000  C
  H45      1.0000 0.99402  0.01412  0.14123  Biso   1.000  H
  H46      1.0000 0.99388  0.01412  0.14116  Biso   1.000  H
  H47      1.0000 0.01621  0.86890  0.01070  Biso   1.000  H
  C56      1.0000 0.77796  0.79741  0.68180  Biso   1.000  C
  H48      1.0000 0.74640  0.78342  0.54592  Biso   1.000  H
  H49      1.0000 0.74627  0.78342  0.54592  Biso   1.000  H
  H50      1.0000 0.81281  0.79261  0.81878  Biso   1.000  H
  H51      1.0000 0.81269  0.79261  0.81878  Biso   1.000  H
  O18      1.0000 0.92737  0.97326  0.98710  Biso   1.000  O
  O19      1.0000 0.92724  0.97326  0.98710  Biso   1.000  O
  O20      1.0000 0.75112  0.85404  0.67268  Biso   1.000  O
  C57      1.0000 0.88387  0.94213  0.90932  Biso   1.000  C
  C58      1.0000 0.88374  0.94213  0.90932  Biso   1.000  C
  C59      1.0000 0.79896  0.88558  0.74950  Biso   1.000  C
  C60      1.0000 0.71387  0.92880  0.88929  Biso   1.000  C
  C61      1.0000 0.71374  0.92880  0.88929  Biso   1.000  C
  C62      1.0000 0.01032  0.92979  0.84827  Biso   1.000  C
  C63      1.0000 0.01019  0.92979  0.84827  Biso   1.000  C
  C64      1.0000 0.97090  0.90090  0.76720  Biso   1.000  C
  C65      1.0000 0.67300  0.90061  0.80767  Biso   1.000  C
  C66      1.0000 0.97077  0.90090  0.76720  Biso   1.000  C
  C67      1.0000 0.56921  0.94242  0.95020  Biso   1.000  C
  H52      1.0000 0.12349  0.94068  0.86110  Biso   1.000  H
  H53      1.0000 0.55857  0.89200  0.79313  Biso   1.000  H
  H54      1.0000 0.55844  0.89200  0.79313  Biso   1.000  H
  C68      1.0000 0.11897  0.88960  0.70718  Biso   1.000  C
  O21      1.0000 0.43128  0.95811  0.92393  Biso   1.000  O
  O22      1.0000 0.43128  0.95811  0.92386  Biso   1.000  O
  O23      1.0000 0.60958  0.94751  0.03683  Biso   1.000  O
  O24      1.0000 0.60957  0.94751  0.03677  Biso   1.000  O
  O25      1.0000 0.62233  0.91580  0.03622  Biso   1.000  O
  O26      1.0000 0.26510  0.89229  0.73242  Biso   1.000  O
  O27      1.0000 0.07277  0.87991  0.62020  Biso   1.000  O
  C69      1.0000 0.47564  0.96328  0.10028  Biso   1.000  C
  C70      1.0000 0.50205  0.92172  0.11091  Biso   1.000  C
  C71      1.0000 0.20905  0.86811  0.55710  Biso   1.000  C
  C72      1.0000 0.54502  0.95252  0.19329  Biso   1.000  C
  H55      1.0000 0.37183  0.94159  0.08862  Biso   1.000  H
  C73      1.0000 0.54490  0.95252  0.19329  Biso   1.000  C
  H56      1.0000 0.44710  0.00211  0.09308  Biso   1.000  H
  H57      1.0000 0.50584  0.00592  0.10947  Biso   1.000  H
  C74      1.0000 0.52498  0.97748  0.15481  Biso   1.000  C
  H58      1.0000 0.38480  0.91758  0.08732  Biso   1.000  H
  H59      1.0000 0.52414  0.89291  0.15612  Biso   1.000  H
  H60      1.0000 0.16911  0.87602  0.49482  Biso   1.000  H
  C75      1.0000 0.26072  0.80929  0.56451  Biso   1.000  C
  H61      1.0000 0.30808  0.89158  0.57109  Biso   1.000  H
  H62      1.0000 0.57747  0.91419  0.19871  Biso   1.000  H
  H63      1.0000 0.45870  0.96080  0.23712  Biso   1.000  H
  H64      1.0000 0.64484  0.97541  0.20502  Biso   1.000  H
  H65      1.0000 0.64471  0.97541  0.20502  Biso   1.000  H
  H66      1.0000 0.44313  0.98170  0.20262  Biso   1.000  H
  H67      1.0000 0.64014  0.98071  0.18047  Biso   1.000  H
  H68      1.0000 0.30190  0.80171  0.62590  Biso   1.000  H
  H69      1.0000 0.16281  0.78619  0.54990  Biso   1.000  H
  H70      1.0000 0.35075  0.80188  0.52232  Biso   1.000  H
  O28      1.0000 0.84267  0.42298  0.25482  Biso   1.000  O
  C76      1.0000 0.71154  0.39790  0.24659  Biso   1.000  C
  C77      1.0000 0.55356  0.41019  0.30002  Biso   1.000  C
  O29      1.0000 0.69223  0.35700  0.18849  Biso   1.000  O
  C78      1.0000 0.38328  0.39839  0.27238  Biso   1.000  C
  C79      1.0000 0.58266  0.43640  0.38377  Biso   1.000  C
  C80      1.0000 0.84591  0.34069  0.13657  Biso   1.000  C
  O30      1.0000 0.34472  0.37331  0.18822  Biso   1.000  O
  C81      1.0000 0.24805  0.41342  0.32643  Biso   1.000  C
  C82      1.0000 0.44607  0.45064  0.43879  Biso   1.000  C
  H71      1.0000 0.69517  0.44451  0.40332  Biso   1.000  H
  H72      1.0000 0.95011  0.34971  0.17203  Biso   1.000  H
  H73      1.0000 0.84430  0.30111  0.12607  Biso   1.000  H
  C83      1.0000 0.84582  0.36958  0.04980  Biso   1.000  C
  C84      1.0000 0.32373  0.31568  0.18931  Biso   1.000  C
  H74      1.0000 0.13526  0.40601  0.30647  Biso   1.000  H
  C85      1.0000 0.27850  0.43991  0.41107  Biso   1.000  C
  O31      1.0000 0.48241  0.47638  0.52247  Biso   1.000  O
  H75      1.0000 0.94378  0.35799  0.01578  Biso   1.000  H
  H76      1.0000 0.85209  0.40870  0.06057  Biso   1.000  H
  H77      1.0000 0.74155  0.36110  0.01550  Biso   1.000  H
  C86      1.0000 0.33018  0.28530  0.26957  Biso   1.000  C
  C87      1.0000 0.29168  0.29052  0.10591  Biso   1.000  C
  C88      1.0000 0.12308  0.45320  0.46423  Biso   1.000  C
  C89      1.0000 0.52914  0.44198  0.59572  Biso   1.000  C
  C90      1.0000 0.30761  0.22830  0.26532  Biso   1.000  C
  H78      1.0000 0.34939  0.30269  0.32581  Biso   1.000  H
  C91      1.0000 0.26836  0.23380  0.10213  Biso   1.000  C
  H79      1.0000 0.28592  0.31150  0.05240  Biso   1.000  H
  O32      1.0000 0.12375  0.50391  0.49771  Biso   1.000  O
  O33      1.0000 0.99935  0.42319  0.46849  Biso   1.000  O
  C92      1.0000 0.55469  0.46781  0.68057  Biso   1.000  C
  C93      1.0000 0.54737  0.38519  0.58893  Biso   1.000  C
  C94      1.0000 0.27787  0.20259  0.18177  Biso   1.000  C
  H80      1.0000 0.31259  0.20739  0.31882  Biso   1.000  H
  H81      1.0000 0.24618  0.21658  0.04589  Biso   1.000  H
  C95      1.0000 0.97238  0.52320  0.54469  Biso   1.000  C
  H82      1.0000 0.54294  0.50598  0.68531  Biso   1.000  H
  C96      1.0000 0.59671  0.43718  0.75712  Biso   1.000  C
  C97      1.0000 0.59049  0.35460  0.66679  Biso   1.000  C
  H83      1.0000 0.53086  0.36772  0.53248  Biso   1.000  H
  O34      1.0000 0.25103  0.14596  0.17272  Biso   1.000  O
  H84      1.0000 0.00826  0.54411  0.59867  Biso   1.000  H
  H85      1.0000 0.90541  0.49170  0.56452  Biso   1.000  H
  C98      1.0000 0.86327  0.55880  0.48330  Biso   1.000  C
  H86      1.0000 0.61514  0.45469  0.81330  Biso   1.000  H
  C99      1.0000 0.61171  0.38030  0.75047  Biso   1.000  C
  H87      1.0000 0.60510  0.31651  0.66240  Biso   1.000  H
  C100     1.0000 0.29886  0.11442  0.24947  Biso   1.000  C
  H88      1.0000 0.83239  0.53868  0.42850  Biso   1.000  H
  H89      1.0000 0.92647  0.59138  0.46773  Biso   1.000  H
  H90      1.0000 0.76036  0.56911  0.51417  Biso   1.000  H
  O35      1.0000 0.65259  0.35249  0.83230  Biso   1.000  O
  C101     1.0000 0.17291  0.09939  0.30771  Biso   1.000  C
  C102     1.0000 0.47067  0.09910  0.26717  Biso   1.000  C
  C103     1.0000 0.66532  0.29540  0.82661  Biso   1.000  C
  C104     1.0000 0.21365  0.07120  0.38933  Biso   1.000  C
  H91      1.0000 0.05835  0.10800  0.29310  Biso   1.000  H
  C105     1.0000 0.51009  0.07021  0.34831  Biso   1.000  C
  C106     1.0000 0.61887  0.11040  0.20722  Biso   1.000  C
  C107     1.0000 0.82691  0.27069  0.82270  Biso   1.000  C
  C108     1.0000 0.51827  0.26319  0.82962  Biso   1.000  C
  C109     1.0000 0.38364  0.05787  0.40929  Biso   1.000  C
  C110     1.0000 0.06911  0.05758  0.45017  Biso   1.000  C
  H92      1.0000 0.62339  0.05932  0.36107  Biso   1.000  H
  O36      1.0000 0.76500  0.10771  0.23239  Biso   1.000  O
  O37      1.0000 0.57267  0.12009  0.12017  Biso   1.000  O
  C111     1.0000 0.83943  0.21290  0.81543  Biso   1.000  C
  C112     1.0000 0.98991  0.30351  0.82572  Biso   1.000  C
  C113     1.0000 0.52853  0.20590  0.82352  Biso   1.000  C
  H93      1.0000 0.41117  0.28000  0.83573  Biso   1.000  H
  O38      1.0000 0.42714  0.02674  0.48707  Biso   1.000  O
  O39      1.0000 0.10961  0.05249  0.53680  Biso   1.000  O
  O40      1.0000 0.12249  0.08420  0.53619  Biso   1.000  O
  O41      1.0000 0.93119  0.04189  0.42390  Biso   1.000  O
  C114     1.0000 0.70895  0.13189  0.05707  Biso   1.000  C
  C115     1.0000 0.69003  0.18181  0.81323  Biso   1.000  C
  H94      1.0000 0.94668  0.19589  0.81200  Biso   1.000  H
  O42      1.0000 0.98957  0.34210  0.76268  Biso   1.000  O
  O43      1.0000 0.10730  0.29561  0.88038  Biso   1.000  O
  C116     1.0000 0.36592  0.17258  0.82523  Biso   1.000  C
  C117     1.0000 0.49345  0.05502  0.56404  Biso   1.000  C
  C118     1.0000 0.00208  0.07828  0.61088  Biso   1.000  C
  C119     1.0000 0.97581  0.03672  0.60032  Biso   1.000  C
  H95      1.0000 0.80799  0.10842  0.07113  Biso   1.000  H
  C120     1.0000 0.76062  0.19071  0.06448  Biso   1.000  C
  H96      1.0000 0.66927  0.12398  0.99479  Biso   1.000  H
  O44      1.0000 0.70592  0.12502  0.80150  Biso   1.000  O
  C121     1.0000 0.13650  0.37981  0.76220  Biso   1.000  C
  O45      1.0000 0.23755  0.18351  0.78017  Biso   1.000  O
  O46      1.0000 0.38444  0.12481  0.87592  Biso   1.000  O
  O47      1.0000 0.36605  0.14580  0.90103  Biso   1.000  O
  C122     1.0000 0.52018  0.02351  0.64202  Biso   1.000  C
  C123     1.0000 0.53372  0.11020  0.56369  Biso   1.000  C
  C124     1.0000 0.04506  0.04748  0.69333  Biso   1.000  C
  C125     1.0000 0.02514  0.02252  0.65478  Biso   1.000  C
  H97      1.0000 0.02430  0.10709  0.65609  Biso   1.000  H
  H98      1.0000 0.87199  0.05841  0.58859  Biso   1.000  H
  H99      1.0000 0.88483  0.08242  0.58729  Biso   1.000  H
  H100     1.0000 0.94726  0.99789  0.59312  Biso   1.000  H
  H101     1.0000 0.00601  0.99408  0.60951  Biso   1.000  H
  H102     1.0000 0.85065  0.19812  0.02229  Biso   1.000  H
  H103     1.0000 0.80181  0.19829  0.12587  Biso   1.000  H
  H104     1.0000 0.66272  0.21381  0.04987  Biso   1.000  H
  C126     1.0000 0.62843  0.10349  0.72091  Biso   1.000  C
  H105     1.0000 0.19426  0.37989  0.82208  Biso   1.000  H
  H106     1.0000 0.21851  0.36731  0.71748  Biso   1.000  H
  C127     1.0000 0.08093  0.43329  0.74011  Biso   1.000  C
  C128     1.0000 0.23894  0.08681  0.88121  Biso   1.000  C
  C129     1.0000 0.20409  0.11500  0.91002  Biso   1.000  C
  C130     1.0000 0.58611  0.04790  0.72152  Biso   1.000  C
  H107     1.0000 0.49405  0.98588  0.64120  Biso   1.000  H
  H108     1.0000 0.51624  0.13110  0.51067  Biso   1.000  H
  C131     1.0000 0.60149  0.13491  0.64360  Biso   1.000  C
  H109     1.0000 0.07763  0.08581  0.69868  Biso   1.000  H
  H110     1.0000 0.14487  0.02459  0.70499  Biso   1.000  H
  H111     1.0000 0.14018  0.01929  0.68050  Biso   1.000  H
  H112     1.0000 0.95886  0.03920  0.73709  Biso   1.000  H
  H113     1.0000 0.94316  0.01830  0.70259  Biso   1.000  H
  H114     1.0000 0.98065  0.44211  0.77441  Biso   1.000  H
  H115     1.0000 0.05275  0.43540  0.67570  Biso   1.000  H
  H116     1.0000 0.17149  0.45920  0.75513  Biso   1.000  H
  H117     1.0000 0.28225  0.04959  0.89163  Biso   1.000  H
  H118     1.0000 0.17481  0.08701  0.82311  Biso   1.000  H
  C132     1.0000 0.12157  0.10142  0.95487  Biso   1.000  C
  H119     1.0000 0.16124  0.10171  0.85123  Biso   1.000  H
  C133     1.0000 0.25815  0.06702  0.97312  Biso   1.000  C
  H120     1.0000 0.06052  0.13470  0.93889  Biso   1.000  H
  H121     1.0000 0.11676  0.13781  0.93780  Biso   1.000  H
  H122     1.0000 0.60180  0.02711  0.77482  Biso   1.000  H
  H123     1.0000 0.62800  0.17241  0.64429  Biso   1.000  H
  H124     1.0000 0.04054  0.07190  0.96311  Biso   1.000  H
  H125     1.0000 0.18713  0.10709  0.01098  Biso   1.000  H
  H126     1.0000 0.29970  0.03701  0.93690  Biso   1.000  H
  H127     1.0000 0.15938  0.05481  0.00652  Biso   1.000  H
  H128     1.0000 0.34686  0.07898  0.01551  Biso   1.000  H
