data_image0
_cell_length_a       16.751
_cell_length_b       23.161
_cell_length_c       17.313
_cell_angle_alpha    90
_cell_angle_beta     111.76
_cell_angle_gamma    90

_symmetry_space_group_name_H-M    "P 1"
_symmetry_int_tables_number       1

loop_
  _symmetry_equiv_pos_as_xyz
  'x, y, z'

loop_
  _atom_site_label
  _atom_site_occupancy
  _atom_site_fract_x
  _atom_site_fract_y
  _atom_site_fract_z
  _atom_site_thermal_displace_type
  _atom_site_B_iso_or_equiv
  _atom_site_type_symbol
  C1       1.0000 0.50311  0.51228  0.37682  Biso   1.000  C
  C2       1.0000 0.49260  0.45944  0.33646  Biso   1.000  C
  H1       1.0000 0.55509  0.51949  0.42259  Biso   1.000  H
  C3       1.0000 0.43999  0.55533  0.35263  Biso   1.000  C
  C4       1.0000 0.41619  0.45015  0.26761  Biso   1.000  C
  C5       1.0000 0.56573  0.41781  0.35891  Biso   1.000  C
  C6       1.0000 0.36369  0.54367  0.28701  Biso   1.000  C
  C7       1.0000 0.45881  0.61327  0.39504  Biso   1.000  C
  C8       1.0000 0.35280  0.49320  0.24224  Biso   1.000  C
  H2       1.0000 0.40737  0.41462  0.23819  Biso   1.000  H
  C9       1.0000 0.57700  0.38163  0.29889  Biso   1.000  C
  C10      1.0000 0.63161  0.41954  0.43783  Biso   1.000  C
  H3       1.0000 0.31809  0.57092  0.27271  Biso   1.000  H
  H4       1.0000 0.43072  0.61530  0.43609  Biso   1.000  H
  H5       1.0000 0.52163  0.61681  0.42564  Biso   1.000  H
  N1       1.0000 0.42893  0.66258  0.33639  Biso   1.000  N
  C11      1.0000 0.27767  0.48603  0.15989  Biso   1.000  C
  C12      1.0000 0.65046  0.34765  0.31674  Biso   1.000  C
  H6       1.0000 0.53368  0.38021  0.24472  Biso   1.000  H
  C13      1.0000 0.70602  0.38733  0.45549  Biso   1.000  C
  H7       1.0000 0.62500  0.44320  0.47993  Biso   1.000  H
  C14      1.0000 0.48878  0.68330  0.29628  Biso   1.000  C
  S1       1.0000 0.37896  0.71366  0.36786  Biso   1.000  S
  H8       1.0000 0.28169  0.44821  0.13502  Biso   1.000  H
  H9       1.0000 0.22292  0.48728  0.16922  Biso   1.000  H
  N2       1.0000 0.27984  0.53353  0.10231  Biso   1.000  N
  C15      1.0000 0.71261  0.34973  0.39572  Biso   1.000  C
  C16      1.0000 0.66550  0.31411  0.24802  Biso   1.000  C
  C17      1.0000 0.78305  0.39938  0.53329  Biso   1.000  C
  H10      1.0000 0.54486  0.69410  0.33919  Biso   1.000  H
  H11      1.0000 0.46441  0.71759  0.26133  Biso   1.000  H
  C18      1.0000 0.50029  0.63400  0.24280  Biso   1.000  C
  O1       1.0000 0.31271  0.68477  0.38783  Biso   1.000  O
  O2       1.0000 0.35639  0.75783  0.30598  Biso   1.000  O
  C19      1.0000 0.45530  0.74077  0.46053  Biso   1.000  C
  C20      1.0000 0.35490  0.53370  0.07618  Biso   1.000  C
  S2       1.0000 0.18674  0.54825  0.02836  Biso   1.000  S
  H12      1.0000 0.76096  0.32490  0.40959  Biso   1.000  H
  N3       1.0000 0.74960  0.32753  0.24329  Biso   1.000  N
  H13      1.0000 0.66238  0.27218  0.25809  Biso   1.000  H
  H14      1.0000 0.61941  0.32352  0.19410  Biso   1.000  H
  N4       1.0000 0.85321  0.42356  0.50997  Biso   1.000  N
  H15      1.0000 0.76752  0.42718  0.56880  Biso   1.000  H
  H16      1.0000 0.80260  0.36320  0.56532  Biso   1.000  H
  C21      1.0000 0.42989  0.61340  0.17762  Biso   1.000  C
  C22      1.0000 0.57790  0.60567  0.26556  Biso   1.000  C
  C23      1.0000 0.51742  0.77976  0.45624  Biso   1.000  C
  C24      1.0000 0.45681  0.72281  0.53752  Biso   1.000  C
  C25      1.0000 0.43419  0.56181  0.13993  Biso   1.000  C
  H17      1.0000 0.33919  0.55468  0.02270  Biso   1.000  H
  H18      1.0000 0.36880  0.49350  0.06679  Biso   1.000  H
  O3       1.0000 0.12549  0.55360  0.06779  Biso   1.000  O
  O4       1.0000 0.20148  0.59674  0.98333  Biso   1.000  O
  C26      1.0000 0.15892  0.48815  0.96231  Biso   1.000  C
  C27      1.0000 0.75323  0.38081  0.19684  Biso   1.000  C
  S3       1.0000 0.80894  0.27274  0.23614  Biso   1.000  S
  C28      1.0000 0.83753  0.48150  0.47185  Biso   1.000  C
  S4       1.0000 0.95147  0.41233  0.57633  Biso   1.000  S
  H19      1.0000 0.37800  0.63499  0.15859  Biso   1.000  H
  C29      1.0000 0.58591  0.55386  0.22818  Biso   1.000  C
  H20      1.0000 0.62701  0.62182  0.30772  Biso   1.000  H
  H21      1.0000 0.51710  0.79189  0.40369  Biso   1.000  H
  C30      1.0000 0.57870  0.80031  0.52832  Biso   1.000  C
  C31      1.0000 0.52071  0.74332  0.60910  Biso   1.000  C
  H22      1.0000 0.41457  0.69669  0.54119  Biso   1.000  H
  C32      1.0000 0.51203  0.53202  0.16562  Biso   1.000  C
  C33      1.0000 0.11050  0.44277  0.97537  Biso   1.000  C
  C34      1.0000 0.19012  0.48400  0.89776  Biso   1.000  C
  C35      1.0000 0.74480  0.43392  0.24572  Biso   1.000  C
  H23      1.0000 0.70599  0.38051  0.14149  Biso   1.000  H
  H24      1.0000 0.80836  0.38228  0.18819  Biso   1.000  H
  O5       1.0000 0.80672  0.23078  0.29609  Biso   1.000  O
  O6       1.0000 0.88946  0.29653  0.24031  Biso   1.000  O
  C36      1.0000 0.75789  0.24226  0.13608  Biso   1.000  C
  H25      1.0000 0.89348  0.50011  0.48124  Biso   1.000  H
  H26      1.0000 0.80730  0.50520  0.50014  Biso   1.000  H
  C37      1.0000 0.78471  0.48089  0.37918  Biso   1.000  C
  O7       1.0000 0.95390  0.35443  0.60761  Biso   1.000  O
  C38      1.0000 0.96668  0.46177  0.65780  Biso   1.000  C
  O8       1.0000 0.00784  0.42809  0.53416  Biso   1.000  O
  C39      1.0000 0.66483  0.51716  0.26027  Biso   1.000  C
  H27      1.0000 0.62020  0.82721  0.52490  Biso   1.000  H
  C40      1.0000 0.58139  0.78270  0.60575  Biso   1.000  C
  H28      1.0000 0.52278  0.73002  0.66172  Biso   1.000  H
  H29      1.0000 0.51500  0.49622  0.14018  Biso   1.000  H
  H30      1.0000 0.08778  0.44549  0.01797  Biso   1.000  H
  C41      1.0000 0.09573  0.39411  0.92655  Biso   1.000  C
  C42      1.0000 0.17310  0.43500  0.84912  Biso   1.000  C
  H31      1.0000 0.22260  0.51470  0.88762  Biso   1.000  H
  C43      1.0000 0.79901  0.43854  0.32893  Biso   1.000  C
  C44      1.0000 0.68000  0.47325  0.21201  Biso   1.000  C
  C45      1.0000 0.76599  0.26955  0.06779  Biso   1.000  C
  C46      1.0000 0.70473  0.19520  0.12432  Biso   1.000  C
  C47      1.0000 0.71862  0.52018  0.34411  Biso   1.000  C
  C48      1.0000 0.93799  0.44769  0.72111  Biso   1.000  C
  C49      1.0000 0.00134  0.51544  0.65413  Biso   1.000  C
  C50      1.0000 0.64920  0.80661  0.68504  Biso   1.000  C
  H32      1.0000 0.06347  0.36320  0.93663  Biso   1.000  H
  C51      1.0000 0.12687  0.38919  0.86293  Biso   1.000  C
  H33      1.0000 0.19363  0.43258  0.80484  Biso   1.000  H
  H34      1.0000 0.84592  0.41259  0.35151  Biso   1.000  H
  H35      1.0000 0.64468  0.47062  0.15473  Biso   1.000  H
  H36      1.0000 0.80269  0.30210  0.07538  Biso   1.000  H
  C52      1.0000 0.72049  0.24908  0.98955  Biso   1.000  C
  C53      1.0000 0.65991  0.17439  0.04521  Biso   1.000  C
  H37      1.0000 0.69882  0.17689  0.17090  Biso   1.000  H
  H38      1.0000 0.70961  0.54980  0.37794  Biso   1.000  H
  H39      1.0000 0.91523  0.41060  0.72403  Biso   1.000  H
  C54      1.0000 0.94372  0.49000  0.78063  Biso   1.000  C
  C55      1.0000 0.00740  0.55641  0.71545  Biso   1.000  C
  H40      1.0000 0.02070  0.52442  0.61041  Biso   1.000  H
  H41      1.0000 0.70191  0.78382  0.69953  Biso   1.000  H
  H42      1.0000 0.62770  0.80450  0.73050  Biso   1.000  H
  H43      1.0000 0.66132  0.84690  0.67615  Biso   1.000  H
  C56      1.0000 0.11188  0.33591  0.81025  Biso   1.000  C
  H44      1.0000 0.72682  0.26769  0.94328  Biso   1.000  H
  C57      1.0000 0.66582  0.20228  0.97556  Biso   1.000  C
  H45      1.0000 0.62486  0.14101  0.03787  Biso   1.000  H
  H46      1.0000 0.92402  0.48128  0.82410  Biso   1.000  H
  C58      1.0000 0.97733  0.54419  0.77783  Biso   1.000  C
  H47      1.0000 0.03263  0.59302  0.71415  Biso   1.000  H
  H48      1.0000 0.09472  0.30409  0.83805  Biso   1.000  H
  H49      1.0000 0.16502  0.32550  0.80217  Biso   1.000  H
  H50      1.0000 0.06632  0.34329  0.75615  Biso   1.000  H
  C59      1.0000 0.61263  0.18220  0.88924  Biso   1.000  C
  C60      1.0000 0.98081  0.59052  0.84064  Biso   1.000  C
  H51      1.0000 0.55248  0.19330  0.87593  Biso   1.000  H
  H52      1.0000 0.61668  0.14019  0.88625  Biso   1.000  H
  H53      1.0000 0.63389  0.20021  0.84937  Biso   1.000  H
  H54      1.0000 0.92416  0.60870  0.82510  Biso   1.000  H
  H55      1.0000 0.99709  0.57312  0.89593  Biso   1.000  H
  H56      1.0000 0.02339  0.61971  0.84133  Biso   1.000  H
  C61      1.0000 0.49693  0.48772  0.62322  Biso   1.000  C
  C62      1.0000 0.55998  0.44471  0.64741  Biso   1.000  C
  C63      1.0000 0.50744  0.54056  0.66358  Biso   1.000  C
  H57      1.0000 0.44494  0.48051  0.57745  Biso   1.000  H
  C64      1.0000 0.54122  0.38677  0.60500  Biso   1.000  C
  C65      1.0000 0.63628  0.45633  0.71303  Biso   1.000  C
  C66      1.0000 0.43430  0.58219  0.64113  Biso   1.000  C
  C67      1.0000 0.58378  0.54985  0.73243  Biso   1.000  C
  N5       1.0000 0.57107  0.33742  0.66358  Biso   1.000  N
  H58      1.0000 0.56929  0.38470  0.56389  Biso   1.000  H
  H59      1.0000 0.47840  0.38319  0.57440  Biso   1.000  H
  H60      1.0000 0.68188  0.42908  0.72733  Biso   1.000  H
  C68      1.0000 0.64717  0.50680  0.75780  Biso   1.000  C
  C69      1.0000 0.42303  0.61837  0.70115  Biso   1.000  C
  C70      1.0000 0.36842  0.58046  0.56221  Biso   1.000  C
  H61      1.0000 0.59261  0.58542  0.76185  Biso   1.000  H
  S5       1.0000 0.62107  0.28634  0.63218  Biso   1.000  S
  C71      1.0000 0.51122  0.31670  0.70370  Biso   1.000  C
  C72      1.0000 0.72230  0.51401  0.84015  Biso   1.000  C
  C73      1.0000 0.34951  0.65235  0.68330  Biso   1.000  C
  H62      1.0000 0.46629  0.61979  0.75532  Biso   1.000  H
  C74      1.0000 0.29402  0.61267  0.54455  Biso   1.000  C
  H63      1.0000 0.37497  0.55680  0.52011  Biso   1.000  H
  C75      1.0000 0.54473  0.25923  0.53951  Biso   1.000  C
  O9       1.0000 0.68732  0.31523  0.61221  Biso   1.000  O
  O10      1.0000 0.64356  0.24217  0.69400  Biso   1.000  O
  H64      1.0000 0.45511  0.30590  0.66085  Biso   1.000  H
  H65      1.0000 0.53562  0.28241  0.73871  Biso   1.000  H
  C76      1.0000 0.49968  0.36600  0.75724  Biso   1.000  C
  H66      1.0000 0.71828  0.55179  0.86502  Biso   1.000  H
  H67      1.0000 0.77711  0.51272  0.83082  Biso   1.000  H
  N6       1.0000 0.72019  0.46647  0.89773  Biso   1.000  N
  C77      1.0000 0.28742  0.65027  0.60432  Biso   1.000  C
  C78      1.0000 0.33453  0.68589  0.75202  Biso   1.000  C
  C79      1.0000 0.21696  0.60062  0.46669  Biso   1.000  C
  C80      1.0000 0.48261  0.22024  0.54380  Biso   1.000  C
  C81      1.0000 0.54323  0.27719  0.46252  Biso   1.000  C
  C82      1.0000 0.57009  0.38660  0.82242  Biso   1.000  C
  C83      1.0000 0.42211  0.39437  0.73442  Biso   1.000  C
  C84      1.0000 0.64513  0.46630  0.92386  Biso   1.000  C
  S6       1.0000 0.81330  0.45175  0.97168  Biso   1.000  S
  H68      1.0000 0.23901  0.67510  0.59045  Biso   1.000  H
  N7       1.0000 0.25043  0.67247  0.75675  Biso   1.000  N
  H69      1.0000 0.33759  0.72782  0.74194  Biso   1.000  H
  H70      1.0000 0.38062  0.67648  0.80594  Biso   1.000  H
  N8       1.0000 0.14676  0.57644  0.49007  Biso   1.000  N
  H71      1.0000 0.23251  0.57282  0.43124  Biso   1.000  H
  H72      1.0000 0.19743  0.63680  0.43472  Biso   1.000  H
  C85      1.0000 0.42133  0.19969  0.47172  Biso   1.000  C
  H73      1.0000 0.48291  0.20811  0.59629  Biso   1.000  H
  C86      1.0000 0.47932  0.25668  0.39094  Biso   1.000  C
  H74      1.0000 0.58538  0.30331  0.45879  Biso   1.000  H
  H75      1.0000 0.62203  0.36501  0.84145  Biso   1.000  H
  C87      1.0000 0.56578  0.43819  0.86011  Biso   1.000  C
  C88      1.0000 0.41412  0.44614  0.77186  Biso   1.000  C
  H76      1.0000 0.37302  0.37822  0.69232  Biso   1.000  H
  H77      1.0000 0.66079  0.44532  0.97734  Biso   1.000  H
  H78      1.0000 0.63124  0.50650  0.93325  Biso   1.000  H
  O11      1.0000 0.87454  0.44640  0.93225  Biso   1.000  O
  O12      1.0000 0.79855  0.40326  0.01671  Biso   1.000  O
  C89      1.0000 0.84111  0.51185  0.03773  Biso   1.000  C
  C90      1.0000 0.24680  0.61919  0.80320  Biso   1.000  C
  S7       1.0000 0.19109  0.72726  0.76390  Biso   1.000  S
  C91      1.0000 0.16250  0.51850  0.52819  Biso   1.000  C
  S8       1.0000 0.04850  0.58767  0.42371  Biso   1.000  S
  C92      1.0000 0.41858  0.21730  0.39429  Biso   1.000  C
  H79      1.0000 0.37983  0.17279  0.47514  Biso   1.000  H
  H80      1.0000 0.47719  0.26998  0.33832  Biso   1.000  H
  C93      1.0000 0.48800  0.46798  0.83442  Biso   1.000  C
  C94      1.0000 0.33521  0.48284  0.73977  Biso   1.000  C
  C95      1.0000 0.88947  0.55727  0.02467  Biso   1.000  C
  C96      1.0000 0.80991  0.51600  0.10228  Biso   1.000  C
  C97      1.0000 0.25523  0.56608  0.75432  Biso   1.000  C
  H81      1.0000 0.29404  0.61949  0.85855  Biso   1.000  H
  H82      1.0000 0.19161  0.61772  0.81185  Biso   1.000  H
  O13      1.0000 0.19331  0.76922  0.70395  Biso   1.000  O
  O14      1.0000 0.11057  0.70347  0.75973  Biso   1.000  O
  C98      1.0000 0.24212  0.75778  0.86390  Biso   1.000  C
  C99      1.0000 0.21526  0.51911  0.62086  Biso   1.000  C
  H83      1.0000 0.10649  0.49989  0.51880  Biso   1.000  H
  H84      1.0000 0.19267  0.49480  0.49990  Biso   1.000  H
  O15      1.0000 0.04611  0.64557  0.39237  Biso   1.000  O
  C100     1.0000 0.03332  0.53823  0.34218  Biso   1.000  C
  O16      1.0000 0.99219  0.57191  0.46588  Biso   1.000  O
  C101     1.0000 0.35077  0.19339  0.31500  Biso   1.000  C
  H85      1.0000 0.48501  0.50382  0.85980  Biso   1.000  H
  C102     1.0000 0.28141  0.47982  0.65593  Biso   1.000  C
  C103     1.0000 0.32003  0.52675  0.78803  Biso   1.000  C
  H86      1.0000 0.91217  0.55451  0.98200  Biso   1.000  H
  C104     1.0000 0.90430  0.60589  0.07349  Biso   1.000  C
  C105     1.0000 0.82691  0.56500  0.15085  Biso   1.000  C
  H87      1.0000 0.77741  0.48530  0.11236  Biso   1.000  H
  C106     1.0000 0.20100  0.56146  0.67105  Biso   1.000  C
  C107     1.0000 0.23404  0.73045  0.93225  Biso   1.000  C
  C108     1.0000 0.29530  0.80480  0.87572  Biso   1.000  C
  C109     1.0000 0.06204  0.55231  0.27893  Biso   1.000  C
  C110     1.0000 0.99869  0.48456  0.34591  Biso   1.000  C
  H88      1.0000 0.29812  0.21618  0.30051  Biso   1.000  H
  H89      1.0000 0.37233  0.19550  0.26954  Biso   1.000  H
  H90      1.0000 0.33872  0.15310  0.32389  Biso   1.000  H
  H91      1.0000 0.29042  0.45020  0.62210  Biso   1.000  H
  H92      1.0000 0.35529  0.52938  0.84531  Biso   1.000  H
  H93      1.0000 0.93647  0.63680  0.06335  Biso   1.000  H
  C111     1.0000 0.87310  0.61081  0.13711  Biso   1.000  C
  H94      1.0000 0.80641  0.56742  0.19520  Biso   1.000  H
  H95      1.0000 0.15411  0.58741  0.64853  Biso   1.000  H
  H96      1.0000 0.19732  0.69790  0.92460  Biso   1.000  H
  C112     1.0000 0.27948  0.75092  0.01049  Biso   1.000  C
  C113     1.0000 0.34012  0.82561  0.95483  Biso   1.000  C
  H97      1.0000 0.30121  0.82311  0.82914  Biso   1.000  H
  H98      1.0000 0.08480  0.58940  0.27601  Biso   1.000  H
  C114     1.0000 0.05631  0.51000  0.21941  Biso   1.000  C
  C115     1.0000 0.99257  0.44359  0.28459  Biso   1.000  C
  H99      1.0000 0.97933  0.47558  0.38963  Biso   1.000  H
  C116     1.0000 0.88809  0.66409  0.18979  Biso   1.000  C
  H100     1.0000 0.27321  0.73231  0.05676  Biso   1.000  H
  C117     1.0000 0.33421  0.79772  0.02448  Biso   1.000  C
  H101     1.0000 0.37508  0.85899  0.96210  Biso   1.000  H
  H102     1.0000 0.07599  0.51872  0.17588  Biso   1.000  H
  C118     1.0000 0.02270  0.45581  0.22221  Biso   1.000  C
  H103     1.0000 0.96740  0.40702  0.28589  Biso   1.000  H
  H104     1.0000 0.90532  0.69591  0.16199  Biso   1.000  H
  H105     1.0000 0.83501  0.67450  0.19787  Biso   1.000  H
  H106     1.0000 0.93371  0.65671  0.24389  Biso   1.000  H
  C119     1.0000 0.38741  0.81780  0.11080  Biso   1.000  C
  C120     1.0000 0.01923  0.40948  0.15940  Biso   1.000  C
  H107     1.0000 0.44749  0.80670  0.12411  Biso   1.000  H
  H108     1.0000 0.38330  0.85981  0.11379  Biso   1.000  H
  H109     1.0000 0.36609  0.79979  0.15067  Biso   1.000  H
  H110     1.0000 0.07578  0.39130  0.17488  Biso   1.000  H
  H111     1.0000 0.00288  0.42688  0.10411  Biso   1.000  H
  H112     1.0000 0.97658  0.38029  0.15871  Biso   1.000  H
  C121     1.0000 0.83419  0.70230  0.52452  Biso   1.000  C
  C122     1.0000 0.84007  0.67441  0.45481  Biso   1.000  C
  C123     1.0000 0.77952  0.74910  0.51053  Biso   1.000  C
  C124     1.0000 0.88738  0.68222  0.61085  Biso   1.000  C
  C125     1.0000 0.79532  0.69522  0.37570  Biso   1.000  C
  H113     1.0000 0.87510  0.64099  0.46208  Biso   1.000  H
  C126     1.0000 0.73400  0.76953  0.43223  Biso   1.000  C
  H114     1.0000 0.77319  0.76771  0.55680  Biso   1.000  H
  H115     1.0000 0.94750  0.69332  0.62409  Biso   1.000  H
  H116     1.0000 0.88333  0.64021  0.61383  Biso   1.000  H
  H117     1.0000 0.86612  0.70019  0.65071  Biso   1.000  H
  C127     1.0000 0.74207  0.74224  0.36388  Biso   1.000  C
  H118     1.0000 0.80123  0.67691  0.32912  Biso   1.000  H
  H119     1.0000 0.69730  0.80212  0.42464  Biso   1.000  H
  S9       1.0000 0.69104  0.77276  0.26388  Biso   1.000  S
  N9       1.0000 0.75039  0.82751  0.25673  Biso   1.000  N
  O17      1.0000 0.69326  0.73075  0.20393  Biso   1.000  O
  O18      1.0000 0.61058  0.79655  0.25971  Biso   1.000  O
  C128     1.0000 0.74682  0.88083  0.30318  Biso   1.000  C
  C129     1.0000 0.83448  0.81413  0.25200  Biso   1.000  C
  C130     1.0000 0.75519  0.93394  0.25430  Biso   1.000  C
  H120     1.0000 0.79399  0.88049  0.35853  Biso   1.000  H
  H121     1.0000 0.69162  0.88230  0.31183  Biso   1.000  H
  C131     1.0000 0.84952  0.84763  0.18328  Biso   1.000  C
  H122     1.0000 0.83761  0.77220  0.24193  Biso   1.000  H
  H123     1.0000 0.88057  0.82350  0.30592  Biso   1.000  H
  C132     1.0000 0.70095  0.93852  0.17103  Biso   1.000  C
  C133     1.0000 0.81998  0.97327  0.28801  Biso   1.000  C
  C134     1.0000 0.78738  0.84970  0.10430  Biso   1.000  C
  C135     1.0000 0.92298  0.88161  0.20113  Biso   1.000  C
  C136     1.0000 0.71527  0.98092  0.12084  Biso   1.000  C
  H124     1.0000 0.65412  0.91261  0.14851  Biso   1.000  H
  H125     1.0000 0.85530  0.97060  0.34529  Biso   1.000  H
  C137     1.0000 0.83516  0.01718  0.23975  Biso   1.000  C
  C138     1.0000 0.79397  0.88735  0.04453  Biso   1.000  C
  H126     1.0000 0.73902  0.82492  0.09043  Biso   1.000  H
  H127     1.0000 0.96630  0.88019  0.25530  Biso   1.000  H
  C139     1.0000 0.93431  0.91784  0.14111  Biso   1.000  C
  C140     1.0000 0.66252  0.98148  0.02817  Biso   1.000  C
  C141     1.0000 0.78137  0.02016  0.15591  Biso   1.000  C
  C142     1.0000 0.91408  0.05388  0.27184  Biso   1.000  C
  C143     1.0000 0.86838  0.91956  0.06219  Biso   1.000  C
  C144     1.0000 0.71694  0.89936  0.96673  Biso   1.000  C
  C145     1.0000 0.00739  0.95941  0.16356  Biso   1.000  C
  N10      1.0000 0.64680  0.92358  0.99011  Biso   1.000  N
  H128     1.0000 0.69271  0.00518  0.99994  Biso   1.000  H
  H129     1.0000 0.60650  0.00009  0.01878  Biso   1.000  H
  H130     1.0000 0.79037  0.04978  0.12208  Biso   1.000  H
  C146     1.0000 0.98802  0.03204  0.33440  Biso   1.000  C
  C147     1.0000 0.92206  0.10565  0.23440  Biso   1.000  C
  H131     1.0000 0.87499  0.94322  0.02009  Biso   1.000  H
  H132     1.0000 0.73249  0.92721  0.93128  Biso   1.000  H
  H133     1.0000 0.69741  0.86322  0.93476  Biso   1.000  H
  C148     1.0000 0.99688  0.01231  0.12320  Biso   1.000  C
  C149     1.0000 0.08380  0.95017  0.23241  Biso   1.000  C
  S10      1.0000 0.54854  0.91235  0.92375  Biso   1.000  S
  H134     1.0000 0.98499  0.99620  0.35984  Biso   1.000  H
  C150     1.0000 0.06580  0.06183  0.36009  Biso   1.000  C
  C151     1.0000 0.99970  0.13402  0.25722  Biso   1.000  C
  H135     1.0000 0.87298  0.12180  0.19230  Biso   1.000  H
  H136     1.0000 0.94490  0.01952  0.07743  Biso   1.000  H
  C152     1.0000 0.06000  0.05531  0.14739  Biso   1.000  C
  C153     1.0000 0.14719  0.99322  0.25778  Biso   1.000  C
  H137     1.0000 0.09262  0.91460  0.26183  Biso   1.000  H
  O19      1.0000 0.49217  0.92811  0.96592  Biso   1.000  O
  O20      1.0000 0.54608  0.85445  0.89241  Biso   1.000  O
  C154     1.0000 0.53330  0.96175  0.84222  Biso   1.000  C
  C155     1.0000 0.07010  0.11338  0.32240  Biso   1.000  C
  C156     1.0000 0.14514  0.03372  0.42384  Biso   1.000  C
  C157     1.0000 0.01118  0.18333  0.20368  Biso   1.000  C
  C158     1.0000 0.13630  0.04365  0.21301  Biso   1.000  C
  C159     1.0000 0.04118  0.11325  0.10498  Biso   1.000  C
  C160     1.0000 0.22232  0.98601  0.34013  Biso   1.000  C
  C161     1.0000 0.56202  0.94771  0.77897  Biso   1.000  C
  C162     1.0000 0.49873  0.01546  0.84595  Biso   1.000  C
  H138     1.0000 0.12199  0.13501  0.34143  Biso   1.000  H
  H139     1.0000 0.13119  0.99352  0.43323  Biso   1.000  H
  N11      1.0000 0.22014  0.03355  0.39771  Biso   1.000  N
  H140     1.0000 0.16080  0.05470  0.47732  Biso   1.000  H
  H141     1.0000 0.95512  0.19412  0.16083  Biso   1.000  H
  N12      1.0000 0.07111  0.16260  0.16363  Biso   1.000  N
  H142     1.0000 0.03558  0.21761  0.23869  Biso   1.000  H
  H143     1.0000 0.18190  0.07090  0.22731  Biso   1.000  H
  H144     1.0000 0.97835  0.11679  0.07438  Biso   1.000  H
  H145     1.0000 0.06933  0.11528  0.06393  Biso   1.000  H
  H146     1.0000 0.21830  0.94819  0.36500  Biso   1.000  H
  H147     1.0000 0.27713  0.98731  0.33080  Biso   1.000  H
  H148     1.0000 0.58478  0.91058  0.77605  Biso   1.000  H
  C163     1.0000 0.55629  0.98998  0.71945  Biso   1.000  C
  C164     1.0000 0.49261  0.05639  0.78463  Biso   1.000  C
  H149     1.0000 0.47931  0.02439  0.88967  Biso   1.000  H
  S11      1.0000 0.31331  0.04827  0.47166  Biso   1.000  S
  S12      1.0000 0.12102  0.21368  0.13216  Biso   1.000  S
  H150     1.0000 0.57596  0.98130  0.67592  Biso   1.000  H
  C165     1.0000 0.52268  0.04421  0.72225  Biso   1.000  C
  H151     1.0000 0.46738  0.09300  0.78594  Biso   1.000  H
  C166     1.0000 0.34109  0.98813  0.53777  Biso   1.000  C
  O21      1.0000 0.29850  0.09676  0.51669  Biso   1.000  O
  O22      1.0000 0.37456  0.05358  0.43223  Biso   1.000  O
  O23      1.0000 0.18734  0.18479  0.11219  Biso   1.000  O
  O24      1.0000 0.14357  0.25780  0.19398  Biso   1.000  O
  C167     1.0000 0.04468  0.24079  0.03949  Biso   1.000  C
  C168     1.0000 0.51920  0.09050  0.65944  Biso   1.000  C
  C169     1.0000 0.38951  0.94275  0.52471  Biso   1.000  C
  C170     1.0000 0.30988  0.98402  0.60232  Biso   1.000  C
  C171     1.0000 0.98257  0.27974  0.04378  Biso   1.000  C
  C172     1.0000 0.04320  0.22279  0.96256  Biso   1.000  C
  H152     1.0000 0.57582  0.10872  0.67492  Biso   1.000  H
  H153     1.0000 0.47662  0.11968  0.65876  Biso   1.000  H
  H154     1.0000 0.50292  0.07310  0.60415  Biso   1.000  H
  H155     1.0000 0.41218  0.94551  0.48198  Biso   1.000  H
  C173     1.0000 0.40434  0.89409  0.57353  Biso   1.000  C
  C174     1.0000 0.32688  0.93502  0.65090  Biso   1.000  C
  H156     1.0000 0.27739  0.01468  0.61240  Biso   1.000  H
  C175     1.0000 0.92131  0.30033  0.97177  Biso   1.000  C
  H157     1.0000 0.98286  0.29191  0.09627  Biso   1.000  H
  C176     1.0000 0.97930  0.24334  0.89098  Biso   1.000  C
  H158     1.0000 0.08541  0.19671  0.95883  Biso   1.000  H
  H159     1.0000 0.43651  0.86322  0.56339  Biso   1.000  H
  C177     1.0000 0.37311  0.88921  0.63709  Biso   1.000  C
  H160     1.0000 0.30644  0.93260  0.69524  Biso   1.000  H
  H161     1.0000 0.87979  0.32719  0.97512  Biso   1.000  H
  C178     1.0000 0.91862  0.28267  0.89434  Biso   1.000  C
  H162     1.0000 0.97723  0.23000  0.83836  Biso   1.000  H
  C179     1.0000 0.38813  0.83589  0.68983  Biso   1.000  C
  C180     1.0000 0.85081  0.30659  0.81504  Biso   1.000  C
  H163     1.0000 0.40529  0.80411  0.66203  Biso   1.000  H
  H164     1.0000 0.33499  0.82548  0.69791  Biso   1.000  H
  H165     1.0000 0.43369  0.84331  0.74394  Biso   1.000  H
  H166     1.0000 0.79809  0.28380  0.80055  Biso   1.000  H
  H167     1.0000 0.87229  0.30452  0.76952  Biso   1.000  H
  H168     1.0000 0.83869  0.34692  0.82394  Biso   1.000  H
  C181     1.0000 0.16578  0.29770  0.47552  Biso   1.000  C
  C182     1.0000 0.11259  0.31782  0.38919  Biso   1.000  C
  C183     1.0000 0.22051  0.25090  0.48951  Biso   1.000  C
  C184     1.0000 0.15990  0.32559  0.54523  Biso   1.000  C
  H169     1.0000 0.05251  0.30672  0.37589  Biso   1.000  H
  H170     1.0000 0.11670  0.35979  0.38621  Biso   1.000  H
  H171     1.0000 0.13391  0.29981  0.34933  Biso   1.000  H
  C185     1.0000 0.26598  0.23047  0.56781  Biso   1.000  C
  H172     1.0000 0.22684  0.23229  0.44324  Biso   1.000  H
  H173     1.0000 0.12491  0.35901  0.53789  Biso   1.000  H
  C186     1.0000 0.20472  0.30482  0.62434  Biso   1.000  C
  C187     1.0000 0.25787  0.25776  0.63609  Biso   1.000  C
  H174     1.0000 0.30267  0.19792  0.57540  Biso   1.000  H
  H175     1.0000 0.19880  0.32309  0.67092  Biso   1.000  H
  S13      1.0000 0.30899  0.22728  0.73616  Biso   1.000  S
  N13      1.0000 0.24958  0.17249  0.74331  Biso   1.000  N
  O25      1.0000 0.30671  0.26925  0.79611  Biso   1.000  O
  O26      1.0000 0.38945  0.20349  0.74033  Biso   1.000  O
  C188     1.0000 0.25319  0.11917  0.69679  Biso   1.000  C
  C189     1.0000 0.16549  0.18587  0.74804  Biso   1.000  C
  C190     1.0000 0.24484  0.06606  0.74574  Biso   1.000  C
  H176     1.0000 0.20598  0.11951  0.64151  Biso   1.000  H
  H177     1.0000 0.30841  0.11770  0.68821  Biso   1.000  H
  C191     1.0000 0.15051  0.15237  0.81676  Biso   1.000  C
  H178     1.0000 0.16243  0.22780  0.75811  Biso   1.000  H
  H179     1.0000 0.11940  0.17650  0.69412  Biso   1.000  H
  C192     1.0000 0.29899  0.06148  0.82895  Biso   1.000  C
  C193     1.0000 0.17999  0.02673  0.71203  Biso   1.000  C
  C194     1.0000 0.21259  0.15030  0.89574  Biso   1.000  C
  C195     1.0000 0.07699  0.11839  0.79891  Biso   1.000  C
  C196     1.0000 0.28473  0.01908  0.87914  Biso   1.000  C
  H180     1.0000 0.34591  0.08739  0.85153  Biso   1.000  H
  H181     1.0000 0.14471  0.02940  0.65469  Biso   1.000  H
  C197     1.0000 0.16487  0.98282  0.76029  Biso   1.000  C
  C198     1.0000 0.20600  0.11265  0.95551  Biso   1.000  C
  H182     1.0000 0.26101  0.17512  0.90961  Biso   1.000  H
  H183     1.0000 0.03373  0.11981  0.74474  Biso   1.000  H
  C199     1.0000 0.06572  0.08216  0.85893  Biso   1.000  C
  C200     1.0000 0.33751  0.01852  0.97187  Biso   1.000  C
  C201     1.0000 0.21860  0.97984  0.84413  Biso   1.000  C
  C202     1.0000 0.08589  0.94612  0.72820  Biso   1.000  C
  C203     1.0000 0.13160  0.08044  0.93785  Biso   1.000  C
  C204     1.0000 0.28307  0.10064  0.03325  Biso   1.000  C
  C205     1.0000 0.99258  0.04059  0.83648  Biso   1.000  C
  H184     1.0000 0.39353  0.99991  0.98126  Biso   1.000  H
  H185     1.0000 0.30732  0.99482  0.00010  Biso   1.000  H
  N14      1.0000 0.35323  0.07642  0.00993  Biso   1.000  N
  H186     1.0000 0.20957  0.95022  0.87790  Biso   1.000  H
  C206     1.0000 0.01201  0.96796  0.66564  Biso   1.000  C
  C207     1.0000 0.07789  0.89435  0.76558  Biso   1.000  C
  H187     1.0000 0.12504  0.05682  0.97995  Biso   1.000  H
  H188     1.0000 0.26748  0.07279  0.06876  Biso   1.000  H
  H189     1.0000 0.30262  0.13678  0.06528  Biso   1.000  H
  C208     1.0000 0.91624  0.04983  0.76763  Biso   1.000  C
  C209     1.0000 0.00315  0.98769  0.87684  Biso   1.000  C
  S14      1.0000 0.45149  0.08769  0.07629  Biso   1.000  S
  H190     1.0000 0.01498  0.00380  0.64020  Biso   1.000  H
  C210     1.0000 0.93421  0.93822  0.63989  Biso   1.000  C
  C211     1.0000 0.00033  0.86602  0.74282  Biso   1.000  C
  H191     1.0000 0.12700  0.87820  0.80774  Biso   1.000  H
  C212     1.0000 0.85282  0.00678  0.74219  Biso   1.000  C
  H192     1.0000 0.90741  0.08540  0.73821  Biso   1.000  H
  C213     1.0000 0.94003  0.94469  0.85265  Biso   1.000  C
  H193     1.0000 0.05514  0.98048  0.92261  Biso   1.000  H
  O27      1.0000 0.50781  0.07189  0.03412  Biso   1.000  O
  O28      1.0000 0.45389  0.14555  0.10763  Biso   1.000  O
  C214     1.0000 0.46673  0.03825  0.15782  Biso   1.000  C
  C215     1.0000 0.92993  0.88662  0.67764  Biso   1.000  C
  C216     1.0000 0.85489  0.96632  0.57620  Biso   1.000  C
  C217     1.0000 0.98877  0.81667  0.79630  Biso   1.000  C
  C218     1.0000 0.86373  0.95635  0.78703  Biso   1.000  C
  C219     1.0000 0.77772  0.01399  0.65991  Biso   1.000  C
  C220     1.0000 0.95877  0.88675  0.89500  Biso   1.000  C
  C221     1.0000 0.50130  0.98454  0.15409  Biso   1.000  C
  C222     1.0000 0.43801  0.05229  0.22107  Biso   1.000  C
  H194     1.0000 0.87798  0.86499  0.65861  Biso   1.000  H
  N15      1.0000 0.77983  0.96650  0.60232  Biso   1.000  N
  H195     1.0000 0.83923  0.94530  0.52272  Biso   1.000  H
  H196     1.0000 0.86878  0.00652  0.56681  Biso   1.000  H
  N16      1.0000 0.92892  0.83740  0.83641  Biso   1.000  N
  H197     1.0000 0.96439  0.78239  0.76135  Biso   1.000  H
  H198     1.0000 0.04491  0.80592  0.83921  Biso   1.000  H
  H199     1.0000 0.81814  0.92910  0.77273  Biso   1.000  H
  H200     1.0000 0.78173  0.05181  0.63504  Biso   1.000  H
  H201     1.0000 0.72290  0.01269  0.66924  Biso   1.000  H
  H202     1.0000 0.93070  0.88472  0.93611  Biso   1.000  H
  H203     1.0000 0.02162  0.88321  0.92566  Biso   1.000  H
  C223     1.0000 0.50742  0.94361  0.21541  Biso   1.000  C
  H204     1.0000 0.52072  0.97561  0.11037  Biso   1.000  H
  H205     1.0000 0.41519  0.08942  0.22399  Biso   1.000  H
  C224     1.0000 0.44368  0.01002  0.28059  Biso   1.000  C
  S15      1.0000 0.68672  0.95177  0.52838  Biso   1.000  S
  S16      1.0000 0.87895  0.78632  0.86788  Biso   1.000  S
  C225     1.0000 0.47730  0.95579  0.27779  Biso   1.000  C
  H206     1.0000 0.53259  0.90700  0.21410  Biso   1.000  H
  H207     1.0000 0.42398  0.01870  0.32406  Biso   1.000  H
  O29      1.0000 0.70144  0.90324  0.48329  Biso   1.000  O
  O30      1.0000 0.62545  0.94642  0.56775  Biso   1.000  O
  C226     1.0000 0.65888  0.01187  0.46227  Biso   1.000  C
  O31      1.0000 0.81269  0.81521  0.88785  Biso   1.000  O
  O32      1.0000 0.85643  0.74220  0.80600  Biso   1.000  O
  C227     1.0000 0.95529  0.75921  0.96055  Biso   1.000  C
  C228     1.0000 0.48083  0.90950  0.34060  Biso   1.000  C
  C229     1.0000 0.61052  0.05725  0.47533  Biso   1.000  C
  C230     1.0000 0.69009  0.01602  0.39771  Biso   1.000  C
  C231     1.0000 0.95677  0.77721  0.03748  Biso   1.000  C
  C232     1.0000 0.01740  0.72026  0.95626  Biso   1.000  C
  H208     1.0000 0.42421  0.89128  0.32511  Biso   1.000  H
  H209     1.0000 0.52341  0.88032  0.34128  Biso   1.000  H
  H210     1.0000 0.49712  0.92690  0.39589  Biso   1.000  H
  H211     1.0000 0.58782  0.05449  0.51799  Biso   1.000  H
  C233     1.0000 0.59569  0.10591  0.42651  Biso   1.000  C
  H212     1.0000 0.72258  0.98532  0.38764  Biso   1.000  H
  C234     1.0000 0.67306  0.06498  0.34908  Biso   1.000  C
  H213     1.0000 0.91459  0.80329  0.04115  Biso   1.000  H
  C235     1.0000 0.02073  0.75670  0.10906  Biso   1.000  C
  H214     1.0000 0.01709  0.70809  0.90371  Biso   1.000  H
  C236     1.0000 0.07873  0.69967  0.02827  Biso   1.000  C
  H215     1.0000 0.56350  0.13678  0.43658  Biso   1.000  H
  C237     1.0000 0.62689  0.11079  0.36289  Biso   1.000  C
  H216     1.0000 0.69359  0.06740  0.30480  Biso   1.000  H
  C238     1.0000 0.08141  0.71733  0.10570  Biso   1.000  C
  H217     1.0000 0.02280  0.77000  0.16168  Biso   1.000  H
  H218     1.0000 0.12022  0.67281  0.02485  Biso   1.000  H
  C239     1.0000 0.61190  0.16411  0.31021  Biso   1.000  C
  C240     1.0000 0.14922  0.69341  0.18500  Biso   1.000  C
  H219     1.0000 0.59468  0.19589  0.33801  Biso   1.000  H
  H220     1.0000 0.66498  0.17452  0.30213  Biso   1.000  H
  H221     1.0000 0.56628  0.15669  0.25610  Biso   1.000  H
  H222     1.0000 0.20194  0.71620  0.19949  Biso   1.000  H
  H223     1.0000 0.12772  0.69552  0.23046  Biso   1.000  H
  H224     1.0000 0.16134  0.65312  0.17610  Biso   1.000  H
  Ne1      1.0000 0.41859  0.51511  0.69908  Biso   1.000  Ne
  He1      1.0000 0.42872  0.52372  0.72079  Biso   1.000  He
  He2      1.0000 0.42021  0.50422  0.69456  Biso   1.000  He
  Ar1      1.0000 0.41823  0.51469  0.69969  Biso   1.000  Ar
  Ne2      1.0000 0.08142  0.01511  0.80094  Biso   1.000  Ne
  He3      1.0000 0.09458  0.99899  0.82958  Biso   1.000  He
  He4      1.0000 0.06844  0.02571  0.77382  Biso   1.000  He
  Ar2      1.0000 0.08178  0.01468  0.80033  Biso   1.000  Ar
  Ne3      1.0000 0.58142  0.48489  0.30095  Biso   1.000  Ne
  He5      1.0000 0.59629  0.49725  0.32909  Biso   1.000  He
  He6      1.0000 0.56875  0.47446  0.27438  Biso   1.000  He
  Ar3      1.0000 0.58178  0.48532  0.30033  Biso   1.000  Ar
  Ne4      1.0000 0.91858  0.98490  0.19909  Biso   1.000  Ne
  He7      1.0000 0.98265  0.95217  0.27593  Biso   1.000  He
  He8      1.0000 0.90694  0.99184  0.17941  Biso   1.000  He
  Ar4      1.0000 0.91822  0.98533  0.19971  Biso   1.000  Ar
