data_image0
_cell_length_a       11.779
_cell_length_b       15.463
_cell_length_c       15.181
_cell_angle_alpha    90
_cell_angle_beta     90
_cell_angle_gamma    90

_symmetry_space_group_name_H-M    "P 1"
_symmetry_int_tables_number       1

loop_
  _symmetry_equiv_pos_as_xyz
  'x, y, z'

loop_
  _atom_site_label
  _atom_site_occupancy
  _atom_site_fract_x
  _atom_site_fract_y
  _atom_site_fract_z
  _atom_site_thermal_displace_type
  _atom_site_B_iso_or_equiv
  _atom_site_type_symbol
  C1       1.0000 0.84922  0.43860  0.27791  Biso   1.000  C
  C2       1.0000 0.84922  0.43860  0.27785  Biso   1.000  C
  C3       1.0000 0.84481  0.46809  0.28108  Biso   1.000  C
  N1       1.0000 0.87393  0.52377  0.28977  Biso   1.000  N
  N2       1.0000 0.93633  0.39067  0.31151  Biso   1.000  N
  O1       1.0000 0.76297  0.40878  0.24307  Biso   1.000  O
  N3       1.0000 0.93633  0.39067  0.31144  Biso   1.000  N
  N4       1.0000 0.93497  0.41596  0.30301  Biso   1.000  N
  O2       1.0000 0.75567  0.44138  0.24788  Biso   1.000  O
  N5       1.0000 0.87232  0.55048  0.30077  Biso   1.000  N
  C4       1.0000 0.97521  0.53560  0.34161  Biso   1.000  C
  C5       1.0000 0.97521  0.53560  0.34155  Biso   1.000  C
  C6       1.0000 0.79047  0.58908  0.27376  Biso   1.000  C
  C7       1.0000 0.97767  0.55591  0.34688  Biso   1.000  C
  C8       1.0000 0.02487  0.46440  0.34161  Biso   1.000  C
  C9       1.0000 0.02487  0.46440  0.34155  Biso   1.000  C
  C10      1.0000 0.02241  0.44409  0.34688  Biso   1.000  C
  C11      1.0000 0.94456  0.30027  0.29682  Biso   1.000  C
  C12      1.0000 0.94456  0.30027  0.29675  Biso   1.000  C
  C13      1.0000 0.93497  0.32717  0.28219  Biso   1.000  C
  C14      1.0000 0.79107  0.61928  0.29194  Biso   1.000  C
  C15      1.0000 0.79115  0.61928  0.29194  Biso   1.000  C
  H1       1.0000 0.95645  0.55765  0.39892  Biso   1.000  H
  H2       1.0000 0.95645  0.55765  0.39885  Biso   1.000  H
  H3       1.0000 0.96417  0.57188  0.40709  Biso   1.000  H
  N6       1.0000 0.06376  0.60926  0.31151  Biso   1.000  N
  N7       1.0000 0.06376  0.60926  0.31144  Biso   1.000  N
  N8       1.0000 0.06512  0.58397  0.30301  Biso   1.000  N
  H4       1.0000 0.71627  0.59458  0.29049  Biso   1.000  H
  N9       1.0000 0.80465  0.67438  0.21678  Biso   1.000  N
  H5       1.0000 0.71636  0.59458  0.29049  Biso   1.000  H
  N10      1.0000 0.80873  0.64819  0.20321  Biso   1.000  N
  H6       1.0000 0.78385  0.62226  0.32699  Biso   1.000  H
  H7       1.0000 0.71882  0.56108  0.26421  Biso   1.000  H
  N11      1.0000 0.12607  0.47617  0.28977  Biso   1.000  N
  H8       1.0000 0.04364  0.44228  0.39892  Biso   1.000  H
  H9       1.0000 0.04364  0.44228  0.39885  Biso   1.000  H
  N12      1.0000 0.12616  0.47617  0.28977  Biso   1.000  N
  N13      1.0000 0.12768  0.44946  0.30077  Biso   1.000  N
  H10      1.0000 0.03583  0.42805  0.40709  Biso   1.000  H
  H11      1.0000 0.98302  0.27627  0.34688  Biso   1.000  H
  H12      1.0000 0.86909  0.27679  0.29629  Biso   1.000  H
  H13      1.0000 0.85763  0.30887  0.27521  Biso   1.000  H
  H14      1.0000 0.96468  0.29742  0.33272  Biso   1.000  H
  N14      1.0000 0.99762  0.29697  0.20789  Biso   1.000  N
  N15      1.0000 0.00204  0.27078  0.21981  Biso   1.000  N
  N16      1.0000 0.00204  0.27078  0.21975  Biso   1.000  N
  H15      1.0000 0.79616  0.65447  0.34398  Biso   1.000  H
  C16      1.0000 0.05552  0.69967  0.29682  Biso   1.000  C
  C17      1.0000 0.05552  0.69967  0.29675  Biso   1.000  C
  C18      1.0000 0.15086  0.56140  0.27791  Biso   1.000  C
  C19      1.0000 0.15086  0.56140  0.27785  Biso   1.000  C
  C20      1.0000 0.15519  0.53191  0.28108  Biso   1.000  C
  C21      1.0000 0.06503  0.67277  0.28219  Biso   1.000  C
  C22      1.0000 0.88013  0.74559  0.21211  Biso   1.000  C
  C23      1.0000 0.88013  0.74559  0.21204  Biso   1.000  C
  C24      1.0000 0.74667  0.66365  0.14070  Biso   1.000  C
  C25      1.0000 0.74888  0.64606  0.12707  Biso   1.000  C
  C26      1.0000 0.88386  0.72075  0.20690  Biso   1.000  C
  C27      1.0000 0.20953  0.41092  0.27376  Biso   1.000  C
  C28      1.0000 0.20893  0.38072  0.29194  Biso   1.000  C
  C29      1.0000 0.94762  0.24969  0.14413  Biso   1.000  C
  C30      1.0000 0.94762  0.24969  0.14406  Biso   1.000  C
  C31      1.0000 0.94465  0.26761  0.13392  Biso   1.000  C
  C32      1.0000 0.11996  0.25441  0.21211  Biso   1.000  C
  C33      1.0000 0.11996  0.25441  0.21204  Biso   1.000  C
  C34      1.0000 0.11614  0.27918  0.20690  Biso   1.000  C
  O3       1.0000 0.23703  0.59115  0.24307  Biso   1.000  O
  O4       1.0000 0.24442  0.55856  0.24788  Biso   1.000  O
  N17      1.0000 0.99805  0.72916  0.21981  Biso   1.000  N
  N18      1.0000 0.99805  0.72916  0.21975  Biso   1.000  N
  H16      1.0000 0.01698  0.72366  0.34688  Biso   1.000  H
  H17      1.0000 0.13091  0.72315  0.29629  Biso   1.000  H
  H18      1.0000 0.01706  0.72366  0.34688  Biso   1.000  H
  N19      1.0000 0.00238  0.70297  0.20789  Biso   1.000  N
  H19      1.0000 0.14246  0.69107  0.27521  Biso   1.000  H
  H20      1.0000 0.03532  0.70258  0.33272  Biso   1.000  H
  H21      1.0000 0.85873  0.78769  0.25558  Biso   1.000  H
  C35      1.0000 0.86162  0.78154  0.11936  Biso   1.000  C
  C36      1.0000 0.86535  0.76635  0.11923  Biso   1.000  C
  H22      1.0000 0.86408  0.75755  0.25539  Biso   1.000  H
  N20      1.0000 0.77808  0.72619  0.08208  Biso   1.000  N
  N21      1.0000 0.77816  0.72619  0.08208  Biso   1.000  N
  O5       1.0000 0.67705  0.60551  0.12562  Biso   1.000  O
  O6       1.0000 0.67705  0.60551  0.12555  Biso   1.000  O
  O7       1.0000 0.68257  0.58831  0.10388  Biso   1.000  O
  N22      1.0000 0.78156  0.71448  0.07720  Biso   1.000  N
  N23      1.0000 0.19543  0.32562  0.21678  Biso   1.000  N
  H23      1.0000 0.28373  0.40535  0.29049  Biso   1.000  H
  N24      1.0000 0.19136  0.35181  0.20321  Biso   1.000  N
  H24      1.0000 0.21615  0.37768  0.32699  Biso   1.000  H
  H25      1.0000 0.28126  0.43885  0.26421  Biso   1.000  H
  H26      1.0000 0.20392  0.34547  0.34398  Biso   1.000  H
  O8       1.0000 0.84337  0.25590  0.13220  Biso   1.000  O
  O9       1.0000 0.84337  0.25590  0.13214  Biso   1.000  O
  O10      1.0000 0.84345  0.25590  0.13220  Biso   1.000  O
  O11      1.0000 0.84345  0.25590  0.13214  Biso   1.000  O
  O12      1.0000 0.84294  0.27776  0.11633  Biso   1.000  O
  N25      1.0000 0.02530  0.22538  0.08300  Biso   1.000  N
  N26      1.0000 0.02454  0.23611  0.07793  Biso   1.000  N
  H27      1.0000 0.14127  0.21231  0.25558  Biso   1.000  H
  H28      1.0000 0.14135  0.21231  0.25558  Biso   1.000  H
  C37      1.0000 0.13847  0.21839  0.11936  Biso   1.000  C
  C38      1.0000 0.13465  0.23359  0.11923  Biso   1.000  C
  H29      1.0000 0.13592  0.24239  0.25539  Biso   1.000  H
  C39      1.0000 0.05247  0.75031  0.14413  Biso   1.000  C
  C40      1.0000 0.05247  0.75031  0.14406  Biso   1.000  C
  C41      1.0000 0.05544  0.73239  0.13392  Biso   1.000  C
  N27      1.0000 0.97470  0.77456  0.08300  Biso   1.000  N
  H30      1.0000 0.83632  0.84059  0.12015  Biso   1.000  H
  N28      1.0000 0.97546  0.76389  0.07793  Biso   1.000  N
  H31      1.0000 0.84005  0.82500  0.12628  Biso   1.000  H
  C42      1.0000 0.72239  0.74009  0.00000  Biso   1.000  C
  C43      1.0000 0.25342  0.33629  0.14070  Biso   1.000  C
  C44      1.0000 0.25112  0.35388  0.12707  Biso   1.000  C
  C45      1.0000 0.99346  0.19000  0.00000  Biso   1.000  C
  N29      1.0000 0.22192  0.27381  0.08208  Biso   1.000  N
  H32      1.0000 0.16377  0.15941  0.12015  Biso   1.000  H
  H33      1.0000 0.16003  0.17500  0.12628  Biso   1.000  H
  N30      1.0000 0.21844  0.28552  0.07720  Biso   1.000  N
  O13      1.0000 0.15663  0.74410  0.13220  Biso   1.000  O
  O14      1.0000 0.15663  0.74410  0.13214  Biso   1.000  O
  O15      1.0000 0.15714  0.72218  0.11633  Biso   1.000  O
  C46      1.0000 0.00662  0.81000  0.00000  Biso   1.000  C
  N31      1.0000 0.77808  0.72619  0.91792  Biso   1.000  N
  N32      1.0000 0.77808  0.72619  0.91786  Biso   1.000  N
  N33      1.0000 0.77816  0.72619  0.91792  Biso   1.000  N
  N34      1.0000 0.77816  0.72619  0.91786  Biso   1.000  N
  N35      1.0000 0.78156  0.71448  0.92280  Biso   1.000  N
  H34      1.0000 0.65727  0.70277  0.00000  Biso   1.000  H
  H35      1.0000 0.69395  0.79816  0.00000  Biso   1.000  H
  H36      1.0000 0.65736  0.70277  0.00000  Biso   1.000  H
  O16      1.0000 0.32303  0.39449  0.12562  Biso   1.000  O
  O17      1.0000 0.32303  0.39449  0.12555  Biso   1.000  O
  O18      1.0000 0.31743  0.41169  0.10388  Biso   1.000  O
  H37      1.0000 0.91188  0.18832  0.00000  Biso   1.000  H
  H38      1.0000 0.91196  0.18832  0.00000  Biso   1.000  H
  N36      1.0000 0.02530  0.22538  0.91700  Biso   1.000  N
  N37      1.0000 0.02454  0.23611  0.92207  Biso   1.000  N
  H39      1.0000 0.01842  0.13089  0.00000  Biso   1.000  H
  C47      1.0000 0.27761  0.25991  0.00000  Biso   1.000  C
  N38      1.0000 0.97470  0.77456  0.91700  Biso   1.000  N
  N39      1.0000 0.97546  0.76389  0.92207  Biso   1.000  N
  H40      1.0000 0.98158  0.86904  0.00000  Biso   1.000  H
  H41      1.0000 0.98166  0.86904  0.00000  Biso   1.000  H
  H42      1.0000 0.08812  0.81168  0.00000  Biso   1.000  H
  C48      1.0000 0.86162  0.78154  0.88057  Biso   1.000  C
  C49      1.0000 0.74667  0.66365  0.85930  Biso   1.000  C
  C50      1.0000 0.74888  0.64606  0.87287  Biso   1.000  C
  C51      1.0000 0.86535  0.76635  0.88077  Biso   1.000  C
  C52      1.0000 0.94762  0.24969  0.85587  Biso   1.000  C
  C53      1.0000 0.94465  0.26761  0.86608  Biso   1.000  C
  C54      1.0000 0.13847  0.21839  0.88057  Biso   1.000  C
  C55      1.0000 0.13465  0.23359  0.88077  Biso   1.000  C
  N40      1.0000 0.22192  0.27381  0.91792  Biso   1.000  N
  N41      1.0000 0.22192  0.27381  0.91786  Biso   1.000  N
  N42      1.0000 0.21844  0.28552  0.92280  Biso   1.000  N
  H43      1.0000 0.30614  0.20177  0.00000  Biso   1.000  H
  H44      1.0000 0.34273  0.29716  0.00000  Biso   1.000  H
  C56      1.0000 0.05247  0.75031  0.85587  Biso   1.000  C
  C57      1.0000 0.05544  0.73239  0.86608  Biso   1.000  C
  H45      1.0000 0.83632  0.84059  0.87978  Biso   1.000  H
  C58      1.0000 0.88013  0.74559  0.78789  Biso   1.000  C
  C59      1.0000 0.88386  0.72075  0.79310  Biso   1.000  C
  H46      1.0000 0.84005  0.82500  0.87366  Biso   1.000  H
  O19      1.0000 0.67705  0.60551  0.87438  Biso   1.000  O
  N43      1.0000 0.80465  0.67438  0.78315  Biso   1.000  N
  O20      1.0000 0.68257  0.58831  0.89605  Biso   1.000  O
  N44      1.0000 0.80873  0.64819  0.79679  Biso   1.000  N
  O21      1.0000 0.84337  0.25590  0.86780  Biso   1.000  O
  O22      1.0000 0.84345  0.25590  0.86780  Biso   1.000  O
  O23      1.0000 0.84294  0.27776  0.88367  Biso   1.000  O
  N45      1.0000 0.99762  0.29697  0.79211  Biso   1.000  N
  N46      1.0000 0.00204  0.27078  0.78019  Biso   1.000  N
  H47      1.0000 0.16377  0.15941  0.87978  Biso   1.000  H
  C60      1.0000 0.11996  0.25441  0.78789  Biso   1.000  C
  H48      1.0000 0.16003  0.17500  0.87366  Biso   1.000  H
  C61      1.0000 0.11614  0.27918  0.79310  Biso   1.000  C
  C62      1.0000 0.25342  0.33629  0.85930  Biso   1.000  C
  C63      1.0000 0.25112  0.35388  0.87287  Biso   1.000  C
  N47      1.0000 0.99805  0.72916  0.78019  Biso   1.000  N
  O24      1.0000 0.15663  0.74410  0.86780  Biso   1.000  O
  O25      1.0000 0.15714  0.72218  0.88367  Biso   1.000  O
  N48      1.0000 0.00238  0.70297  0.79211  Biso   1.000  N
  H49      1.0000 0.85873  0.78769  0.74435  Biso   1.000  H
  H50      1.0000 0.86408  0.75755  0.74455  Biso   1.000  H
  C64      1.0000 0.79107  0.61928  0.70799  Biso   1.000  C
  C65      1.0000 0.79115  0.61928  0.70799  Biso   1.000  C
  C66      1.0000 0.79047  0.58908  0.72617  Biso   1.000  C
  C67      1.0000 0.94456  0.30027  0.70318  Biso   1.000  C
  C68      1.0000 0.93497  0.32717  0.71781  Biso   1.000  C
  H51      1.0000 0.14127  0.21231  0.74435  Biso   1.000  H
  N49      1.0000 0.19543  0.32562  0.78315  Biso   1.000  N
  H52      1.0000 0.14135  0.21231  0.74435  Biso   1.000  H
  N50      1.0000 0.19136  0.35181  0.79679  Biso   1.000  N
  H53      1.0000 0.13592  0.24239  0.74455  Biso   1.000  H
  O26      1.0000 0.32303  0.39449  0.87438  Biso   1.000  O
  O27      1.0000 0.31743  0.41169  0.89605  Biso   1.000  O
  C69      1.0000 0.05552  0.69967  0.70318  Biso   1.000  C
  C70      1.0000 0.06503  0.67277  0.71781  Biso   1.000  C
  H54      1.0000 0.71627  0.59458  0.70951  Biso   1.000  H
  H55      1.0000 0.71636  0.59458  0.70951  Biso   1.000  H
  H56      1.0000 0.79616  0.65447  0.65595  Biso   1.000  H
  H57      1.0000 0.78385  0.62226  0.67301  Biso   1.000  H
  H58      1.0000 0.71882  0.56108  0.73579  Biso   1.000  H
  N51      1.0000 0.87232  0.55048  0.69916  Biso   1.000  N
  N52      1.0000 0.87393  0.52377  0.71023  Biso   1.000  N
  N53      1.0000 0.87393  0.52377  0.71016  Biso   1.000  N
  N54      1.0000 0.93633  0.39067  0.68849  Biso   1.000  N
  H59      1.0000 0.98302  0.27627  0.65312  Biso   1.000  H
  H60      1.0000 0.86909  0.27679  0.70371  Biso   1.000  H
  H61      1.0000 0.98302  0.27627  0.65305  Biso   1.000  H
  H62      1.0000 0.85763  0.30887  0.72479  Biso   1.000  H
  H63      1.0000 0.96468  0.29742  0.66728  Biso   1.000  H
  N55      1.0000 0.93497  0.41596  0.69699  Biso   1.000  N
  C71      1.0000 0.20893  0.38072  0.70799  Biso   1.000  C
  C72      1.0000 0.20953  0.41092  0.72617  Biso   1.000  C
  H64      1.0000 0.01698  0.72366  0.65312  Biso   1.000  H
  H65      1.0000 0.13091  0.72315  0.70371  Biso   1.000  H
  H66      1.0000 0.01698  0.72366  0.65305  Biso   1.000  H
  N56      1.0000 0.06376  0.60926  0.68849  Biso   1.000  N
  H67      1.0000 0.01706  0.72366  0.65312  Biso   1.000  H
  H68      1.0000 0.01706  0.72366  0.65305  Biso   1.000  H
  H69      1.0000 0.14246  0.69107  0.72479  Biso   1.000  H
  H70      1.0000 0.03532  0.70258  0.66728  Biso   1.000  H
  N57      1.0000 0.06512  0.58397  0.69699  Biso   1.000  N
  C73      1.0000 0.97521  0.53560  0.65839  Biso   1.000  C
  C74      1.0000 0.97767  0.55591  0.65305  Biso   1.000  C
  C75      1.0000 0.84481  0.46809  0.71886  Biso   1.000  C
  C76      1.0000 0.84922  0.43860  0.72209  Biso   1.000  C
  C77      1.0000 0.02487  0.46440  0.65839  Biso   1.000  C
  C78      1.0000 0.02241  0.44409  0.65305  Biso   1.000  C
  H71      1.0000 0.28373  0.40535  0.70951  Biso   1.000  H
  H72      1.0000 0.20392  0.34547  0.65595  Biso   1.000  H
  N58      1.0000 0.12768  0.44946  0.69916  Biso   1.000  N
  H73      1.0000 0.21615  0.37768  0.67301  Biso   1.000  H
  H74      1.0000 0.28126  0.43885  0.73579  Biso   1.000  H
  N59      1.0000 0.12607  0.47617  0.71023  Biso   1.000  N
  N60      1.0000 0.12607  0.47617  0.71016  Biso   1.000  N
  N61      1.0000 0.12616  0.47617  0.71023  Biso   1.000  N
  N62      1.0000 0.12616  0.47617  0.71016  Biso   1.000  N
  C79      1.0000 0.15086  0.56140  0.72209  Biso   1.000  C
  C80      1.0000 0.15519  0.53191  0.71886  Biso   1.000  C
  H75      1.0000 0.95645  0.55765  0.60108  Biso   1.000  H
  H76      1.0000 0.96417  0.57188  0.59291  Biso   1.000  H
  O28      1.0000 0.76305  0.40878  0.75687  Biso   1.000  O
  O29      1.0000 0.75567  0.44138  0.75206  Biso   1.000  O
  H77      1.0000 0.04364  0.44228  0.60108  Biso   1.000  H
  H78      1.0000 0.03583  0.42805  0.59291  Biso   1.000  H
  O30      1.0000 0.23703  0.59115  0.75687  Biso   1.000  O
  O31      1.0000 0.24442  0.55856  0.75206  Biso   1.000  O
  C81      1.0000 0.61992  0.24562  0.28786  Biso   1.000  C
  N63      1.0000 0.50200  0.22926  0.28022  Biso   1.000  N
  N64      1.0000 0.49758  0.20300  0.29208  Biso   1.000  N
  H79      1.0000 0.64131  0.28772  0.24438  Biso   1.000  H
  C82      1.0000 0.63842  0.28158  0.38061  Biso   1.000  C
  C83      1.0000 0.63842  0.28164  0.38061  Biso   1.000  C
  N65      1.0000 0.69539  0.17435  0.28318  Biso   1.000  N
  C84      1.0000 0.63460  0.26644  0.38080  Biso   1.000  C
  N66      1.0000 0.69132  0.14822  0.29682  Biso   1.000  N
  H80      1.0000 0.63596  0.25765  0.24458  Biso   1.000  H
  C85      1.0000 0.44452  0.19970  0.20321  Biso   1.000  C
  C86      1.0000 0.44758  0.25027  0.35591  Biso   1.000  C
  C87      1.0000 0.44460  0.23243  0.36612  Biso   1.000  C
  C88      1.0000 0.61610  0.22085  0.29306  Biso   1.000  C
  C89      1.0000 0.43501  0.17280  0.21777  Biso   1.000  C
  N67      1.0000 0.52534  0.27466  0.41697  Biso   1.000  N
  N68      1.0000 0.52449  0.26392  0.42211  Biso   1.000  N
  H81      1.0000 0.66372  0.34062  0.37982  Biso   1.000  H
  N69      1.0000 0.72196  0.22622  0.41789  Biso   1.000  N
  N70      1.0000 0.71840  0.21451  0.42277  Biso   1.000  N
  H82      1.0000 0.65999  0.32497  0.37369  Biso   1.000  H
  C90      1.0000 0.75346  0.16375  0.35926  Biso   1.000  C
  C91      1.0000 0.70889  0.11925  0.20802  Biso   1.000  C
  C92      1.0000 0.75117  0.14616  0.37290  Biso   1.000  C
  C93      1.0000 0.70948  0.08912  0.22620  Biso   1.000  C
  H83      1.0000 0.48298  0.22370  0.15309  Biso   1.000  H
  N71      1.0000 0.43628  0.10929  0.18853  Biso   1.000  N
  N72      1.0000 0.43628  0.10936  0.18853  Biso   1.000  N
  H84      1.0000 0.36913  0.22324  0.20368  Biso   1.000  H
  H85      1.0000 0.35759  0.19110  0.22482  Biso   1.000  H
  H86      1.0000 0.46473  0.20261  0.16731  Biso   1.000  H
  O32      1.0000 0.34341  0.24413  0.36776  Biso   1.000  O
  O33      1.0000 0.34290  0.22221  0.38370  Biso   1.000  O
  N73      1.0000 0.43493  0.08401  0.19702  Biso   1.000  N
  C94      1.0000 0.49342  0.31003  0.49997  Biso   1.000  C
  C95      1.0000 0.77766  0.24012  0.49997  Biso   1.000  C
  O34      1.0000 0.82299  0.10554  0.37442  Biso   1.000  O
  O35      1.0000 0.81739  0.08834  0.39609  Biso   1.000  O
  N74      1.0000 0.62773  0.05051  0.19920  Biso   1.000  N
  H87      1.0000 0.78377  0.09461  0.20947  Biso   1.000  H
  H88      1.0000 0.70396  0.15450  0.15598  Biso   1.000  H
  H89      1.0000 0.71610  0.12236  0.17298  Biso   1.000  H
  H90      1.0000 0.78122  0.06111  0.23582  Biso   1.000  H
  N75      1.0000 0.62611  0.02380  0.21020  Biso   1.000  N
  N76      1.0000 0.62611  0.02386  0.21020  Biso   1.000  N
  C96      1.0000 0.52483  0.03557  0.15842  Biso   1.000  C
  C97      1.0000 0.34918  0.06137  0.22212  Biso   1.000  C
  C98      1.0000 0.52483  0.03563  0.15842  Biso   1.000  C
  C99      1.0000 0.34918  0.06144  0.22212  Biso   1.000  C
  C100     1.0000 0.34485  0.03195  0.21889  Biso   1.000  C
  C101     1.0000 0.52246  0.05588  0.15309  Biso   1.000  C
  H91      1.0000 0.41192  0.31171  0.49997  Biso   1.000  H
  H92      1.0000 0.51838  0.36907  0.49997  Biso   1.000  H
  H93      1.0000 0.51838  0.36914  0.49997  Biso   1.000  H
  N77      1.0000 0.52534  0.27466  0.58297  Biso   1.000  N
  N78      1.0000 0.52449  0.26392  0.57789  Biso   1.000  N
  H94      1.0000 0.80610  0.29820  0.49997  Biso   1.000  H
  H95      1.0000 0.84277  0.20281  0.49997  Biso   1.000  H
  N79      1.0000 0.72196  0.22622  0.58211  Biso   1.000  N
  N80      1.0000 0.71840  0.21451  0.57717  Biso   1.000  N
  C102     1.0000 0.65523  0.96812  0.21889  Biso   1.000  C
  C103     1.0000 0.65082  0.93863  0.22212  Biso   1.000  C
  C104     1.0000 0.65082  0.93856  0.22212  Biso   1.000  C
  C105     1.0000 0.47525  0.96437  0.15842  Biso   1.000  C
  C106     1.0000 0.47763  0.94406  0.15309  Biso   1.000  C
  H96      1.0000 0.54359  0.05769  0.10111  Biso   1.000  H
  H97      1.0000 0.54359  0.05775  0.10111  Biso   1.000  H
  H98      1.0000 0.53578  0.07191  0.09288  Biso   1.000  H
  N81      1.0000 0.37389  0.97620  0.21020  Biso   1.000  N
  N82      1.0000 0.37389  0.97614  0.21020  Biso   1.000  N
  O36      1.0000 0.26301  0.09119  0.25690  Biso   1.000  O
  O37      1.0000 0.26301  0.09125  0.25690  Biso   1.000  O
  O38      1.0000 0.25562  0.05866  0.25209  Biso   1.000  O
  N83      1.0000 0.37227  0.94949  0.19920  Biso   1.000  N
  C107     1.0000 0.44758  0.25027  0.64409  Biso   1.000  C
  C108     1.0000 0.63842  0.28158  0.61939  Biso   1.000  C
  C109     1.0000 0.63842  0.28164  0.61939  Biso   1.000  C
  C110     1.0000 0.44460  0.23243  0.63388  Biso   1.000  C
  C111     1.0000 0.63460  0.26644  0.61920  Biso   1.000  C
  C112     1.0000 0.75346  0.16375  0.64067  Biso   1.000  C
  C113     1.0000 0.75117  0.14616  0.62710  Biso   1.000  C
  N84      1.0000 0.56372  0.89071  0.18853  Biso   1.000  N
  N85      1.0000 0.56372  0.89064  0.18853  Biso   1.000  N
  N86      1.0000 0.56516  0.91599  0.19702  Biso   1.000  N
  O39      1.0000 0.73699  0.90881  0.25690  Biso   1.000  O
  O40      1.0000 0.73699  0.90875  0.25690  Biso   1.000  O
  O41      1.0000 0.74446  0.94134  0.25209  Biso   1.000  O
  H99      1.0000 0.45641  0.94231  0.10111  Biso   1.000  H
  H100     1.0000 0.45641  0.94225  0.10111  Biso   1.000  H
  H101     1.0000 0.46422  0.92809  0.09288  Biso   1.000  H
  C114     1.0000 0.29052  0.91088  0.22620  Biso   1.000  C
  C115     1.0000 0.29111  0.88062  0.20802  Biso   1.000  C
  C116     1.0000 0.29111  0.88068  0.20802  Biso   1.000  C
  N87      1.0000 0.50200  0.22926  0.71978  Biso   1.000  N
  O42      1.0000 0.34341  0.24413  0.63217  Biso   1.000  O
  O43      1.0000 0.34290  0.22221  0.61630  Biso   1.000  O
  N88      1.0000 0.49758  0.20300  0.70786  Biso   1.000  N
  H102     1.0000 0.66372  0.34062  0.62018  Biso   1.000  H
  C117     1.0000 0.61992  0.24562  0.71207  Biso   1.000  C
  H103     1.0000 0.65999  0.32497  0.62631  Biso   1.000  H
  C118     1.0000 0.61610  0.22085  0.70687  Biso   1.000  C
  N89      1.0000 0.69539  0.17435  0.71675  Biso   1.000  N
  N90      1.0000 0.69132  0.14822  0.70318  Biso   1.000  N
  O44      1.0000 0.82299  0.10554  0.62558  Biso   1.000  O
  O45      1.0000 0.81739  0.08834  0.60391  Biso   1.000  O
  C119     1.0000 0.55548  0.80030  0.20321  Biso   1.000  C
  C120     1.0000 0.56499  0.82720  0.21777  Biso   1.000  C
  N91      1.0000 0.30461  0.82558  0.28318  Biso   1.000  N
  H104     1.0000 0.21632  0.90539  0.20947  Biso   1.000  H
  N92      1.0000 0.30868  0.85178  0.29682  Biso   1.000  N
  H105     1.0000 0.28390  0.87771  0.17298  Biso   1.000  H
  H106     1.0000 0.21878  0.93889  0.23582  Biso   1.000  H
  H107     1.0000 0.29612  0.84550  0.15598  Biso   1.000  H
  C121     1.0000 0.44452  0.19970  0.79679  Biso   1.000  C
  C122     1.0000 0.43501  0.17280  0.78216  Biso   1.000  C
  H108     1.0000 0.64131  0.28772  0.75555  Biso   1.000  H
  H109     1.0000 0.63596  0.25765  0.75535  Biso   1.000  H
  C123     1.0000 0.70889  0.11925  0.79198  Biso   1.000  C
  C124     1.0000 0.70948  0.08912  0.77380  Biso   1.000  C
  H110     1.0000 0.51702  0.77630  0.15309  Biso   1.000  H
  H111     1.0000 0.63095  0.77676  0.20368  Biso   1.000  H
  N93      1.0000 0.49800  0.77074  0.28022  Biso   1.000  N
  H112     1.0000 0.64241  0.80890  0.22482  Biso   1.000  H
  H113     1.0000 0.53536  0.79739  0.16731  Biso   1.000  H
  N94      1.0000 0.50242  0.79700  0.29208  Biso   1.000  N
  C125     1.0000 0.38008  0.75438  0.28786  Biso   1.000  C
  C126     1.0000 0.24663  0.83625  0.35926  Biso   1.000  C
  C127     1.0000 0.24892  0.85391  0.37290  Biso   1.000  C
  C128     1.0000 0.38390  0.77921  0.29306  Biso   1.000  C
  H114     1.0000 0.48298  0.22370  0.84685  Biso   1.000  H
  N95      1.0000 0.43628  0.10929  0.81147  Biso   1.000  N
  N96      1.0000 0.43628  0.10936  0.81147  Biso   1.000  N
  H115     1.0000 0.36913  0.22324  0.79626  Biso   1.000  H
  H116     1.0000 0.35759  0.19110  0.77518  Biso   1.000  H
  H117     1.0000 0.46473  0.20261  0.83269  Biso   1.000  H
  N97      1.0000 0.43493  0.08401  0.80298  Biso   1.000  N
  H118     1.0000 0.78377  0.09461  0.79046  Biso   1.000  H
  H119     1.0000 0.70396  0.15450  0.84395  Biso   1.000  H
  N98      1.0000 0.62773  0.05051  0.80080  Biso   1.000  N
  H120     1.0000 0.71610  0.12236  0.82695  Biso   1.000  H
  H121     1.0000 0.78122  0.06111  0.76418  Biso   1.000  H
  N99      1.0000 0.62611  0.02380  0.78980  Biso   1.000  N
  N100     1.0000 0.62611  0.02386  0.78980  Biso   1.000  N
  C129     1.0000 0.55242  0.74966  0.35591  Biso   1.000  C
  C130     1.0000 0.55540  0.76764  0.36612  Biso   1.000  C
  C131     1.0000 0.36158  0.71836  0.38061  Biso   1.000  C
  H122     1.0000 0.35869  0.71228  0.24438  Biso   1.000  H
  C132     1.0000 0.36540  0.73362  0.38080  Biso   1.000  C
  H123     1.0000 0.36412  0.74235  0.24458  Biso   1.000  H
  N101     1.0000 0.27812  0.77378  0.41789  Biso   1.000  N
  O46      1.0000 0.17701  0.89446  0.37442  Biso   1.000  O
  O47      1.0000 0.18261  0.91172  0.39609  Biso   1.000  O
  N102     1.0000 0.28160  0.78549  0.42277  Biso   1.000  N
  C133     1.0000 0.52483  0.03557  0.84158  Biso   1.000  C
  C134     1.0000 0.34918  0.06137  0.77788  Biso   1.000  C
  C135     1.0000 0.52483  0.03563  0.84158  Biso   1.000  C
  C136     1.0000 0.34918  0.06144  0.77788  Biso   1.000  C
  C137     1.0000 0.52246  0.05588  0.84685  Biso   1.000  C
  C138     1.0000 0.34485  0.03195  0.78111  Biso   1.000  C
  C139     1.0000 0.65523  0.96812  0.78111  Biso   1.000  C
  C140     1.0000 0.65082  0.93863  0.77788  Biso   1.000  C
  C141     1.0000 0.65082  0.93856  0.77788  Biso   1.000  C
  N103     1.0000 0.47474  0.72534  0.41697  Biso   1.000  N
  O48      1.0000 0.65659  0.75587  0.36776  Biso   1.000  O
  N104     1.0000 0.47551  0.73608  0.42211  Biso   1.000  N
  O49      1.0000 0.65710  0.77779  0.38370  Biso   1.000  O
  H124     1.0000 0.33628  0.65938  0.37982  Biso   1.000  H
  H125     1.0000 0.34001  0.67497  0.37369  Biso   1.000  H
  C142     1.0000 0.22243  0.75988  0.49997  Biso   1.000  C
  C143     1.0000 0.47525  0.96437  0.84158  Biso   1.000  C
  C144     1.0000 0.47763  0.94406  0.84685  Biso   1.000  C
  H126     1.0000 0.54359  0.05769  0.89889  Biso   1.000  H
  H127     1.0000 0.54359  0.05775  0.89889  Biso   1.000  H
  H128     1.0000 0.53578  0.07191  0.90705  Biso   1.000  H
  N105     1.0000 0.37389  0.97620  0.78980  Biso   1.000  N
  N106     1.0000 0.37389  0.97614  0.78980  Biso   1.000  N
  O50      1.0000 0.26301  0.09119  0.74310  Biso   1.000  O
  O51      1.0000 0.26301  0.09125  0.74310  Biso   1.000  O
  O52      1.0000 0.25562  0.05866  0.74791  Biso   1.000  O
  N107     1.0000 0.37227  0.94949  0.80080  Biso   1.000  N
  N108     1.0000 0.56372  0.89071  0.81147  Biso   1.000  N
  N109     1.0000 0.56372  0.89064  0.81147  Biso   1.000  N
  N110     1.0000 0.56516  0.91599  0.80298  Biso   1.000  N
  O53      1.0000 0.73699  0.90881  0.74310  Biso   1.000  O
  O54      1.0000 0.73699  0.90875  0.74310  Biso   1.000  O
  O55      1.0000 0.74446  0.94134  0.74791  Biso   1.000  O
  C145     1.0000 0.50658  0.68997  0.49997  Biso   1.000  C
  H129     1.0000 0.19390  0.70180  0.49997  Biso   1.000  H
  H130     1.0000 0.15731  0.79719  0.49997  Biso   1.000  H
  N111     1.0000 0.27812  0.77378  0.58211  Biso   1.000  N
  N112     1.0000 0.28160  0.78549  0.57717  Biso   1.000  N
  H131     1.0000 0.45641  0.94231  0.89889  Biso   1.000  H
  H132     1.0000 0.45641  0.94225  0.89889  Biso   1.000  H
  H133     1.0000 0.46422  0.92809  0.90705  Biso   1.000  H
  C146     1.0000 0.29052  0.91088  0.77380  Biso   1.000  C
  C147     1.0000 0.29111  0.88062  0.79198  Biso   1.000  C
  C148     1.0000 0.29111  0.88068  0.79198  Biso   1.000  C
  C149     1.0000 0.55548  0.80030  0.79679  Biso   1.000  C
  C150     1.0000 0.56499  0.82720  0.78216  Biso   1.000  C
  H134     1.0000 0.58808  0.68829  0.49997  Biso   1.000  H
  H135     1.0000 0.48162  0.63093  0.49997  Biso   1.000  H
  N113     1.0000 0.47474  0.72534  0.58297  Biso   1.000  N
  H136     1.0000 0.48162  0.63086  0.49997  Biso   1.000  H
  N114     1.0000 0.47551  0.73608  0.57789  Biso   1.000  N
  C151     1.0000 0.36158  0.71836  0.61939  Biso   1.000  C
  C152     1.0000 0.24663  0.83625  0.64067  Biso   1.000  C
  C153     1.0000 0.24892  0.85391  0.62710  Biso   1.000  C
  C154     1.0000 0.36540  0.73362  0.61920  Biso   1.000  C
  N115     1.0000 0.30461  0.82558  0.71675  Biso   1.000  N
  N116     1.0000 0.30868  0.85178  0.70318  Biso   1.000  N
  H137     1.0000 0.21632  0.90539  0.79046  Biso   1.000  H
  H138     1.0000 0.28390  0.87771  0.82695  Biso   1.000  H
  H139     1.0000 0.21878  0.93889  0.76418  Biso   1.000  H
  H140     1.0000 0.29612  0.84550  0.84395  Biso   1.000  H
  N117     1.0000 0.49800  0.77074  0.71978  Biso   1.000  N
  N118     1.0000 0.50242  0.79700  0.70786  Biso   1.000  N
  H141     1.0000 0.51702  0.77630  0.84685  Biso   1.000  H
  H142     1.0000 0.63095  0.77676  0.79626  Biso   1.000  H
  H143     1.0000 0.64241  0.80890  0.77518  Biso   1.000  H
  H144     1.0000 0.53536  0.79739  0.83269  Biso   1.000  H
  C155     1.0000 0.55242  0.74966  0.64409  Biso   1.000  C
  C156     1.0000 0.55540  0.76764  0.63388  Biso   1.000  C
  C157     1.0000 0.38008  0.75438  0.71207  Biso   1.000  C
  H145     1.0000 0.33628  0.65938  0.62018  Biso   1.000  H
  C158     1.0000 0.38390  0.77921  0.70687  Biso   1.000  C
  H146     1.0000 0.34001  0.67497  0.62631  Biso   1.000  H
  O56      1.0000 0.17701  0.89446  0.62558  Biso   1.000  O
  O57      1.0000 0.18261  0.91172  0.60391  Biso   1.000  O
  O58      1.0000 0.65659  0.75587  0.63217  Biso   1.000  O
  O59      1.0000 0.65710  0.77779  0.61630  Biso   1.000  O
  H147     1.0000 0.35869  0.71228  0.75555  Biso   1.000  H
  H148     1.0000 0.36412  0.74235  0.75535  Biso   1.000  H
