data_image0
_cell_length_a       12.687
_cell_length_b       15.945
_cell_length_c       35.622
_cell_angle_alpha    86.38
_cell_angle_beta     88.63
_cell_angle_gamma    67.12

_symmetry_space_group_name_H-M    "P 1"
_symmetry_int_tables_number       1

loop_
  _symmetry_equiv_pos_as_xyz
  'x, y, z'

loop_
  _atom_site_label
  _atom_site_occupancy
  _atom_site_fract_x
  _atom_site_fract_y
  _atom_site_fract_z
  _atom_site_thermal_displace_type
  _atom_site_B_iso_or_equiv
  _atom_site_type_symbol
  O1       1.0000 0.09543  0.82716  0.39369  Biso   1.000  O
  C1       1.0000 0.17332  0.79693  0.41630  Biso   1.000  C
  N1       1.0000 0.18689  0.72977  0.44350  Biso   1.000  N
  N2       1.0000 0.26174  0.82394  0.41839  Biso   1.000  N
  C2       1.0000 0.10788  0.68437  0.44930  Biso   1.000  C
  C3       1.0000 0.10780  0.68437  0.44930  Biso   1.000  C
  C4       1.0000 0.29247  0.70655  0.46519  Biso   1.000  C
  C5       1.0000 0.29239  0.70655  0.46519  Biso   1.000  C
  C6       1.0000 0.34797  0.76848  0.44511  Biso   1.000  C
  C7       1.0000 0.28422  0.88677  0.39051  Biso   1.000  C
  N3       1.0000 0.03586  0.71177  0.48311  Biso   1.000  N
  N4       1.0000 0.03578  0.71177  0.48311  Biso   1.000  N
  H1       1.0000 0.05771  0.69815  0.42699  Biso   1.000  H
  H2       1.0000 0.15198  0.61769  0.45149  Biso   1.000  H
  N5       1.0000 0.27774  0.73046  0.50350  Biso   1.000  N
  H3       1.0000 0.34302  0.64078  0.46339  Biso   1.000  H
  N6       1.0000 0.36378  0.81707  0.47599  Biso   1.000  N
  H4       1.0000 0.42190  0.73248  0.43259  Biso   1.000  H
  N7       1.0000 0.36370  0.81707  0.47599  Biso   1.000  N
  H5       1.0000 0.23587  0.89491  0.36809  Biso   1.000  H
  H6       1.0000 0.36529  0.85925  0.38249  Biso   1.000  H
  N8       1.0000 0.26197  0.97536  0.40469  Biso   1.000  N
  H7       1.0000 0.36521  0.85925  0.38249  Biso   1.000  H
  N9       1.0000 0.26189  0.97536  0.40469  Biso   1.000  N
  C8       1.0000 0.91772  0.75607  0.47748  Biso   1.000  C
  C9       1.0000 0.06686  0.66415  0.51940  Biso   1.000  C
  C10      1.0000 0.25780  0.67316  0.53321  Biso   1.000  C
  C11      1.0000 0.33437  0.78635  0.51070  Biso   1.000  C
  C12      1.0000 0.43584  0.86946  0.47470  Biso   1.000  C
  C13      1.0000 0.34913  0.99467  0.42171  Biso   1.000  C
  C14      1.0000 0.17881  0.05235  0.39029  Biso   1.000  C
  C15      1.0000 0.17873  0.05235  0.39029  Biso   1.000  C
  O2       1.0000 0.87066  0.79245  0.44989  Biso   1.000  O
  N10      1.0000 0.87037  0.75208  0.51329  Biso   1.000  N
  N11      1.0000 0.87029  0.75208  0.51329  Biso   1.000  N
  C16      1.0000 0.95232  0.69868  0.54190  Biso   1.000  C
  H8       1.0000 0.09955  0.59651  0.51779  Biso   1.000  H
  N12      1.0000 0.13835  0.69502  0.54131  Biso   1.000  N
  H9       1.0000 0.09950  0.59645  0.51779  Biso   1.000  H
  N13      1.0000 0.13831  0.69495  0.54131  Biso   1.000  N
  H10      1.0000 0.29356  0.60899  0.52629  Biso   1.000  H
  H11      1.0000 0.29599  0.67858  0.55639  Biso   1.000  H
  H12      1.0000 0.29348  0.60899  0.52629  Biso   1.000  H
  H13      1.0000 0.29592  0.67858  0.55639  Biso   1.000  H
  O3       1.0000 0.34820  0.80789  0.54120  Biso   1.000  O
  H14      1.0000 0.46601  0.86810  0.50018  Biso   1.000  H
  H15      1.0000 0.50169  0.84073  0.45791  Biso   1.000  H
  N14      1.0000 0.37290  0.96463  0.46120  Biso   1.000  N
  H16      1.0000 0.50161  0.84073  0.45791  Biso   1.000  H
  N15      1.0000 0.37282  0.96463  0.46120  Biso   1.000  N
  H17      1.0000 0.42074  0.97445  0.40629  Biso   1.000  H
  C17      1.0000 0.29427  0.10165  0.42379  Biso   1.000  C
  N16      1.0000 0.18997  0.12552  0.40429  Biso   1.000  N
  O4       1.0000 0.10364  0.05581  0.36829  Biso   1.000  O
  C18      1.0000 0.74777  0.79865  0.51999  Biso   1.000  C
  H18      1.0000 0.93363  0.64699  0.55309  Biso   1.000  H
  N17      1.0000 0.97127  0.75118  0.57008  Biso   1.000  N
  N18      1.0000 0.97120  0.75118  0.57008  Biso   1.000  N
  C19      1.0000 0.08343  0.74160  0.57188  Biso   1.000  C
  C20      1.0000 0.33668  0.03533  0.48491  Biso   1.000  C
  H19      1.0000 0.34386  0.13123  0.41149  Biso   1.000  H
  N19      1.0000 0.28334  0.11367  0.46390  Biso   1.000  N
  C21      1.0000 0.10436  0.21825  0.39740  Biso   1.000  C
  N20      1.0000 0.71661  0.88649  0.53610  Biso   1.000  N
  H20      1.0000 0.72199  0.75906  0.53709  Biso   1.000  H
  H21      1.0000 0.70661  0.80766  0.49580  Biso   1.000  H
  H22      1.0000 0.72191  0.75906  0.53709  Biso   1.000  H
  C22      1.0000 0.89567  0.78190  0.60260  Biso   1.000  C
  C23      1.0000 0.89559  0.78190  0.60260  Biso   1.000  C
  O5       1.0000 0.12422  0.77190  0.59489  Biso   1.000  O
  O6       1.0000 0.34997  0.02678  0.51838  Biso   1.000  O
  C24      1.0000 0.25230  0.20144  0.47999  Biso   1.000  C
  C25      1.0000 0.25222  0.20144  0.47999  Biso   1.000  C
  H23      1.0000 0.05775  0.22024  0.37521  Biso   1.000  H
  H24      1.0000 0.14371  0.26045  0.39169  Biso   1.000  H
  H25      1.0000 0.14364  0.26045  0.39169  Biso   1.000  H
  N21      1.0000 0.02879  0.24891  0.42989  Biso   1.000  N
  C26      1.0000 0.70576  0.89851  0.57619  Biso   1.000  C
  C27      1.0000 0.66331  0.96475  0.51509  Biso   1.000  C
  C28      1.0000 0.70568  0.89851  0.57619  Biso   1.000  C
  N22      1.0000 0.81010  0.87457  0.59571  Biso   1.000  N
  N23      1.0000 0.81002  0.87457  0.59571  Biso   1.000  N
  H26      1.0000 0.94221  0.77991  0.62479  Biso   1.000  H
  H27      1.0000 0.85632  0.73971  0.60831  Biso   1.000  H
  N24      1.0000 0.12967  0.24807  0.48671  Biso   1.000  N
  H28      1.0000 0.29338  0.19243  0.50421  Biso   1.000  H
  H29      1.0000 0.27808  0.24103  0.46289  Biso   1.000  H
  C29      1.0000 0.91653  0.25856  0.42809  Biso   1.000  C
  C30      1.0000 0.04764  0.30148  0.45810  Biso   1.000  C
  C31      1.0000 0.04767  0.30141  0.45810  Biso   1.000  C
  O7       1.0000 0.64999  0.97338  0.48159  Biso   1.000  O
  N25      1.0000 0.62717  0.03546  0.53880  Biso   1.000  N
  H30      1.0000 0.65613  0.86885  0.58851  Biso   1.000  H
  C32      1.0000 0.65082  0.00549  0.57830  Biso   1.000  C
  C33      1.0000 0.82122  0.94781  0.60969  Biso   1.000  C
  C34      1.0000 0.08224  0.24409  0.52249  Biso   1.000  C
  C35      1.0000 0.08227  0.24402  0.52249  Biso   1.000  C
  N26      1.0000 0.86168  0.30514  0.45869  Biso   1.000  N
  O8       1.0000 0.87581  0.22826  0.40511  Biso   1.000  O
  O9       1.0000 0.87574  0.22826  0.40511  Biso   1.000  O
  C36      1.0000 0.93313  0.33593  0.48061  Biso   1.000  C
  H31      1.0000 0.06641  0.35317  0.44691  Biso   1.000  H
  H32      1.0000 0.06633  0.35317  0.44691  Biso   1.000  H
  C37      1.0000 0.56419  0.13069  0.52530  Biso   1.000  C
  C38      1.0000 0.56415  0.13063  0.52530  Biso   1.000  C
  H33      1.0000 0.57930  0.02570  0.59368  Biso   1.000  H
  N27      1.0000 0.73806  0.02480  0.59529  Biso   1.000  N
  H34      1.0000 0.57922  0.02570  0.59368  Biso   1.000  H
  O10      1.0000 0.89635  0.94428  0.63169  Biso   1.000  O
  N28      1.0000 0.96418  0.28838  0.51689  Biso   1.000  N
  O11      1.0000 0.12933  0.20764  0.55008  Biso   1.000  O
  C39      1.0000 0.74219  0.32693  0.46680  Biso   1.000  C
  H35      1.0000 0.90049  0.40364  0.48221  Biso   1.000  H
  H36      1.0000 0.53395  0.13206  0.49979  Biso   1.000  H
  H37      1.0000 0.49838  0.15936  0.54210  Biso   1.000  H
  N29      1.0000 0.63626  0.18309  0.52401  Biso   1.000  N
  N30      1.0000 0.63629  0.18302  0.52401  Biso   1.000  N
  C40      1.0000 0.71581  0.11339  0.60949  Biso   1.000  C
  C41      1.0000 0.71573  0.11339  0.60949  Biso   1.000  C
  C42      1.0000 0.89216  0.31579  0.55070  Biso   1.000  C
  N31      1.0000 0.72225  0.26963  0.49650  Biso   1.000  N
  H38      1.0000 0.70648  0.39117  0.47369  Biso   1.000  H
  H39      1.0000 0.70404  0.32157  0.44359  Biso   1.000  H
  H40      1.0000 0.70407  0.32151  0.44359  Biso   1.000  H
  C43      1.0000 0.65198  0.23167  0.55489  Biso   1.000  C
  C44      1.0000 0.66570  0.21374  0.48930  Biso   1.000  C
  C45      1.0000 0.66562  0.21374  0.48930  Biso   1.000  C
  H41      1.0000 0.76420  0.10517  0.63191  Biso   1.000  H
  N32      1.0000 0.73833  0.17615  0.58159  Biso   1.000  N
  H42      1.0000 0.76412  0.10517  0.63191  Biso   1.000  H
  H43      1.0000 0.63478  0.14084  0.61751  Biso   1.000  H
  N33      1.0000 0.73825  0.17615  0.58159  Biso   1.000  N
  N34      1.0000 0.81307  0.27038  0.55650  Biso   1.000  N
  H44      1.0000 0.94228  0.30194  0.57301  Biso   1.000  H
  H45      1.0000 0.84798  0.38247  0.54851  Biso   1.000  H
  C46      1.0000 0.70760  0.29354  0.53481  Biso   1.000  C
  H46      1.0000 0.57806  0.26768  0.56738  Biso   1.000  H
  O12      1.0000 0.65176  0.19226  0.45881  Biso   1.000  O
  C47      1.0000 0.82667  0.20315  0.58370  Biso   1.000  C
  H47      1.0000 0.65694  0.35938  0.53661  Biso   1.000  H
  O13      1.0000 0.90460  0.17299  0.60631  Biso   1.000  O
  O14      1.0000 0.90453  0.17299  0.60631  Biso   1.000  O
  O15      1.0000 0.62930  0.64267  0.32272  Biso   1.000  O
  C48      1.0000 0.65444  0.56488  0.33611  Biso   1.000  C
  N35      1.0000 0.58863  0.53514  0.36100  Biso   1.000  N
  N36      1.0000 0.75171  0.49117  0.32880  Biso   1.000  N
  C49      1.0000 0.49227  0.59948  0.38061  Biso   1.000  C
  C50      1.0000 0.65384  0.44415  0.37721  Biso   1.000  C
  C51      1.0000 0.76341  0.41168  0.35271  Biso   1.000  C
  C52      1.0000 0.84333  0.49825  0.30621  Biso   1.000  C
  N37      1.0000 0.38319  0.59947  0.37110  Biso   1.000  N
  H48      1.0000 0.49085  0.66154  0.37501  Biso   1.000  H
  H49      1.0000 0.50449  0.58539  0.40801  Biso   1.000  H
  N38      1.0000 0.60642  0.37764  0.37240  Biso   1.000  N
  H50      1.0000 0.67251  0.44563  0.40421  Biso   1.000  H
  N39      1.0000 0.75429  0.33737  0.33330  Biso   1.000  N
  H51      1.0000 0.83429  0.39045  0.36849  Biso   1.000  H
  H52      1.0000 0.83178  0.56333  0.30281  Biso   1.000  H
  H53      1.0000 0.91616  0.46587  0.31999  Biso   1.000  H
  N40      1.0000 0.85335  0.46163  0.26970  Biso   1.000  N
  C53      1.0000 0.33979  0.53315  0.38609  Biso   1.000  C
  C54      1.0000 0.30621  0.66567  0.34680  Biso   1.000  C
  C55      1.0000 0.50641  0.37549  0.39141  Biso   1.000  C
  C56      1.0000 0.66868  0.31318  0.34739  Biso   1.000  C
  C57      1.0000 0.85062  0.27488  0.31361  Biso   1.000  C
  C58      1.0000 0.91472  0.36436  0.26199  Biso   1.000  C
  C59      1.0000 0.81973  0.51586  0.23721  Biso   1.000  C
  C60      1.0000 0.22200  0.56332  0.36531  Biso   1.000  C
  N41      1.0000 0.40019  0.44158  0.37369  Biso   1.000  N
  H54      1.0000 0.33087  0.53403  0.41400  Biso   1.000  H
  N42      1.0000 0.21175  0.64483  0.34399  Biso   1.000  N
  O16      1.0000 0.32040  0.73133  0.33259  Biso   1.000  O
  H55      1.0000 0.50659  0.31339  0.39110  Biso   1.000  H
  H56      1.0000 0.50858  0.38949  0.41799  Biso   1.000  H
  O17      1.0000 0.65321  0.24644  0.34039  Biso   1.000  O
  H57      1.0000 0.92205  0.26775  0.32649  Biso   1.000  H
  H58      1.0000 0.84541  0.21443  0.31459  Biso   1.000  H
  N43      1.0000 0.85658  0.30504  0.27420  Biso   1.000  N
  C61      1.0000 0.90959  0.36525  0.21921  Biso   1.000  C
  H59      1.0000 0.99542  0.34002  0.27139  Biso   1.000  H
  N44      1.0000 0.85067  0.46104  0.20711  Biso   1.000  N
  O18      1.0000 0.77670  0.59822  0.23530  Biso   1.000  O
  N45      1.0000 0.23271  0.48722  0.34421  Biso   1.000  N
  H60      1.0000 0.15810  0.57573  0.38390  Biso   1.000  H
  C62      1.0000 0.33593  0.41384  0.35279  Biso   1.000  C
  C63      1.0000 0.11194  0.70295  0.32390  Biso   1.000  C
  C64      1.0000 0.82551  0.26952  0.24531  Biso   1.000  C
  N46      1.0000 0.84501  0.30932  0.21229  Biso   1.000  N
  H61      1.0000 0.98801  0.33905  0.20810  Biso   1.000  H
  C65      1.0000 0.82323  0.49824  0.16891  Biso   1.000  C
  C66      1.0000 0.13654  0.47614  0.32871  Biso   1.000  C
  O19      1.0000 0.36184  0.33683  0.34190  Biso   1.000  O
  N47      1.0000 0.10342  0.67005  0.28759  Biso   1.000  N
  H62      1.0000 0.04353  0.70796  0.33901  Biso   1.000  H
  H63      1.0000 0.11304  0.76461  0.32019  Biso   1.000  H
  O20      1.0000 0.78431  0.21086  0.24801  Biso   1.000  O
  C67      1.0000 0.83781  0.27575  0.17631  Biso   1.000  C
  N48      1.0000 0.72109  0.49113  0.15471  Biso   1.000  N
  H64      1.0000 0.81242  0.56328  0.16770  Biso   1.000  H
  H65      1.0000 0.88851  0.46579  0.15240  Biso   1.000  H
  N49      1.0000 0.10816  0.51427  0.29071  Biso   1.000  N
  H66      1.0000 0.15231  0.41025  0.32919  Biso   1.000  H
  H67      1.0000 0.06933  0.50516  0.34489  Biso   1.000  H
  C68      1.0000 0.04377  0.61066  0.28061  Biso   1.000  C
  C69      1.0000 0.11952  0.71162  0.25361  Biso   1.000  C
  N50      1.0000 0.73615  0.33440  0.15541  Biso   1.000  N
  H68      1.0000 0.90654  0.27072  0.16140  Biso   1.000  H
  H69      1.0000 0.83709  0.21394  0.18019  Biso   1.000  H
  C70      1.0000 0.62110  0.56532  0.14849  Biso   1.000  C
  C71      1.0000 0.72794  0.41559  0.13299  Biso   1.000  C
  C72      1.0000 0.13316  0.46227  0.26039  Biso   1.000  C
  C73      1.0000 0.03484  0.61441  0.23831  Biso   1.000  C
  H70      1.0000 0.96638  0.63285  0.29259  Biso   1.000  H
  N51      1.0000 0.08961  0.67399  0.22520  Biso   1.000  N
  O21      1.0000 0.15590  0.77192  0.25080  Biso   1.000  O
  C74      1.0000 0.64116  0.31393  0.15189  Biso   1.000  C
  N52      1.0000 0.55099  0.53938  0.12889  Biso   1.000  N
  O22      1.0000 0.60090  0.63999  0.16059  Biso   1.000  O
  C75      1.0000 0.60807  0.44851  0.11491  Biso   1.000  C
  H71      1.0000 0.78960  0.40208  0.11350  Biso   1.000  H
  O23      1.0000 0.17891  0.37996  0.26140  Biso   1.000  O
  N53      1.0000 0.09339  0.51931  0.22869  Biso   1.000  N
  H72      1.0000 0.95294  0.63924  0.23021  Biso   1.000  H
  C76      1.0000 0.09482  0.70628  0.18610  Biso   1.000  C
  N54      1.0000 0.56440  0.38164  0.12849  Biso   1.000  N
  O24      1.0000 0.62703  0.24804  0.16579  Biso   1.000  O
  C77      1.0000 0.44643  0.60637  0.11150  Biso   1.000  C
  H73      1.0000 0.61311  0.45126  0.08681  Biso   1.000  H
  C78      1.0000 0.10029  0.48494  0.19170  Biso   1.000  C
  H74      1.0000 0.09996  0.76678  0.18571  Biso   1.000  H
  H75      1.0000 0.02346  0.71377  0.17310  Biso   1.000  H
  N55      1.0000 0.19099  0.64461  0.16641  Biso   1.000  N
  C79      1.0000 0.45579  0.38273  0.11941  Biso   1.000  C
  N56      1.0000 0.34285  0.60507  0.12931  Biso   1.000  N
  H76      1.0000 0.44552  0.59419  0.08461  Biso   1.000  H
  H77      1.0000 0.44713  0.66801  0.11271  Biso   1.000  H
  H78      1.0000 0.02755  0.51952  0.17820  Biso   1.000  H
  H79      1.0000 0.10958  0.42021  0.19451  Biso   1.000  H
  N57      1.0000 0.19318  0.49161  0.16959  Biso   1.000  N
  C80      1.0000 0.18610  0.57150  0.14669  Biso   1.000  C
  C81      1.0000 0.27645  0.66980  0.15291  Biso   1.000  C
  N58      1.0000 0.35968  0.44689  0.13879  Biso   1.000  N
  H80      1.0000 0.44359  0.39661  0.09201  Biso   1.000  H
  H81      1.0000 0.45682  0.32079  0.12509  Biso   1.000  H
  C82      1.0000 0.29447  0.53921  0.12239  Biso   1.000  C
  C83      1.0000 0.29352  0.41769  0.16281  Biso   1.000  C
  H82      1.0000 0.11635  0.59341  0.13040  Biso   1.000  H
  O25      1.0000 0.29199  0.73712  0.16061  Biso   1.000  O
  H83      1.0000 0.27678  0.53932  0.09519  Biso   1.000  H
  O26      1.0000 0.31461  0.33930  0.17507  Biso   1.000  O
  C84      1.0000 0.78090  0.94799  0.09828  Biso   1.000  C
  N59      1.0000 0.77297  0.87658  0.08098  Biso   1.000  N
  N60      1.0000 0.77289  0.87658  0.08098  Biso   1.000  N
  N61      1.0000 0.70003  0.02726  0.08360  Biso   1.000  N
  O27      1.0000 0.85036  0.94144  0.12098  Biso   1.000  O
  C85      1.0000 0.85147  0.78221  0.08931  Biso   1.000  C
  C86      1.0000 0.85151  0.78215  0.08928  Biso   1.000  C
  C87      1.0000 0.67259  0.90495  0.05710  Biso   1.000  C
  C88      1.0000 0.61791  0.01027  0.06039  Biso   1.000  C
  C89      1.0000 0.67805  0.11281  0.09960  Biso   1.000  C
  C90      1.0000 0.67816  0.11274  0.09960  Biso   1.000  C
  H84      1.0000 0.61903  0.87589  0.06619  Biso   1.000  H
  N62      1.0000 0.69336  0.89603  0.01820  Biso   1.000  N
  H85      1.0000 0.88812  0.77769  0.11401  Biso   1.000  H
  N63      1.0000 0.93948  0.74938  0.06110  Biso   1.000  N
  H86      1.0000 0.80753  0.74269  0.09108  Biso   1.000  H
  N64      1.0000 0.93940  0.74938  0.06110  Biso   1.000  N
  H87      1.0000 0.54087  0.03011  0.07260  Biso   1.000  H
  H88      1.0000 0.54090  0.03005  0.07260  Biso   1.000  H
  H89      1.0000 0.54082  0.03005  0.07260  Biso   1.000  H
  N65      1.0000 0.61057  0.04391  0.02231  Biso   1.000  N
  H90      1.0000 0.72067  0.10118  0.12351  Biso   1.000  H
  H91      1.0000 0.72067  0.10119  0.12348  Biso   1.000  H
  N66      1.0000 0.71020  0.17572  0.07499  Biso   1.000  N
  H92      1.0000 0.59543  0.14187  0.10540  Biso   1.000  H
  H93      1.0000 0.72074  0.10119  0.12348  Biso   1.000  H
  N67      1.0000 0.71028  0.17572  0.07499  Biso   1.000  N
  C91      1.0000 0.65216  0.97731  0.99800  Biso   1.000  C
  C92      1.0000 0.73273  0.80820  0.00059  Biso   1.000  C
  C93      1.0000 0.73276  0.80813  0.00059  Biso   1.000  C
  C94      1.0000 0.92695  0.70433  0.02740  Biso   1.000  C
  C95      1.0000 0.04997  0.73813  0.06700  Biso   1.000  C
  C96      1.0000 0.55684  0.13912  0.00999  Biso   1.000  C
  C97      1.0000 0.55672  0.13918  0.01001  Biso   1.000  C
  C98      1.0000 0.64114  0.23285  0.04560  Biso   1.000  C
  C99      1.0000 0.80508  0.19517  0.08278  Biso   1.000  C
  C100     1.0000 0.80516  0.19517  0.08278  Biso   1.000  C
  O28      1.0000 0.64946  0.98804  0.96360  Biso   1.000  O
  O29      1.0000 0.64954  0.98804  0.96360  Biso   1.000  O
  N68      1.0000 0.85763  0.76481  0.99980  Biso   1.000  N
  H94      1.0000 0.70297  0.81814  0.97460  Biso   1.000  H
  N69      1.0000 0.85774  0.76474  0.99980  Biso   1.000  N
  H95      1.0000 0.70194  0.76731  0.01480  Biso   1.000  H
  H96      1.0000 0.70197  0.76725  0.01480  Biso   1.000  H
  H97      1.0000 0.70189  0.76725  0.01480  Biso   1.000  H
  H98      1.0000 0.90248  0.65267  0.03409  Biso   1.000  H
  C101     1.0000 0.05015  0.67087  0.01131  Biso   1.000  C
  C102     1.0000 0.05015  0.67088  0.01128  Biso   1.000  C
  C103     1.0000 0.05008  0.67088  0.01128  Biso   1.000  C
  N70      1.0000 0.11384  0.69536  0.03741  Biso   1.000  N
  O30      1.0000 0.08484  0.76057  0.09460  Biso   1.000  O
  N71      1.0000 0.11384  0.69536  0.03738  Biso   1.000  N
  H99      1.0000 0.53213  0.14444  0.98349  Biso   1.000  H
  H100     1.0000 0.53209  0.14437  0.98349  Biso   1.000  H
  H101     1.0000 0.48769  0.16864  0.02551  Biso   1.000  H
  N72      1.0000 0.63363  0.18771  0.01300  Biso   1.000  N
  H102     1.0000 0.48769  0.16865  0.02548  Biso   1.000  H
  N73      1.0000 0.63351  0.18777  0.01300  Biso   1.000  N
  C104     1.0000 0.70640  0.29276  0.03111  Biso   1.000  C
  C105     1.0000 0.70640  0.29276  0.03108  Biso   1.000  C
  H103     1.0000 0.56341  0.27127  0.05499  Biso   1.000  H
  C106     1.0000 0.70632  0.29276  0.03111  Biso   1.000  C
  N74      1.0000 0.80347  0.26318  0.05679  Biso   1.000  N
  O31      1.0000 0.87297  0.16198  0.10810  Biso   1.000  O
  N75      1.0000 0.80350  0.26312  0.05679  Biso   1.000  N
  N76      1.0000 0.80358  0.26312  0.05679  Biso   1.000  N
  O32      1.0000 0.87304  0.16198  0.10810  Biso   1.000  O
  C107     1.0000 0.91674  0.76880  0.96729  Biso   1.000  C
  C108     1.0000 0.91685  0.76874  0.96729  Biso   1.000  C
  C109     1.0000 0.91677  0.76874  0.96729  Biso   1.000  C
  N77      1.0000 0.03304  0.72335  0.97581  Biso   1.000  N
  N78      1.0000 0.03312  0.72335  0.97578  Biso   1.000  N
  N79      1.0000 0.03312  0.72335  0.97581  Biso   1.000  N
  H104     1.0000 0.08263  0.60376  0.00790  Biso   1.000  H
  C110     1.0000 0.23589  0.67307  0.03471  Biso   1.000  C
  C111     1.0000 0.23581  0.67307  0.03471  Biso   1.000  C
  C112     1.0000 0.67599  0.21973  0.98250  Biso   1.000  C
  C113     1.0000 0.67602  0.21966  0.98250  Biso   1.000  C
  N80      1.0000 0.73196  0.27009  0.99269  Biso   1.000  N
  N81      1.0000 0.73188  0.27009  0.99269  Biso   1.000  N
  H105     1.0000 0.65811  0.35908  0.03291  Biso   1.000  H
  H106     1.0000 0.65814  0.35901  0.03288  Biso   1.000  H
  H107     1.0000 0.65803  0.35908  0.03291  Biso   1.000  H
  C114     1.0000 0.88735  0.30324  0.05609  Biso   1.000  C
  O33      1.0000 0.87635  0.80733  0.93750  Biso   1.000  O
  O34      1.0000 0.87642  0.80733  0.93750  Biso   1.000  O
  C115     1.0000 0.11251  0.69690  0.94391  Biso   1.000  C
  C116     1.0000 0.11262  0.69683  0.94388  Biso   1.000  C
  C117     1.0000 0.11259  0.69690  0.94391  Biso   1.000  C
  H108     1.0000 0.27413  0.60880  0.02810  Biso   1.000  H
  N82      1.0000 0.26814  0.73005  0.00731  Biso   1.000  N
  N83      1.0000 0.26814  0.73005  0.00729  Biso   1.000  N
  H109     1.0000 0.26450  0.67804  0.05969  Biso   1.000  H
  H110     1.0000 0.27416  0.60873  0.02810  Biso   1.000  H
  O35      1.0000 0.66468  0.20303  0.94951  Biso   1.000  O
  O36      1.0000 0.66472  0.20297  0.94948  Biso   1.000  O
  C118     1.0000 0.76417  0.32714  0.96529  Biso   1.000  C
  C119     1.0000 0.76420  0.32707  0.96529  Biso   1.000  C
  H111     1.0000 0.93161  0.28491  0.07980  Biso   1.000  H
  H112     1.0000 0.84749  0.37048  0.05479  Biso   1.000  H
  H113     1.0000 0.93156  0.28484  0.07980  Biso   1.000  H
  H114     1.0000 0.84753  0.37041  0.05479  Biso   1.000  H
  N84      1.0000 0.96693  0.27672  0.02419  Biso   1.000  N
  H115     1.0000 0.84741  0.37048  0.05479  Biso   1.000  H
  N85      1.0000 0.96682  0.27679  0.02419  Biso   1.000  N
  H116     1.0000 0.93164  0.28484  0.07980  Biso   1.000  H
  H117     1.0000 0.06841  0.71523  0.92020  Biso   1.000  H
  H118     1.0000 0.15253  0.62966  0.94521  Biso   1.000  H
  N86      1.0000 0.19655  0.73696  0.94318  Biso   1.000  N
  N87      1.0000 0.19647  0.73696  0.94318  Biso   1.000  N
  C120     1.0000 0.29354  0.70738  0.96889  Biso   1.000  C
  C121     1.0000 0.29365  0.70731  0.96889  Biso   1.000  C
  C122     1.0000 0.32408  0.78048  0.01750  Biso   1.000  C
  C123     1.0000 0.32400  0.78048  0.01750  Biso   1.000  C
  H119     1.0000 0.73552  0.32210  0.94031  Biso   1.000  H
  H120     1.0000 0.72593  0.39141  0.97190  Biso   1.000  H
  N88      1.0000 0.88622  0.30485  0.96259  Biso   1.000  N
  H121     1.0000 0.73552  0.32210  0.94028  Biso   1.000  H
  H122     1.0000 0.72586  0.39141  0.97190  Biso   1.000  H
  N89      1.0000 0.88618  0.30478  0.96259  Biso   1.000  N
  H123     1.0000 0.73544  0.32210  0.94028  Biso   1.000  H
  C124     1.0000 0.94991  0.32933  0.98869  Biso   1.000  C
  C125     1.0000 0.94986  0.32927  0.98869  Biso   1.000  C
  C126     1.0000 0.08320  0.23134  0.03271  Biso   1.000  C
  C127     1.0000 0.08320  0.23134  0.03269  Biso   1.000  C
  C128     1.0000 0.19494  0.80497  0.91719  Biso   1.000  C
  C129     1.0000 0.19489  0.80490  0.91719  Biso   1.000  C
  C130     1.0000 0.35872  0.76730  0.95440  Biso   1.000  C
  H124     1.0000 0.34183  0.64106  0.96709  Biso   1.000  H
  H125     1.0000 0.34191  0.64106  0.96709  Biso   1.000  H
  C131     1.0000 0.35879  0.76730  0.95440  Biso   1.000  C
  N90      1.0000 0.36635  0.81237  0.98700  Biso   1.000  N
  N91      1.0000 0.36643  0.81237  0.98700  Biso   1.000  N
  O37      1.0000 0.33538  0.79718  0.05049  Biso   1.000  O
  O38      1.0000 0.33530  0.79718  0.05049  Biso   1.000  O
  C132     1.0000 0.95013  0.26201  0.93300  Biso   1.000  C
  C133     1.0000 0.95005  0.26201  0.93300  Biso   1.000  C
  H126     1.0000 0.91739  0.39638  0.99210  Biso   1.000  H
  H127     1.0000 0.91736  0.39645  0.99210  Biso   1.000  H
  C134     1.0000 0.07315  0.29581  0.97260  Biso   1.000  C
  C135     1.0000 0.07307  0.29581  0.97260  Biso   1.000  C
  N92      1.0000 0.14231  0.23533  0.00020  Biso   1.000  N
  N93      1.0000 0.14223  0.23533  0.00020  Biso   1.000  N
  O39      1.0000 0.12355  0.19274  0.06250  Biso   1.000  O
  N94      1.0000 0.28985  0.82436  0.92498  Biso   1.000  N
  O40      1.0000 0.12705  0.83817  0.89190  Biso   1.000  O
  N95      1.0000 0.28977  0.82436  0.92498  Biso   1.000  N
  O41      1.0000 0.12701  0.83810  0.89190  Biso   1.000  O
  H128     1.0000 0.43653  0.72887  0.94501  Biso   1.000  H
  H129     1.0000 0.43645  0.72888  0.94498  Biso   1.000  H
  C136     1.0000 0.44322  0.86096  0.98999  Biso   1.000  C
  O42      1.0000 0.91526  0.23957  0.90540  Biso   1.000  O
  O43      1.0000 0.91518  0.23957  0.90540  Biso   1.000  O
  N96      1.0000 0.06058  0.25082  0.93890  Biso   1.000  N
  N97      1.0000 0.06062  0.25076  0.93890  Biso   1.000  N
  H130     1.0000 0.09750  0.34754  0.96591  Biso   1.000  H
  H131     1.0000 0.09746  0.34747  0.96588  Biso   1.000  H
  C137     1.0000 0.26733  0.19202  0.99938  Biso   1.000  C
  C138     1.0000 0.26726  0.19202  0.99938  Biso   1.000  C
  C139     1.0000 0.32197  0.88733  0.90040  Biso   1.000  C
  H132     1.0000 0.51225  0.83150  0.97449  Biso   1.000  H
  N98      1.0000 0.38948  0.95616  0.97769  Biso   1.000  N
  H133     1.0000 0.51236  0.83143  0.97449  Biso   1.000  H
  N99      1.0000 0.38956  0.95616  0.97769  Biso   1.000  N
  H134     1.0000 0.51228  0.83143  0.97449  Biso   1.000  H
  H135     1.0000 0.46793  0.85577  0.01651  Biso   1.000  H
  H136     1.0000 0.46793  0.85577  0.01648  Biso   1.000  H
  C140     1.0000 0.14851  0.21800  0.91069  Biso   1.000  C
  H137     1.0000 0.29813  0.23289  0.98520  Biso   1.000  H
  N100     1.0000 0.30674  0.10411  0.98180  Biso   1.000  N
  N101     1.0000 0.30666  0.10411  0.98180  Biso   1.000  N
  H138     1.0000 0.29805  0.23289  0.98520  Biso   1.000  H
  H139     1.0000 0.29705  0.18200  0.02540  Biso   1.000  H
  H140     1.0000 0.29708  0.18193  0.02540  Biso   1.000  H
  H141     1.0000 0.29716  0.18193  0.02540  Biso   1.000  H
  N102     1.0000 0.29983  0.97288  0.91640  Biso   1.000  N
  H142     1.0000 0.40443  0.85827  0.89460  Biso   1.000  H
  H143     1.0000 0.27935  0.89896  0.87649  Biso   1.000  H
  N103     1.0000 0.29990  0.97288  0.91640  Biso   1.000  N
  H144     1.0000 0.40450  0.85827  0.89460  Biso   1.000  H
  H145     1.0000 0.27931  0.89889  0.87649  Biso   1.000  H
  C141     1.0000 0.38195  0.98987  0.93961  Biso   1.000  C
  C142     1.0000 0.38206  0.98981  0.93958  Biso   1.000  C
  C143     1.0000 0.38202  0.98987  0.93961  Biso   1.000  C
  C144     1.0000 0.38198  0.98981  0.93958  Biso   1.000  C
  C145     1.0000 0.34789  0.02276  0.00200  Biso   1.000  C
  C146     1.0000 0.34782  0.02276  0.00200  Biso   1.000  C
  N104     1.0000 0.22709  0.12363  0.91899  Biso   1.000  N
  H146     1.0000 0.11186  0.22252  0.88599  Biso   1.000  H
  H147     1.0000 0.19248  0.25746  0.90889  Biso   1.000  H
  H148     1.0000 0.11189  0.22245  0.88599  Biso   1.000  H
  N105     1.0000 0.22712  0.12356  0.91899  Biso   1.000  N
  C147     1.0000 0.32743  0.09519  0.94290  Biso   1.000  C
  C148     1.0000 0.32735  0.09519  0.94290  Biso   1.000  C
  C149     1.0000 0.21912  0.05216  0.90169  Biso   1.000  C
  H149     1.0000 0.45915  0.97003  0.92740  Biso   1.000  H
  O44      1.0000 0.35048  0.01210  0.03640  Biso   1.000  O
  O45      1.0000 0.35051  0.01203  0.03640  Biso   1.000  O
  O46      1.0000 0.35040  0.01210  0.03640  Biso   1.000  O
  H150     1.0000 0.38096  0.12432  0.93379  Biso   1.000  H
  O47      1.0000 0.14973  0.05871  0.87899  Biso   1.000  O
  O48      1.0000 0.14965  0.05871  0.87899  Biso   1.000  O
  C150     1.0000 0.49365  0.62469  0.60859  Biso   1.000  C
  N106     1.0000 0.59979  0.55861  0.62628  Biso   1.000  N
  N107     1.0000 0.39359  0.62248  0.62761  Biso   1.000  N
  H151     1.0000 0.49339  0.68680  0.60890  Biso   1.000  H
  H152     1.0000 0.49140  0.61069  0.58201  Biso   1.000  H
  C151     1.0000 0.66022  0.46697  0.61391  Biso   1.000  C
  C152     1.0000 0.66416  0.58628  0.64718  Biso   1.000  C
  C153     1.0000 0.34625  0.55597  0.62280  Biso   1.000  C
  C154     1.0000 0.33130  0.68701  0.65259  Biso   1.000  C
  N108     1.0000 0.61678  0.40072  0.62890  Biso   1.000  N
  H153     1.0000 0.66922  0.46609  0.58600  Biso   1.000  H
  C155     1.0000 0.77801  0.43679  0.63470  Biso   1.000  C
  N109     1.0000 0.76730  0.51290  0.65579  Biso   1.000  N
  O49      1.0000 0.63825  0.66329  0.65810  Biso   1.000  O
  N110     1.0000 0.41146  0.46498  0.63900  Biso   1.000  N
  C156     1.0000 0.23664  0.58851  0.64730  Biso   1.000  C
  H154     1.0000 0.32751  0.55449  0.59579  Biso   1.000  H
  N111     1.0000 0.24569  0.66281  0.66671  Biso   1.000  N
  O50      1.0000 0.34680  0.75367  0.65962  Biso   1.000  O
  C157     1.0000 0.50771  0.40071  0.61939  Biso   1.000  C
  C158     1.0000 0.69377  0.33451  0.65320  Biso   1.000  C
  N112     1.0000 0.78834  0.35529  0.65599  Biso   1.000  N
  H155     1.0000 0.84191  0.42438  0.61610  Biso   1.000  H
  C159     1.0000 0.86355  0.52398  0.67129  Biso   1.000  C
  C160     1.0000 0.34562  0.43531  0.66389  Biso   1.000  C
  N113     1.0000 0.24834  0.50902  0.67121  Biso   1.000  N
  H156     1.0000 0.16572  0.60967  0.63149  Biso   1.000  H
  C161     1.0000 0.14944  0.72530  0.68640  Biso   1.000  C
  H157     1.0000 0.50924  0.33858  0.62499  Biso   1.000  H
  H158     1.0000 0.49549  0.41480  0.59200  Biso   1.000  H
  O51      1.0000 0.67961  0.26879  0.66741  Biso   1.000  O
  C162     1.0000 0.88811  0.29723  0.67610  Biso   1.000  C
  H159     1.0000 0.84770  0.58988  0.67078  Biso   1.000  H
  H160     1.0000 0.93073  0.49503  0.65509  Biso   1.000  H
  N114     1.0000 0.89182  0.48592  0.70929  Biso   1.000  N
  O52      1.0000 0.37068  0.35752  0.67725  Biso   1.000  O
  C163     1.0000 0.15673  0.50194  0.69379  Biso   1.000  C
  H161     1.0000 0.07804  0.73238  0.67348  Biso   1.000  H
  H162     1.0000 0.15460  0.78569  0.68538  Biso   1.000  H
  N115     1.0000 0.14340  0.69515  0.72580  Biso   1.000  N
  H163     1.0000 0.95652  0.29223  0.66100  Biso   1.000  H
  H164     1.0000 0.88705  0.23552  0.67979  Biso   1.000  H
  N116     1.0000 0.89663  0.33014  0.71239  Biso   1.000  N
  C164     1.0000 0.95621  0.38953  0.71939  Biso   1.000  C
  C165     1.0000 0.86682  0.53792  0.73959  Biso   1.000  C
  H165     1.0000 0.16823  0.43679  0.69720  Biso   1.000  H
  H166     1.0000 0.08382  0.53432  0.67998  Biso   1.000  H
  N117     1.0000 0.14674  0.53849  0.73030  Biso   1.000  N
  C166     1.0000 0.08534  0.63583  0.73798  Biso   1.000  C
  C167     1.0000 0.17450  0.73060  0.75469  Biso   1.000  C
  C168     1.0000 0.88046  0.28857  0.74639  Biso   1.000  C
  C169     1.0000 0.96525  0.38571  0.76170  Biso   1.000  C
  H167     1.0000 0.03360  0.36734  0.70741  Biso   1.000  H
  N118     1.0000 0.90662  0.48081  0.77129  Biso   1.000  N
  O53      1.0000 0.82115  0.62022  0.73860  Biso   1.000  O
  C170     1.0000 0.18032  0.48433  0.76279  Biso   1.000  C
  C171     1.0000 0.09039  0.63494  0.78080  Biso   1.000  C
  H168     1.0000 0.00459  0.66010  0.72859  Biso   1.000  H
  N119     1.0000 0.15501  0.69080  0.78769  Biso   1.000  N
  O54      1.0000 0.21575  0.78932  0.75199  Biso   1.000  O
  N120     1.0000 0.91040  0.32613  0.77480  Biso   1.000  N
  O55      1.0000 0.84408  0.22826  0.74921  Biso   1.000  O
  H169     1.0000 0.04711  0.36094  0.76980  Biso   1.000  H
  C172     1.0000 0.89969  0.51525  0.80831  Biso   1.000  C
  N121     1.0000 0.14931  0.53915  0.79289  Biso   1.000  N
  O56      1.0000 0.22328  0.40196  0.76471  Biso   1.000  O
  H170     1.0000 0.01205  0.66114  0.79191  Biso   1.000  H
  C173     1.0000 0.16224  0.72443  0.82369  Biso   1.000  C
  C174     1.0000 0.90519  0.29384  0.81390  Biso   1.000  C
  H171     1.0000 0.97251  0.48066  0.82181  Biso   1.000  H
  H172     1.0000 0.89043  0.57991  0.80549  Biso   1.000  H
  N122     1.0000 0.80683  0.50851  0.83039  Biso   1.000  N
  C175     1.0000 0.17683  0.50195  0.83109  Biso   1.000  C
  H173     1.0000 0.09352  0.72947  0.83860  Biso   1.000  H
  H174     1.0000 0.16288  0.78625  0.81978  Biso   1.000  H
  N123     1.0000 0.26394  0.66572  0.84459  Biso   1.000  N
  H175     1.0000 0.90013  0.23334  0.81430  Biso   1.000  H
  H176     1.0000 0.97663  0.28635  0.82690  Biso   1.000  H
  N124     1.0000 0.80899  0.35558  0.83359  Biso   1.000  N
  C176     1.0000 0.81391  0.42862  0.85328  Biso   1.000  C
  C177     1.0000 0.70649  0.58243  0.83719  Biso   1.000  C
  H177     1.0000 0.18759  0.43684  0.83230  Biso   1.000  H
  H178     1.0000 0.11150  0.53432  0.84760  Biso   1.000  H
  N125     1.0000 0.27888  0.50906  0.84529  Biso   1.000  N
  C178     1.0000 0.27215  0.58454  0.86698  Biso   1.000  C
  C179     1.0000 0.35881  0.68626  0.84811  Biso   1.000  C
  C180     1.0000 0.72364  0.33032  0.84709  Biso   1.000  C
  C181     1.0000 0.70550  0.46098  0.87759  Biso   1.000  C
  H179     1.0000 0.88371  0.40677  0.86960  Biso   1.000  H
  N126     1.0000 0.64033  0.55323  0.86119  Biso   1.000  N
  O57      1.0000 0.68541  0.66081  0.82493  Biso   1.000  O
  C182     1.0000 0.37888  0.43487  0.85148  Biso   1.000  C
  H180     1.0000 0.21041  0.59804  0.88650  Biso   1.000  H
  C183     1.0000 0.39190  0.55168  0.88510  Biso   1.000  C
  N127     1.0000 0.43565  0.61855  0.87148  Biso   1.000  N
  O58      1.0000 0.37303  0.75215  0.83418  Biso   1.000  O
  N128     1.0000 0.65724  0.39504  0.87069  Biso   1.000  N
  O59      1.0000 0.70799  0.26307  0.83939  Biso   1.000  O
  H181     1.0000 0.72320  0.46087  0.90479  Biso   1.000  H
  C184     1.0000 0.54419  0.61746  0.88060  Biso   1.000  C
  N129     1.0000 0.44902  0.46075  0.87109  Biso   1.000  N
  O60      1.0000 0.39911  0.36014  0.83939  Biso   1.000  O
  H182     1.0000 0.38690  0.54885  0.91320  Biso   1.000  H
  C185     1.0000 0.55358  0.39375  0.88850  Biso   1.000  C
  H183     1.0000 0.55639  0.60357  0.90799  Biso   1.000  H
  H184     1.0000 0.54327  0.67933  0.87489  Biso   1.000  H
  H185     1.0000 0.55449  0.40593  0.91539  Biso   1.000  H
  H186     1.0000 0.55293  0.33218  0.88729  Biso   1.000  H
  Ne1      1.0000 0.47468  0.49019  0.24976  Biso   1.000  Ne
  He1      1.0000 0.48863  0.28264  0.25433  Biso   1.000  He
  He2      1.0000 0.45243  0.68250  0.24507  Biso   1.000  He
  Ar1      1.0000 0.47453  0.49010  0.24987  Biso   1.000  Ar
  Ne2      1.0000 0.52535  0.50997  0.75023  Biso   1.000  Ne
  He3      1.0000 0.54757  0.31712  0.75493  Biso   1.000  He
  He4      1.0000 0.51132  0.71965  0.74558  Biso   1.000  He
  Ar2      1.0000 0.52552  0.51006  0.75011  Biso   1.000  Ar
  Ne3      1.0000 0.01597  0.00008  0.99554  Biso   1.000  Ne
  He5      1.0000 0.10867  0.98371  0.07882  Biso   1.000  He
  He6      1.0000 0.89776  0.02986  0.91503  Biso   1.000  He
  Ar3      1.0000 0.00763  0.00602  0.99493  Biso   1.000  Ar
  Ne4      1.0000 0.99535  0.99576  0.50236  Biso   1.000  Ne
  He7      1.0000 0.12915  0.98406  0.57925  Biso   1.000  He
  He8      1.0000 0.87977  0.01494  0.42564  Biso   1.000  He
  Ar4      1.0000 0.99594  0.99537  0.50239  Biso   1.000  Ar
