data_image0
_cell_length_a       12.687
_cell_length_b       15.945
_cell_length_c       35.622
_cell_angle_alpha    86.38
_cell_angle_beta     88.63
_cell_angle_gamma    67.12

_symmetry_space_group_name_H-M    "P 1"
_symmetry_int_tables_number       1

loop_
  _symmetry_equiv_pos_as_xyz
  'x, y, z'

loop_
  _atom_site_label
  _atom_site_occupancy
  _atom_site_fract_x
  _atom_site_fract_y
  _atom_site_fract_z
  _atom_site_thermal_displace_type
  _atom_site_B_iso_or_equiv
  _atom_site_type_symbol
  C1       1.0000 0.50771  0.40071  0.61939  Biso   1.000  C
  H1       1.0000 0.50924  0.33858  0.62499  Biso   1.000  H
  H2       1.0000 0.49549  0.41480  0.59200  Biso   1.000  H
  N1       1.0000 0.61678  0.40072  0.62890  Biso   1.000  N
  N2       1.0000 0.41146  0.46498  0.63900  Biso   1.000  N
  C2       1.0000 0.66022  0.46697  0.61391  Biso   1.000  C
  C3       1.0000 0.69377  0.33451  0.65320  Biso   1.000  C
  C4       1.0000 0.34625  0.55597  0.62280  Biso   1.000  C
  C5       1.0000 0.34562  0.43531  0.66389  Biso   1.000  C
  H3       1.0000 0.66922  0.46609  0.58600  Biso   1.000  H
  C6       1.0000 0.77801  0.43679  0.63470  Biso   1.000  C
  N3       1.0000 0.59979  0.55861  0.62628  Biso   1.000  N
  N4       1.0000 0.78834  0.35529  0.65599  Biso   1.000  N
  O1       1.0000 0.67961  0.26879  0.66741  Biso   1.000  O
  C7       1.0000 0.23664  0.58851  0.64730  Biso   1.000  C
  H4       1.0000 0.32751  0.55449  0.59579  Biso   1.000  H
  N5       1.0000 0.39359  0.62248  0.62761  Biso   1.000  N
  N6       1.0000 0.24834  0.50902  0.67121  Biso   1.000  N
  O2       1.0000 0.37068  0.35752  0.67725  Biso   1.000  O
  H5       1.0000 0.84191  0.42438  0.61610  Biso   1.000  H
  N7       1.0000 0.76730  0.51290  0.65579  Biso   1.000  N
  C8       1.0000 0.49365  0.62469  0.60859  Biso   1.000  C
  C9       1.0000 0.66416  0.58628  0.64718  Biso   1.000  C
  C10      1.0000 0.88811  0.29723  0.67610  Biso   1.000  C
  H6       1.0000 0.16572  0.60967  0.63149  Biso   1.000  H
  N8       1.0000 0.24569  0.66281  0.66671  Biso   1.000  N
  C11      1.0000 0.33130  0.68701  0.65259  Biso   1.000  C
  C12      1.0000 0.15673  0.50194  0.69379  Biso   1.000  C
  C13      1.0000 0.86355  0.52398  0.67129  Biso   1.000  C
  H7       1.0000 0.49339  0.68680  0.60890  Biso   1.000  H
  H8       1.0000 0.49140  0.61069  0.58201  Biso   1.000  H
  O3       1.0000 0.63825  0.66329  0.65810  Biso   1.000  O
  H9       1.0000 0.95652  0.29223  0.66100  Biso   1.000  H
  H10      1.0000 0.88705  0.23552  0.67979  Biso   1.000  H
  N9       1.0000 0.89663  0.33014  0.71239  Biso   1.000  N
  C14      1.0000 0.14944  0.72530  0.68640  Biso   1.000  C
  O4       1.0000 0.34680  0.75367  0.65962  Biso   1.000  O
  H11      1.0000 0.16823  0.43679  0.69720  Biso   1.000  H
  H12      1.0000 0.08382  0.53432  0.67998  Biso   1.000  H
  N10      1.0000 0.14674  0.53849  0.73030  Biso   1.000  N
  H13      1.0000 0.84770  0.58988  0.67078  Biso   1.000  H
  H14      1.0000 0.93073  0.49503  0.65509  Biso   1.000  H
  N11      1.0000 0.89182  0.48592  0.70929  Biso   1.000  N
  C15      1.0000 0.95621  0.38953  0.71939  Biso   1.000  C
  C16      1.0000 0.88046  0.28857  0.74639  Biso   1.000  C
  H15      1.0000 0.07804  0.73238  0.67348  Biso   1.000  H
  H16      1.0000 0.15460  0.78569  0.68538  Biso   1.000  H
  N12      1.0000 0.14340  0.69515  0.72580  Biso   1.000  N
  C17      1.0000 0.18032  0.48433  0.76279  Biso   1.000  C
  C18      1.0000 0.08534  0.63583  0.73798  Biso   1.000  C
  C19      1.0000 0.86682  0.53792  0.73959  Biso   1.000  C
  C20      1.0000 0.96525  0.38571  0.76170  Biso   1.000  C
  H17      1.0000 0.03360  0.36734  0.70741  Biso   1.000  H
  N13      1.0000 0.91040  0.32613  0.77480  Biso   1.000  N
  O5       1.0000 0.84408  0.22826  0.74921  Biso   1.000  O
  C21      1.0000 0.17450  0.73060  0.75469  Biso   1.000  C
  N14      1.0000 0.14931  0.53915  0.79289  Biso   1.000  N
  O6       1.0000 0.22328  0.40196  0.76471  Biso   1.000  O
  C22      1.0000 0.09039  0.63494  0.78080  Biso   1.000  C
  H18      1.0000 0.00459  0.66010  0.72859  Biso   1.000  H
  N15      1.0000 0.90662  0.48081  0.77129  Biso   1.000  N
  O7       1.0000 0.82115  0.62022  0.73860  Biso   1.000  O
  H19      1.0000 0.04711  0.36094  0.76980  Biso   1.000  H
  C23      1.0000 0.90519  0.29384  0.81390  Biso   1.000  C
  N16      1.0000 0.15501  0.69080  0.78769  Biso   1.000  N
  O8       1.0000 0.21575  0.78932  0.75199  Biso   1.000  O
  C24      1.0000 0.17683  0.50195  0.83109  Biso   1.000  C
  H20      1.0000 0.01205  0.66114  0.79191  Biso   1.000  H
  C25      1.0000 0.89969  0.51525  0.80831  Biso   1.000  C
  H21      1.0000 0.90013  0.23334  0.81430  Biso   1.000  H
  H22      1.0000 0.97663  0.28635  0.82690  Biso   1.000  H
  N17      1.0000 0.80899  0.35558  0.83359  Biso   1.000  N
  C26      1.0000 0.16224  0.72443  0.82369  Biso   1.000  C
  H23      1.0000 0.18759  0.43684  0.83230  Biso   1.000  H
  H24      1.0000 0.11150  0.53432  0.84760  Biso   1.000  H
  N18      1.0000 0.27888  0.50906  0.84529  Biso   1.000  N
  H25      1.0000 0.97251  0.48066  0.82181  Biso   1.000  H
  H26      1.0000 0.89043  0.57991  0.80549  Biso   1.000  H
  N19      1.0000 0.80683  0.50851  0.83039  Biso   1.000  N
  C27      1.0000 0.81391  0.42862  0.85328  Biso   1.000  C
  C28      1.0000 0.72364  0.33032  0.84709  Biso   1.000  C
  H27      1.0000 0.09352  0.72947  0.83860  Biso   1.000  H
  H28      1.0000 0.16288  0.78625  0.81978  Biso   1.000  H
  N20      1.0000 0.26394  0.66572  0.84459  Biso   1.000  N
  C29      1.0000 0.37888  0.43487  0.85148  Biso   1.000  C
  C30      1.0000 0.27215  0.58454  0.86698  Biso   1.000  C
  C31      1.0000 0.70649  0.58243  0.83719  Biso   1.000  C
  C32      1.0000 0.70550  0.46098  0.87759  Biso   1.000  C
  H29      1.0000 0.88371  0.40677  0.86960  Biso   1.000  H
  N21      1.0000 0.65724  0.39504  0.87069  Biso   1.000  N
  O9       1.0000 0.70799  0.26307  0.83939  Biso   1.000  O
  C33      1.0000 0.35881  0.68626  0.84811  Biso   1.000  C
  N22      1.0000 0.44902  0.46075  0.87109  Biso   1.000  N
  O10      1.0000 0.39911  0.36014  0.83939  Biso   1.000  O
  H30      1.0000 0.21041  0.59804  0.88650  Biso   1.000  H
  C34      1.0000 0.39190  0.55168  0.88510  Biso   1.000  C
  N23      1.0000 0.64033  0.55323  0.86119  Biso   1.000  N
  O11      1.0000 0.68541  0.66081  0.82493  Biso   1.000  O
  H31      1.0000 0.72320  0.46087  0.90479  Biso   1.000  H
  C35      1.0000 0.55358  0.39375  0.88850  Biso   1.000  C
  N24      1.0000 0.43565  0.61855  0.87148  Biso   1.000  N
  O12      1.0000 0.37303  0.75215  0.83418  Biso   1.000  O
  H32      1.0000 0.38690  0.54885  0.91320  Biso   1.000  H
  C36      1.0000 0.54419  0.61746  0.88060  Biso   1.000  C
  H33      1.0000 0.55449  0.40593  0.91539  Biso   1.000  H
  H34      1.0000 0.55293  0.33218  0.88729  Biso   1.000  H
  H35      1.0000 0.55639  0.60357  0.90799  Biso   1.000  H
  H36      1.0000 0.54327  0.67933  0.87489  Biso   1.000  H
  O13      1.0000 0.12943  0.20767  0.55008  Biso   1.000  O
  C37      1.0000 0.08226  0.24412  0.52249  Biso   1.000  C
  N25      1.0000 0.12969  0.24810  0.48671  Biso   1.000  N
  N26      1.0000 0.96420  0.28841  0.51689  Biso   1.000  N
  C38      1.0000 0.04766  0.30151  0.45810  Biso   1.000  C
  C39      1.0000 0.25232  0.20148  0.47999  Biso   1.000  C
  C40      1.0000 0.93323  0.33596  0.48061  Biso   1.000  C
  C41      1.0000 0.89218  0.31582  0.55070  Biso   1.000  C
  N27      1.0000 0.02878  0.24901  0.42989  Biso   1.000  N
  H37      1.0000 0.06643  0.35320  0.44691  Biso   1.000  H
  N28      1.0000 0.28336  0.11370  0.46390  Biso   1.000  N
  H38      1.0000 0.29340  0.19246  0.50421  Biso   1.000  H
  H39      1.0000 0.27810  0.24107  0.46289  Biso   1.000  H
  N29      1.0000 0.86171  0.30517  0.45869  Biso   1.000  N
  H40      1.0000 0.90051  0.40367  0.48221  Biso   1.000  H
  H41      1.0000 0.94230  0.30197  0.57301  Biso   1.000  H
  H42      1.0000 0.84800  0.38250  0.54851  Biso   1.000  H
  N30      1.0000 0.81309  0.27041  0.55650  Biso   1.000  N
  C42      1.0000 0.10438  0.21828  0.39740  Biso   1.000  C
  C43      1.0000 0.91663  0.25859  0.42809  Biso   1.000  C
  C44      1.0000 0.29429  0.10168  0.42379  Biso   1.000  C
  C45      1.0000 0.33670  0.03536  0.48491  Biso   1.000  C
  C46      1.0000 0.74221  0.32696  0.46680  Biso   1.000  C
  C47      1.0000 0.70762  0.29357  0.53481  Biso   1.000  C
  C48      1.0000 0.82669  0.20318  0.58370  Biso   1.000  C
  H43      1.0000 0.05777  0.22027  0.37521  Biso   1.000  H
  H44      1.0000 0.14374  0.26048  0.39169  Biso   1.000  H
  N31      1.0000 0.18999  0.12555  0.40429  Biso   1.000  N
  O14      1.0000 0.87584  0.22829  0.40511  Biso   1.000  O
  H45      1.0000 0.34388  0.13127  0.41149  Biso   1.000  H
  C49      1.0000 0.34915  0.99470  0.42171  Biso   1.000  C
  N32      1.0000 0.37284  0.96466  0.46120  Biso   1.000  N
  O15      1.0000 0.34999  0.02681  0.51838  Biso   1.000  O
  H46      1.0000 0.70650  0.39120  0.47369  Biso   1.000  H
  H47      1.0000 0.70406  0.32161  0.44359  Biso   1.000  H
  N33      1.0000 0.72235  0.26966  0.49650  Biso   1.000  N
  C50      1.0000 0.65200  0.23170  0.55489  Biso   1.000  C
  H48      1.0000 0.65704  0.35941  0.53661  Biso   1.000  H
  N34      1.0000 0.73835  0.17619  0.58159  Biso   1.000  N
  O16      1.0000 0.90462  0.17302  0.60631  Biso   1.000  O
  C51      1.0000 0.17883  0.05238  0.39029  Biso   1.000  C
  N35      1.0000 0.26191  0.97539  0.40469  Biso   1.000  N
  H49      1.0000 0.42076  0.97449  0.40629  Biso   1.000  H
  C52      1.0000 0.43586  0.86949  0.47470  Biso   1.000  C
  C53      1.0000 0.66572  0.21377  0.48930  Biso   1.000  C
  N36      1.0000 0.63628  0.18312  0.52401  Biso   1.000  N
  H50      1.0000 0.57808  0.26771  0.56738  Biso   1.000  H
  C54      1.0000 0.71583  0.11342  0.60949  Biso   1.000  C
  O17      1.0000 0.10374  0.05584  0.36829  Biso   1.000  O
  C55      1.0000 0.28424  0.88680  0.39051  Biso   1.000  C
  H51      1.0000 0.46603  0.86813  0.50018  Biso   1.000  H
  H52      1.0000 0.50163  0.84076  0.45791  Biso   1.000  H
  N37      1.0000 0.36372  0.81710  0.47599  Biso   1.000  N
  O18      1.0000 0.65178  0.19229  0.45881  Biso   1.000  O
  C56      1.0000 0.56421  0.13073  0.52530  Biso   1.000  C
  H53      1.0000 0.76422  0.10520  0.63191  Biso   1.000  H
  H54      1.0000 0.63477  0.14094  0.61751  Biso   1.000  H
  N38      1.0000 0.73809  0.02483  0.59529  Biso   1.000  N
  H55      1.0000 0.23589  0.89495  0.36809  Biso   1.000  H
  H56      1.0000 0.36523  0.85928  0.38249  Biso   1.000  H
  N39      1.0000 0.26176  0.82397  0.41839  Biso   1.000  N
  C57      1.0000 0.34799  0.76851  0.44511  Biso   1.000  C
  C58      1.0000 0.33439  0.78638  0.51070  Biso   1.000  C
  H57      1.0000 0.53397  0.13210  0.49979  Biso   1.000  H
  H58      1.0000 0.49840  0.15939  0.54210  Biso   1.000  H
  N40      1.0000 0.62719  0.03549  0.53880  Biso   1.000  N
  C59      1.0000 0.65092  0.00552  0.57830  Biso   1.000  C
  C60      1.0000 0.82124  0.94784  0.60969  Biso   1.000  C
  C61      1.0000 0.17334  0.79697  0.41630  Biso   1.000  C
  H59      1.0000 0.42192  0.73251  0.43259  Biso   1.000  H
  C62      1.0000 0.29241  0.70658  0.46519  Biso   1.000  C
  N41      1.0000 0.27776  0.73049  0.50350  Biso   1.000  N
  O19      1.0000 0.34822  0.80793  0.54120  Biso   1.000  O
  C63      1.0000 0.66333  0.96479  0.51509  Biso   1.000  C
  C64      1.0000 0.70570  0.89854  0.57619  Biso   1.000  C
  H60      1.0000 0.57932  0.02574  0.59368  Biso   1.000  H
  N42      1.0000 0.81005  0.87460  0.59571  Biso   1.000  N
  O20      1.0000 0.89637  0.94432  0.63169  Biso   1.000  O
  N43      1.0000 0.18691  0.72981  0.44350  Biso   1.000  N
  O21      1.0000 0.09545  0.82720  0.39369  Biso   1.000  O
  H61      1.0000 0.34304  0.64081  0.46339  Biso   1.000  H
  C65      1.0000 0.25782  0.67319  0.53321  Biso   1.000  C
  N44      1.0000 0.71663  0.88652  0.53610  Biso   1.000  N
  O22      1.0000 0.65001  0.97341  0.48159  Biso   1.000  O
  H62      1.0000 0.65615  0.86888  0.58851  Biso   1.000  H
  C66      1.0000 0.89562  0.78193  0.60260  Biso   1.000  C
  C67      1.0000 0.10782  0.68440  0.44930  Biso   1.000  C
  H63      1.0000 0.29350  0.60902  0.52629  Biso   1.000  H
  H64      1.0000 0.29594  0.67862  0.55639  Biso   1.000  H
  N45      1.0000 0.13833  0.69498  0.54131  Biso   1.000  N
  C68      1.0000 0.74779  0.79868  0.51999  Biso   1.000  C
  N46      1.0000 0.97122  0.75121  0.57008  Biso   1.000  N
  H65      1.0000 0.94223  0.77995  0.62479  Biso   1.000  H
  H66      1.0000 0.85634  0.73974  0.60831  Biso   1.000  H
  H67      1.0000 0.05773  0.69818  0.42699  Biso   1.000  H
  H68      1.0000 0.15200  0.61772  0.45149  Biso   1.000  H
  N47      1.0000 0.03580  0.71180  0.48311  Biso   1.000  N
  C69      1.0000 0.06688  0.66419  0.51940  Biso   1.000  C
  C70      1.0000 0.08345  0.74163  0.57188  Biso   1.000  C
  N48      1.0000 0.87031  0.75211  0.51329  Biso   1.000  N
  H69      1.0000 0.70663  0.80769  0.49580  Biso   1.000  H
  H70      1.0000 0.72193  0.75909  0.53709  Biso   1.000  H
  C71      1.0000 0.95234  0.69871  0.54190  Biso   1.000  C
  C72      1.0000 0.91774  0.75610  0.47748  Biso   1.000  C
  H71      1.0000 0.09952  0.59648  0.51779  Biso   1.000  H
  O23      1.0000 0.12424  0.77193  0.59489  Biso   1.000  O
  H72      1.0000 0.93365  0.64702  0.55309  Biso   1.000  H
  O24      1.0000 0.87068  0.79248  0.44989  Biso   1.000  O
  C73      1.0000 0.50641  0.37549  0.39141  Biso   1.000  C
  N49      1.0000 0.40019  0.44158  0.37369  Biso   1.000  N
  H73      1.0000 0.50659  0.31339  0.39110  Biso   1.000  H
  H74      1.0000 0.50858  0.38949  0.41799  Biso   1.000  H
  N50      1.0000 0.60642  0.37764  0.37240  Biso   1.000  N
  C74      1.0000 0.33593  0.41384  0.35279  Biso   1.000  C
  C75      1.0000 0.33979  0.53315  0.38609  Biso   1.000  C
  C76      1.0000 0.66868  0.31318  0.34739  Biso   1.000  C
  C77      1.0000 0.65384  0.44415  0.37721  Biso   1.000  C
  N51      1.0000 0.23271  0.48722  0.34421  Biso   1.000  N
  O25      1.0000 0.36184  0.33683  0.34190  Biso   1.000  O
  C78      1.0000 0.22200  0.56332  0.36531  Biso   1.000  C
  H75      1.0000 0.33087  0.53403  0.41400  Biso   1.000  H
  N52      1.0000 0.38319  0.59947  0.37110  Biso   1.000  N
  N53      1.0000 0.75429  0.33737  0.33330  Biso   1.000  N
  O26      1.0000 0.65321  0.24644  0.34039  Biso   1.000  O
  N54      1.0000 0.58863  0.53514  0.36100  Biso   1.000  N
  C79      1.0000 0.76341  0.41168  0.35271  Biso   1.000  C
  H76      1.0000 0.67251  0.44563  0.40421  Biso   1.000  H
  C80      1.0000 0.13654  0.47614  0.32871  Biso   1.000  C
  N55      1.0000 0.21175  0.64483  0.34399  Biso   1.000  N
  H77      1.0000 0.15810  0.57573  0.38390  Biso   1.000  H
  C81      1.0000 0.30621  0.66567  0.34680  Biso   1.000  C
  C82      1.0000 0.49227  0.59948  0.38061  Biso   1.000  C
  C83      1.0000 0.85062  0.27488  0.31361  Biso   1.000  C
  C84      1.0000 0.65444  0.56488  0.33611  Biso   1.000  C
  N56      1.0000 0.75171  0.49117  0.32880  Biso   1.000  N
  H78      1.0000 0.83429  0.39045  0.36849  Biso   1.000  H
  N57      1.0000 0.10816  0.51427  0.29071  Biso   1.000  N
  H79      1.0000 0.15231  0.41025  0.32919  Biso   1.000  H
  H80      1.0000 0.06933  0.50516  0.34489  Biso   1.000  H
  C85      1.0000 0.11194  0.70295  0.32390  Biso   1.000  C
  O27      1.0000 0.32040  0.73133  0.33259  Biso   1.000  O
  H81      1.0000 0.49085  0.66154  0.37501  Biso   1.000  H
  H82      1.0000 0.50449  0.58539  0.40801  Biso   1.000  H
  H83      1.0000 0.92205  0.26775  0.32649  Biso   1.000  H
  H84      1.0000 0.84541  0.21443  0.31459  Biso   1.000  H
  N58      1.0000 0.85658  0.30504  0.27420  Biso   1.000  N
  O28      1.0000 0.62930  0.64267  0.32272  Biso   1.000  O
  C86      1.0000 0.84333  0.49825  0.30621  Biso   1.000  C
  C87      1.0000 0.13316  0.46227  0.26039  Biso   1.000  C
  C88      1.0000 0.04377  0.61066  0.28061  Biso   1.000  C
  N59      1.0000 0.10342  0.67005  0.28759  Biso   1.000  N
  H85      1.0000 0.04353  0.70796  0.33901  Biso   1.000  H
  H86      1.0000 0.11304  0.76461  0.32019  Biso   1.000  H
  C89      1.0000 0.82551  0.26952  0.24531  Biso   1.000  C
  C90      1.0000 0.91472  0.36436  0.26199  Biso   1.000  C
  H87      1.0000 0.83178  0.56333  0.30281  Biso   1.000  H
  H88      1.0000 0.91616  0.46587  0.31999  Biso   1.000  H
  N60      1.0000 0.85335  0.46163  0.26970  Biso   1.000  N
  O29      1.0000 0.17891  0.37996  0.26140  Biso   1.000  O
  N61      1.0000 0.09339  0.51931  0.22869  Biso   1.000  N
  C91      1.0000 0.03484  0.61441  0.23831  Biso   1.000  C
  H89      1.0000 0.96638  0.63285  0.29259  Biso   1.000  H
  C92      1.0000 0.11952  0.71162  0.25361  Biso   1.000  C
  N62      1.0000 0.84501  0.30932  0.21229  Biso   1.000  N
  O30      1.0000 0.78431  0.21086  0.24801  Biso   1.000  O
  C93      1.0000 0.90959  0.36525  0.21921  Biso   1.000  C
  H90      1.0000 0.99542  0.34002  0.27139  Biso   1.000  H
  C94      1.0000 0.81973  0.51586  0.23721  Biso   1.000  C
  C95      1.0000 0.10029  0.48494  0.19170  Biso   1.000  C
  N63      1.0000 0.08961  0.67399  0.22520  Biso   1.000  N
  H91      1.0000 0.95294  0.63924  0.23021  Biso   1.000  H
  O31      1.0000 0.15590  0.77192  0.25080  Biso   1.000  O
  C96      1.0000 0.83781  0.27575  0.17631  Biso   1.000  C
  N64      1.0000 0.85067  0.46104  0.20711  Biso   1.000  N
  H92      1.0000 0.98801  0.33905  0.20810  Biso   1.000  H
  O32      1.0000 0.77670  0.59822  0.23530  Biso   1.000  O
  H93      1.0000 0.02755  0.51952  0.17820  Biso   1.000  H
  H94      1.0000 0.10958  0.42021  0.19451  Biso   1.000  H
  N65      1.0000 0.19318  0.49161  0.16959  Biso   1.000  N
  C97      1.0000 0.09482  0.70628  0.18610  Biso   1.000  C
  N66      1.0000 0.73615  0.33440  0.15541  Biso   1.000  N
  H95      1.0000 0.90654  0.27072  0.16140  Biso   1.000  H
  H96      1.0000 0.83709  0.21394  0.18019  Biso   1.000  H
  C98      1.0000 0.82323  0.49824  0.16891  Biso   1.000  C
  C99      1.0000 0.18610  0.57150  0.14669  Biso   1.000  C
  C100     1.0000 0.29352  0.41769  0.16281  Biso   1.000  C
  H97      1.0000 0.09996  0.76678  0.18571  Biso   1.000  H
  H98      1.0000 0.02346  0.71377  0.17310  Biso   1.000  H
  N67      1.0000 0.19099  0.64461  0.16641  Biso   1.000  N
  C101     1.0000 0.64116  0.31393  0.15189  Biso   1.000  C
  C102     1.0000 0.72794  0.41559  0.13299  Biso   1.000  C
  N68      1.0000 0.72109  0.49113  0.15471  Biso   1.000  N
  H99      1.0000 0.81242  0.56328  0.16770  Biso   1.000  H
  H100     1.0000 0.88851  0.46579  0.15240  Biso   1.000  H
  C103     1.0000 0.29447  0.53921  0.12239  Biso   1.000  C
  H101     1.0000 0.11635  0.59341  0.13040  Biso   1.000  H
  N69      1.0000 0.35968  0.44689  0.13879  Biso   1.000  N
  O33      1.0000 0.31461  0.33930  0.17507  Biso   1.000  O
  C104     1.0000 0.27645  0.66980  0.15291  Biso   1.000  C
  N70      1.0000 0.56440  0.38164  0.12849  Biso   1.000  N
  O34      1.0000 0.62703  0.24804  0.16579  Biso   1.000  O
  C105     1.0000 0.60807  0.44851  0.11491  Biso   1.000  C
  H102     1.0000 0.78960  0.40208  0.11350  Biso   1.000  H
  C106     1.0000 0.62110  0.56532  0.14849  Biso   1.000  C
  H103     1.0000 0.27678  0.53932  0.09519  Biso   1.000  H
  N71      1.0000 0.34285  0.60507  0.12931  Biso   1.000  N
  C107     1.0000 0.45579  0.38273  0.11941  Biso   1.000  C
  O35      1.0000 0.29199  0.73712  0.16061  Biso   1.000  O
  N72      1.0000 0.55099  0.53938  0.12889  Biso   1.000  N
  H104     1.0000 0.61311  0.45126  0.08681  Biso   1.000  H
  O36      1.0000 0.60090  0.63999  0.16059  Biso   1.000  O
  C108     1.0000 0.44643  0.60637  0.11150  Biso   1.000  C
  H105     1.0000 0.44359  0.39661  0.09201  Biso   1.000  H
  H106     1.0000 0.45682  0.32079  0.12509  Biso   1.000  H
  H107     1.0000 0.44552  0.59419  0.08461  Biso   1.000  H
  H108     1.0000 0.44713  0.66801  0.11271  Biso   1.000  H
  O37      1.0000 0.14973  0.05869  0.87899  Biso   1.000  O
  C109     1.0000 0.21908  0.05220  0.90169  Biso   1.000  C
  N73      1.0000 0.22708  0.12361  0.91899  Biso   1.000  N
  N74      1.0000 0.29998  0.97286  0.91640  Biso   1.000  N
  C110     1.0000 0.14850  0.21797  0.91069  Biso   1.000  C
  C111     1.0000 0.32742  0.09517  0.94290  Biso   1.000  C
  C112     1.0000 0.38202  0.98986  0.93958  Biso   1.000  C
  C113     1.0000 0.32193  0.88738  0.90040  Biso   1.000  C
  H109     1.0000 0.19256  0.25744  0.90889  Biso   1.000  H
  H110     1.0000 0.11193  0.22249  0.88600  Biso   1.000  H
  N75      1.0000 0.06058  0.25080  0.93891  Biso   1.000  N
  H111     1.0000 0.38103  0.12430  0.93379  Biso   1.000  H
  N76      1.0000 0.30673  0.10409  0.98180  Biso   1.000  N
  H112     1.0000 0.45919  0.97007  0.92740  Biso   1.000  H
  N77      1.0000 0.38952  0.95621  0.97770  Biso   1.000  N
  H113     1.0000 0.27935  0.89894  0.87649  Biso   1.000  H
  H114     1.0000 0.40458  0.85825  0.89460  Biso   1.000  H
  N78      1.0000 0.28981  0.82440  0.92498  Biso   1.000  N
  C114     1.0000 0.07314  0.29579  0.97261  Biso   1.000  C
  C115     1.0000 0.95012  0.26199  0.93300  Biso   1.000  C
  C116     1.0000 0.26733  0.19199  0.99938  Biso   1.000  C
  C117     1.0000 0.34793  0.02281  0.00200  Biso   1.000  C
  C118     1.0000 0.44325  0.86100  0.98999  Biso   1.000  C
  C119     1.0000 0.35887  0.76727  0.95441  Biso   1.000  C
  C120     1.0000 0.19493  0.80495  0.91719  Biso   1.000  C
  H115     1.0000 0.09753  0.34745  0.96588  Biso   1.000  H
  C121     1.0000 0.94990  0.32931  0.98869  Biso   1.000  C
  N79      1.0000 0.14235  0.23538  0.00020  Biso   1.000  N
  N80      1.0000 0.88625  0.30476  0.96259  Biso   1.000  N
  O38      1.0000 0.91525  0.23955  0.90541  Biso   1.000  O
  H116     1.0000 0.29812  0.23287  0.98521  Biso   1.000  H
  H117     1.0000 0.29708  0.18204  0.02540  Biso   1.000  H
  O39      1.0000 0.35052  0.01215  0.03640  Biso   1.000  O
  H118     1.0000 0.51232  0.83148  0.97449  Biso   1.000  H
  N81      1.0000 0.36646  0.81241  0.98701  Biso   1.000  N
  H119     1.0000 0.46797  0.85581  0.01651  Biso   1.000  H
  H120     1.0000 0.43649  0.72892  0.94498  Biso   1.000  H
  C122     1.0000 0.29369  0.70736  0.96889  Biso   1.000  C
  N82      1.0000 0.19651  0.73701  0.94318  Biso   1.000  N
  O40      1.0000 0.12704  0.83814  0.89190  Biso   1.000  O
  H121     1.0000 0.91738  0.39636  0.99210  Biso   1.000  H
  N83      1.0000 0.96693  0.27684  0.02419  Biso   1.000  N
  C123     1.0000 0.08324  0.23138  0.03272  Biso   1.000  C
  C124     1.0000 0.76420  0.32705  0.96529  Biso   1.000  C
  C125     1.0000 0.32404  0.78052  0.01750  Biso   1.000  C
  H122     1.0000 0.34195  0.64111  0.96709  Biso   1.000  H
  N84      1.0000 0.26818  0.73010  0.00732  Biso   1.000  N
  C126     1.0000 0.11266  0.69688  0.94389  Biso   1.000  C
  C127     1.0000 0.88747  0.30329  0.05609  Biso   1.000  C
  O41      1.0000 0.12363  0.19285  0.06250  Biso   1.000  O
  H123     1.0000 0.73551  0.32208  0.94029  Biso   1.000  H
  H124     1.0000 0.72593  0.39139  0.97190  Biso   1.000  H
  N85      1.0000 0.73195  0.27007  0.99269  Biso   1.000  N
  O42      1.0000 0.33534  0.79722  0.05049  Biso   1.000  O
  C128     1.0000 0.23585  0.67312  0.03471  Biso   1.000  C
  H125     1.0000 0.06845  0.71528  0.92020  Biso   1.000  H
  H126     1.0000 0.15256  0.62971  0.94521  Biso   1.000  H
  N86      1.0000 0.03316  0.72340  0.97578  Biso   1.000  N
  H127     1.0000 0.93165  0.28495  0.07980  Biso   1.000  H
  H128     1.0000 0.84753  0.37052  0.05480  Biso   1.000  H
  N87      1.0000 0.80351  0.26323  0.05679  Biso   1.000  N
  C129     1.0000 0.67598  0.21971  0.98251  Biso   1.000  C
  C130     1.0000 0.70644  0.29280  0.03111  Biso   1.000  C
  H129     1.0000 0.26458  0.67815  0.05969  Biso   1.000  H
  H130     1.0000 0.27417  0.60884  0.02810  Biso   1.000  H
  N88      1.0000 0.11388  0.69540  0.03741  Biso   1.000  N
  C131     1.0000 0.91681  0.76878  0.96729  Biso   1.000  C
  C132     1.0000 0.05019  0.67092  0.01131  Biso   1.000  C
  C133     1.0000 0.80512  0.19522  0.08281  Biso   1.000  C
  O43      1.0000 0.66471  0.20295  0.94948  Biso   1.000  O
  N89      1.0000 0.63363  0.18782  0.01300  Biso   1.000  N
  C134     1.0000 0.64126  0.23289  0.04560  Biso   1.000  C
  H131     1.0000 0.65815  0.35912  0.03291  Biso   1.000  H
  C135     1.0000 0.04997  0.73825  0.06700  Biso   1.000  C
  N90      1.0000 0.85778  0.76479  0.99981  Biso   1.000  N
  O44      1.0000 0.87646  0.80738  0.93750  Biso   1.000  O
  C136     1.0000 0.92695  0.70445  0.02740  Biso   1.000  C
  H132     1.0000 0.08266  0.60381  0.00791  Biso   1.000  H
  N91      1.0000 0.71021  0.17583  0.07499  Biso   1.000  N
  O45      1.0000 0.87301  0.16202  0.10810  Biso   1.000  O
  C137     1.0000 0.55684  0.13923  0.01002  Biso   1.000  C
  H133     1.0000 0.56353  0.27131  0.05499  Biso   1.000  H
  N92      1.0000 0.93944  0.74943  0.06110  Biso   1.000  N
  O46      1.0000 0.08488  0.76061  0.09460  Biso   1.000  O
  C138     1.0000 0.73277  0.80824  0.00059  Biso   1.000  C
  H134     1.0000 0.90260  0.65272  0.03409  Biso   1.000  H
  C139     1.0000 0.67809  0.11285  0.09961  Biso   1.000  C
  H135     1.0000 0.53212  0.14442  0.98349  Biso   1.000  H
  H136     1.0000 0.48773  0.16869  0.02552  Biso   1.000  H
  N93      1.0000 0.61050  0.04403  0.02231  Biso   1.000  N
  C140     1.0000 0.85151  0.78226  0.08931  Biso   1.000  C
  H137     1.0000 0.70293  0.81819  0.97460  Biso   1.000  H
  H138     1.0000 0.70201  0.76729  0.01480  Biso   1.000  H
  N94      1.0000 0.69336  0.89614  0.01820  Biso   1.000  N
  H139     1.0000 0.72070  0.10123  0.12352  Biso   1.000  H
  H140     1.0000 0.59555  0.14191  0.10540  Biso   1.000  H
  N95      1.0000 0.70015  0.02731  0.08360  Biso   1.000  N
  C141     1.0000 0.65219  0.97736  0.99801  Biso   1.000  C
  C142     1.0000 0.61803  0.01031  0.06039  Biso   1.000  C
  H141     1.0000 0.80757  0.74273  0.09111  Biso   1.000  H
  H142     1.0000 0.88816  0.77774  0.11401  Biso   1.000  H
  N96      1.0000 0.77293  0.87662  0.08101  Biso   1.000  N
  C143     1.0000 0.67271  0.90499  0.05710  Biso   1.000  C
  C144     1.0000 0.78094  0.94803  0.09831  Biso   1.000  C
  O47      1.0000 0.64958  0.98809  0.96360  Biso   1.000  O
  H143     1.0000 0.54091  0.03016  0.07260  Biso   1.000  H
  H144     1.0000 0.61907  0.87593  0.06619  Biso   1.000  H
  O48      1.0000 0.85037  0.94155  0.12101  Biso   1.000  O
