data_image0
_cell_length_a       10.553
_cell_length_b       17.548
_cell_length_c       14.68
_cell_angle_alpha    90
_cell_angle_beta     107.12
_cell_angle_gamma    90

_symmetry_space_group_name_H-M    "P 1"
_symmetry_int_tables_number       1

loop_
  _symmetry_equiv_pos_as_xyz
  'x, y, z'

loop_
  _atom_site_label
  _atom_site_occupancy
  _atom_site_fract_x
  _atom_site_fract_y
  _atom_site_fract_z
  _atom_site_thermal_displace_type
  _atom_site_B_iso_or_equiv
  _atom_site_type_symbol
  C1       1.0000 0.47670  0.38568  0.44143  Biso   1.000  C
  O1       1.0000 0.42207  0.31707  0.39410  Biso   1.000  O
  C2       1.0000 0.61426  0.39560  0.44228  Biso   1.000  C
  H1       1.0000 0.42578  0.42808  0.40850  Biso   1.000  H
  H2       1.0000 0.47141  0.38551  0.50558  Biso   1.000  H
  C3       1.0000 0.39559  0.31360  0.29659  Biso   1.000  C
  C4       1.0000 0.72797  0.40022  0.44321  Biso   1.000  C
  C5       1.0000 0.37690  0.24003  0.26066  Biso   1.000  C
  C6       1.0000 0.38223  0.37548  0.23828  Biso   1.000  C
  C7       1.0000 0.85630  0.40529  0.43957  Biso   1.000  C
  C8       1.0000 0.34170  0.23028  0.16337  Biso   1.000  C
  H3       1.0000 0.38957  0.19689  0.30272  Biso   1.000  H
  C9       1.0000 0.34651  0.36380  0.13971  Biso   1.000  C
  H4       1.0000 0.39677  0.42597  0.26430  Biso   1.000  H
  C10      1.0000 0.96709  0.40762  0.43359  Biso   1.000  C
  C11      1.0000 0.32815  0.29160  0.10157  Biso   1.000  C
  O2       1.0000 0.31354  0.16019  0.11889  Biso   1.000  O
  O3       1.0000 0.32894  0.42991  0.08732  Biso   1.000  O
  C12      1.0000 0.09669  0.41150  0.41961  Biso   1.000  C
  H5       1.0000 0.30777  0.28391  0.03400  Biso   1.000  H
  C13      1.0000 0.35923  0.09391  0.17563  Biso   1.000  C
  C14      1.0000 0.31863  0.42461  0.98831  Biso   1.000  C
  O4       1.0000 0.08943  0.41059  0.32068  Biso   1.000  O
  H6       1.0000 0.14135  0.45698  0.44863  Biso   1.000  H
  H7       1.0000 0.14799  0.36848  0.45026  Biso   1.000  H
  C15      1.0000 0.50274  0.08690  0.19701  Biso   1.000  C
  H8       1.0000 0.33614  0.09790  0.23401  Biso   1.000  H
  H9       1.0000 0.31661  0.04952  0.14213  Biso   1.000  H
  C16      1.0000 0.44318  0.40289  0.97313  Biso   1.000  C
  H10      1.0000 0.25225  0.38762  0.95880  Biso   1.000  H
  H11      1.0000 0.29111  0.47287  0.95837  Biso   1.000  H
  C17      1.0000 0.06428  0.34357  0.27221  Biso   1.000  C
  C18      1.0000 0.61933  0.08440  0.20892  Biso   1.000  C
  C19      1.0000 0.54897  0.38688  0.96650  Biso   1.000  C
  C20      1.0000 0.07484  0.27279  0.31419  Biso   1.000  C
  C21      1.0000 0.03054  0.35092  0.17271  Biso   1.000  C
  C22      1.0000 0.75418  0.08029  0.22282  Biso   1.000  C
  C23      1.0000 0.67560  0.36979  0.96358  Biso   1.000  C
  C24      1.0000 0.05340  0.20851  0.25560  Biso   1.000  C
  H12      1.0000 0.09652  0.26772  0.38219  Biso   1.000  H
  C25      1.0000 0.00779  0.28562  0.11782  Biso   1.000  C
  H13      1.0000 0.02272  0.40022  0.14341  Biso   1.000  H
  C26      1.0000 0.87011  0.07659  0.23379  Biso   1.000  C
  C27      1.0000 0.78753  0.35810  0.96593  Biso   1.000  C
  O5       1.0000 0.07566  0.14002  0.30300  Biso   1.000  O
  C28      1.0000 0.01822  0.21438  0.15788  Biso   1.000  C
  O6       1.0000 0.98164  0.28459  0.02088  Biso   1.000  O
  C29      1.0000 0.01434  0.07328  0.25347  Biso   1.000  C
  C30      1.0000 0.92261  0.34129  0.96721  Biso   1.000  C
  H14      1.0000 0.99977  0.16971  0.11839  Biso   1.000  H
  H15      1.0000 0.04885  0.02878  0.29053  Biso   1.000  H
  H16      1.0000 0.03494  0.06969  0.19409  Biso   1.000  H
  H17      1.0000 0.92713  0.33440  0.90328  Biso   1.000  H
  H18      1.0000 0.97282  0.38608  0.99287  Biso   1.000  H
  C31      1.0000 0.52326  0.61432  0.55861  Biso   1.000  C
  C32      1.0000 0.38567  0.60440  0.55768  Biso   1.000  C
  O7       1.0000 0.57786  0.68293  0.60586  Biso   1.000  O
  H19      1.0000 0.57415  0.57192  0.59147  Biso   1.000  H
  H20      1.0000 0.52861  0.61449  0.49439  Biso   1.000  H
  C33      1.0000 0.27199  0.59978  0.55683  Biso   1.000  C
  C34      1.0000 0.60443  0.68640  0.70337  Biso   1.000  C
  C35      1.0000 0.14372  0.59471  0.56039  Biso   1.000  C
  C36      1.0000 0.61779  0.62452  0.76168  Biso   1.000  C
  C37      1.0000 0.62312  0.75997  0.73930  Biso   1.000  C
  C38      1.0000 0.03293  0.59238  0.56638  Biso   1.000  C
  C39      1.0000 0.65354  0.63620  0.86033  Biso   1.000  C
  H21      1.0000 0.60318  0.57403  0.73573  Biso   1.000  H
  C40      1.0000 0.65832  0.76972  0.83659  Biso   1.000  C
  H22      1.0000 0.61038  0.80311  0.69731  Biso   1.000  H
  C41      1.0000 0.90327  0.58850  0.58042  Biso   1.000  C
  C42      1.0000 0.67178  0.70840  0.89839  Biso   1.000  C
  O8       1.0000 0.67111  0.57009  0.91272  Biso   1.000  O
  O9       1.0000 0.68648  0.83981  0.88107  Biso   1.000  O
  O10      1.0000 0.91059  0.58941  0.67928  Biso   1.000  O
  H23      1.0000 0.85870  0.54302  0.55141  Biso   1.000  H
  H24      1.0000 0.85203  0.63152  0.54970  Biso   1.000  H
  H25      1.0000 0.69218  0.71609  0.96603  Biso   1.000  H
  C43      1.0000 0.68142  0.57539  0.01172  Biso   1.000  C
  C44      1.0000 0.64082  0.90609  0.82440  Biso   1.000  C
  C45      1.0000 0.93568  0.65643  0.72782  Biso   1.000  C
  C46      1.0000 0.55678  0.59711  0.02691  Biso   1.000  C
  H26      1.0000 0.74781  0.61238  0.04123  Biso   1.000  H
  H27      1.0000 0.70891  0.52713  0.04159  Biso   1.000  H
  C47      1.0000 0.49732  0.91310  0.80302  Biso   1.000  C
  H28      1.0000 0.66392  0.90210  0.76603  Biso   1.000  H
  H29      1.0000 0.68344  0.95048  0.85790  Biso   1.000  H
  C48      1.0000 0.96951  0.64908  0.82733  Biso   1.000  C
  C49      1.0000 0.92519  0.72721  0.68577  Biso   1.000  C
  C50      1.0000 0.45099  0.61312  0.03353  Biso   1.000  C
  C51      1.0000 0.38072  0.91560  0.79112  Biso   1.000  C
  C52      1.0000 0.99217  0.71438  0.88221  Biso   1.000  C
  H30      1.0000 0.97733  0.59978  0.85662  Biso   1.000  H
  C53      1.0000 0.94665  0.79149  0.74443  Biso   1.000  C
  H31      1.0000 0.90350  0.73228  0.61777  Biso   1.000  H
  C54      1.0000 0.32442  0.63021  0.03639  Biso   1.000  C
  C55      1.0000 0.24578  0.91971  0.77722  Biso   1.000  C
  O11      1.0000 0.01838  0.71541  0.97908  Biso   1.000  O
  C56      1.0000 0.98180  0.78562  0.84208  Biso   1.000  C
  O12      1.0000 0.92430  0.85998  0.69703  Biso   1.000  O
  C57      1.0000 0.21253  0.64190  0.03410  Biso   1.000  C
  C58      1.0000 0.12991  0.92341  0.76617  Biso   1.000  C
  C59      1.0000 0.07744  0.65871  0.03282  Biso   1.000  C
  H32      1.0000 0.00015  0.83029  0.88157  Biso   1.000  H
  C60      1.0000 0.98559  0.92672  0.74650  Biso   1.000  C
  H33      1.0000 0.07289  0.66560  0.09669  Biso   1.000  H
  H34      1.0000 0.02720  0.61392  0.00709  Biso   1.000  H
  H35      1.0000 0.95120  0.97122  0.70950  Biso   1.000  H
  H36      1.0000 0.96508  0.93031  0.80587  Biso   1.000  H
  C61      1.0000 0.49734  0.58690  0.30300  Biso   1.000  C
  C62      1.0000 0.38074  0.58440  0.29110  Biso   1.000  C
  C63      1.0000 0.64075  0.59391  0.32439  Biso   1.000  C
  C64      1.0000 0.24580  0.58029  0.27720  Biso   1.000  C
  O13      1.0000 0.68653  0.66019  0.38112  Biso   1.000  O
  H37      1.0000 0.66394  0.59790  0.26601  Biso   1.000  H
  H38      1.0000 0.68337  0.54952  0.35789  Biso   1.000  H
  C65      1.0000 0.12986  0.57659  0.26622  Biso   1.000  C
  C66      1.0000 0.65825  0.73028  0.33658  Biso   1.000  C
  C67      1.0000 0.98561  0.57328  0.24648  Biso   1.000  C
  C68      1.0000 0.67180  0.79160  0.39837  Biso   1.000  C
  C69      1.0000 0.62305  0.74003  0.23928  Biso   1.000  C
  O14      1.0000 0.92432  0.64002  0.19701  Biso   1.000  O
  H39      1.0000 0.95123  0.52878  0.20949  Biso   1.000  H
  H40      1.0000 0.96513  0.56969  0.30593  Biso   1.000  H
  C70      1.0000 0.65347  0.86380  0.36031  Biso   1.000  C
  H41      1.0000 0.69221  0.78391  0.46602  Biso   1.000  H
  C71      1.0000 0.60439  0.81360  0.20343  Biso   1.000  C
  H42      1.0000 0.61041  0.69689  0.19730  Biso   1.000  H
  C72      1.0000 0.94658  0.70851  0.24441  Biso   1.000  C
  C73      1.0000 0.61784  0.87548  0.26173  Biso   1.000  C
  O15      1.0000 0.67113  0.92991  0.41270  Biso   1.000  O
  O16      1.0000 0.57791  0.81707  0.10592  Biso   1.000  O
  C74      1.0000 0.98185  0.71438  0.34214  Biso   1.000  C
  C75      1.0000 0.92524  0.77279  0.18582  Biso   1.000  C
  H43      1.0000 0.60321  0.92597  0.23572  Biso   1.000  H
  C76      1.0000 0.68145  0.92461  0.51171  Biso   1.000  C
  C77      1.0000 0.52328  0.88568  0.05859  Biso   1.000  C
  H44      1.0000 0.00020  0.66971  0.38162  Biso   1.000  H
  C78      1.0000 0.99219  0.78562  0.38219  Biso   1.000  C
  C79      1.0000 0.93570  0.84357  0.22781  Biso   1.000  C
  H45      1.0000 0.90355  0.76772  0.11782  Biso   1.000  H
  C80      1.0000 0.55680  0.90289  0.52689  Biso   1.000  C
  H46      1.0000 0.74783  0.88762  0.54122  Biso   1.000  H
  H47      1.0000 0.70893  0.97287  0.54157  Biso   1.000  H
  C81      1.0000 0.38572  0.89560  0.05774  Biso   1.000  C
  H48      1.0000 0.57420  0.92808  0.09152  Biso   1.000  H
  H49      1.0000 0.52863  0.88551  0.99437  Biso   1.000  H
  O17      1.0000 0.01843  0.78459  0.47913  Biso   1.000  O
  C82      1.0000 0.96953  0.85092  0.32731  Biso   1.000  C
  O18      1.0000 0.91061  0.91059  0.17926  Biso   1.000  O
  C83      1.0000 0.45101  0.88688  0.53352  Biso   1.000  C
  C84      1.0000 0.27201  0.90022  0.05681  Biso   1.000  C
  C85      1.0000 0.07737  0.84129  0.53280  Biso   1.000  C
  H50      1.0000 0.97726  0.90022  0.35660  Biso   1.000  H
  C86      1.0000 0.90329  0.91150  0.08040  Biso   1.000  C
  C87      1.0000 0.32435  0.86979  0.53637  Biso   1.000  C
  C88      1.0000 0.14365  0.90529  0.06037  Biso   1.000  C
  C89      1.0000 0.21245  0.85810  0.53409  Biso   1.000  C
  H51      1.0000 0.07291  0.83440  0.59667  Biso   1.000  H
  H52      1.0000 0.02722  0.88608  0.50707  Biso   1.000  H
  C90      1.0000 0.03289  0.90762  0.06643  Biso   1.000  C
  H53      1.0000 0.85872  0.95698  0.05139  Biso   1.000  H
  H54      1.0000 0.85196  0.86848  0.04968  Biso   1.000  H
  C91      1.0000 0.50271  0.41310  0.69703  Biso   1.000  C
  C92      1.0000 0.35918  0.40609  0.67557  Biso   1.000  C
  C93      1.0000 0.61931  0.41560  0.70893  Biso   1.000  C
  O19      1.0000 0.31352  0.33981  0.61891  Biso   1.000  O
  H55      1.0000 0.33611  0.40210  0.73402  Biso   1.000  H
  H56      1.0000 0.31656  0.45048  0.64207  Biso   1.000  H
  C94      1.0000 0.75426  0.41971  0.72283  Biso   1.000  C
  C95      1.0000 0.34168  0.26972  0.66339  Biso   1.000  C
  C96      1.0000 0.87009  0.42341  0.73381  Biso   1.000  C
  C97      1.0000 0.32822  0.20840  0.60159  Biso   1.000  C
  C98      1.0000 0.37688  0.25997  0.76068  Biso   1.000  C
  C99      1.0000 0.01441  0.42672  0.75348  Biso   1.000  C
  C100     1.0000 0.34649  0.13620  0.63972  Biso   1.000  C
  H57      1.0000 0.30785  0.21609  0.53402  Biso   1.000  H
  C101     1.0000 0.39557  0.18640  0.79661  Biso   1.000  C
  H58      1.0000 0.38965  0.30311  0.80274  Biso   1.000  H
  O20      1.0000 0.07573  0.35998  0.80302  Biso   1.000  O
  H59      1.0000 0.04880  0.47122  0.79048  Biso   1.000  H
  H60      1.0000 0.03492  0.43031  0.69411  Biso   1.000  H
  O21      1.0000 0.32892  0.07009  0.58733  Biso   1.000  O
  C102     1.0000 0.38221  0.12452  0.73830  Biso   1.000  C
  O22      1.0000 0.42214  0.18293  0.89411  Biso   1.000  O
  C103     1.0000 0.05338  0.29149  0.75562  Biso   1.000  C
  C104     1.0000 0.31861  0.07539  0.48833  Biso   1.000  C
  H61      1.0000 0.39685  0.07403  0.76432  Biso   1.000  H
  C105     1.0000 0.47665  0.11432  0.94137  Biso   1.000  C
  C106     1.0000 0.01820  0.28562  0.65790  Biso   1.000  C
  C107     1.0000 0.07482  0.22721  0.81421  Biso   1.000  C
  C108     1.0000 0.44322  0.09711  0.47307  Biso   1.000  C
  H62      1.0000 0.25223  0.11238  0.45882  Biso   1.000  H
  H63      1.0000 0.29109  0.02713  0.45839  Biso   1.000  H
  C109     1.0000 0.61433  0.10440  0.94230  Biso   1.000  C
  H64      1.0000 0.42576  0.07192  0.90851  Biso   1.000  H
  H65      1.0000 0.47139  0.11449  0.00559  Biso   1.000  H
  C110     1.0000 0.00783  0.21438  0.61777  Biso   1.000  C
  H66      1.0000 0.99985  0.33029  0.61841  Biso   1.000  H
  C111     1.0000 0.06435  0.15643  0.77223  Biso   1.000  C
  H67      1.0000 0.09650  0.23228  0.88221  Biso   1.000  H
  C112     1.0000 0.54904  0.11312  0.46652  Biso   1.000  C
  C113     1.0000 0.72805  0.09978  0.94322  Biso   1.000  C
  O23      1.0000 0.98162  0.21541  0.52090  Biso   1.000  O
  C114     1.0000 0.03052  0.14908  0.67272  Biso   1.000  C
  O24      1.0000 0.08941  0.08941  0.82070  Biso   1.000  O
  C115     1.0000 0.67558  0.13021  0.46359  Biso   1.000  C
  C116     1.0000 0.85628  0.09471  0.93959  Biso   1.000  C
  C117     1.0000 0.92259  0.15871  0.46723  Biso   1.000  C
  H68      1.0000 0.02270  0.09978  0.64343  Biso   1.000  H
  C118     1.0000 0.09676  0.08850  0.91963  Biso   1.000  C
  C119     1.0000 0.78748  0.14190  0.46587  Biso   1.000  C
  C120     1.0000 0.96707  0.09238  0.93360  Biso   1.000  C
  H69      1.0000 0.92711  0.16560  0.40329  Biso   1.000  H
  H70      1.0000 0.97280  0.11392  0.49289  Biso   1.000  H
  H71      1.0000 0.14130  0.04302  0.94857  Biso   1.000  H
  H72      1.0000 0.14797  0.13152  0.95028  Biso   1.000  H
  Ne1      1.0000 0.69972  0.28944  0.20753  Biso   1.000  Ne
  He1      1.0000 0.72608  0.23847  0.33262  Biso   1.000  He
  He2      1.0000 0.68379  0.40271  0.20532  Biso   1.000  He
  He3      1.0000 0.60717  0.22893  0.07648  Biso   1.000  He
  Ar1      1.0000 0.70061  0.29406  0.21166  Biso   1.000  Ar
  Ne2      1.0000 0.69973  0.21056  0.70754  Biso   1.000  Ne
  He4      1.0000 0.72712  0.26419  0.83829  Biso   1.000  He
  He5      1.0000 0.72465  0.10358  0.69987  Biso   1.000  He
  He6      1.0000 0.61167  0.26749  0.58360  Biso   1.000  He
  Ar2      1.0000 0.70070  0.20591  0.71135  Biso   1.000  Ar
  Ne3      1.0000 0.30029  0.78944  0.29247  Biso   1.000  Ne
  He7      1.0000 0.38824  0.73265  0.41617  Biso   1.000  He
  He8      1.0000 0.29639  0.90410  0.29760  Biso   1.000  He
  He9      1.0000 0.27381  0.73810  0.16660  Biso   1.000  He
  Ar3      1.0000 0.29928  0.79407  0.28842  Biso   1.000  Ar
  Ne4      1.0000 0.30029  0.71056  0.79247  Biso   1.000  Ne
  He10     1.0000 0.33030  0.77946  0.91712  Biso   1.000  He
  He11     1.0000 0.27456  0.60039  0.80047  Biso   1.000  He
  He12     1.0000 0.23834  0.75889  0.66329  Biso   1.000  He
  Ar4      1.0000 0.29931  0.70590  0.78836  Biso   1.000  Ar
