data_image0
_cell_length_a       15.358
_cell_length_b       16.029
_cell_length_c       21.009
_cell_angle_alpha    93.44
_cell_angle_beta     105.84
_cell_angle_gamma    92.28

_symmetry_space_group_name_H-M    "P 1"
_symmetry_int_tables_number       1

loop_
  _symmetry_equiv_pos_as_xyz
  'x, y, z'

loop_
  _atom_site_label
  _atom_site_occupancy
  _atom_site_fract_x
  _atom_site_fract_y
  _atom_site_fract_z
  _atom_site_thermal_displace_type
  _atom_site_B_iso_or_equiv
  _atom_site_type_symbol
  O1       1.0000 0.03292  0.02179  0.84832  Biso   1.000  O
  C1       1.0000 0.03502  0.98941  0.79563  Biso   1.000  C
  C2       1.0000 0.03495  0.98941  0.79563  Biso   1.000  C
  N1       1.0000 0.10681  0.98973  0.77023  Biso   1.000  N
  C3       1.0000 0.95680  0.93608  0.75252  Biso   1.000  C
  C4       1.0000 0.95674  0.93614  0.75252  Biso   1.000  C
  O2       1.0000 0.03298  0.02179  0.84832  Biso   1.000  O
  O3       1.0000 0.03299  0.02185  0.84832  Biso   1.000  O
  C5       1.0000 0.19324  0.03467  0.80089  Biso   1.000  C
  C6       1.0000 0.19324  0.03473  0.80089  Biso   1.000  C
  C7       1.0000 0.88240  0.97459  0.71412  Biso   1.000  C
  C8       1.0000 0.95423  0.84908  0.75426  Biso   1.000  C
  C9       1.0000 0.88233  0.97459  0.71412  Biso   1.000  C
  C10      1.0000 0.95415  0.84914  0.75421  Biso   1.000  C
  C11      1.0000 0.22414  0.06153  0.86812  Biso   1.000  C
  C12      1.0000 0.24831  0.04827  0.75922  Biso   1.000  C
  C13      1.0000 0.24837  0.04827  0.75922  Biso   1.000  C
  C14      1.0000 0.24837  0.04834  0.75922  Biso   1.000  C
  C15      1.0000 0.80537  0.92621  0.67731  Biso   1.000  C
  C16      1.0000 0.80531  0.92621  0.67731  Biso   1.000  C
  O4       1.0000 0.88931  0.06149  0.71199  Biso   1.000  O
  O5       1.0000 0.88938  0.06149  0.71199  Biso   1.000  O
  C17      1.0000 0.87727  0.80070  0.71745  Biso   1.000  C
  O6       1.0000 0.03206  0.81372  0.78963  Biso   1.000  O
  H1       1.0000 0.18146  0.05092  0.90042  Biso   1.000  H
  C18      1.0000 0.31002  0.10180  0.89362  Biso   1.000  C
  C19      1.0000 0.31009  0.10180  0.89362  Biso   1.000  C
  H2       1.0000 0.22445  0.02758  0.70722  Biso   1.000  H
  C20      1.0000 0.33432  0.08867  0.78472  Biso   1.000  C
  C21      1.0000 0.33432  0.08873  0.78472  Biso   1.000  C
  C22      1.0000 0.33439  0.08873  0.78472  Biso   1.000  C
  C23      1.0000 0.80293  0.83921  0.67905  Biso   1.000  C
  C24      1.0000 0.72378  0.97210  0.64045  Biso   1.000  C
  C25      1.0000 0.72376  0.97210  0.64040  Biso   1.000  C
  C26      1.0000 0.80287  0.83921  0.67905  Biso   1.000  C
  C27      1.0000 0.85107  0.10618  0.75684  Biso   1.000  C
  C28      1.0000 0.85107  0.10624  0.75684  Biso   1.000  C
  C29      1.0000 0.87866  0.70399  0.72355  Biso   1.000  C
  C30      1.0000 0.03248  0.78979  0.85323  Biso   1.000  C
  C31      1.0000 0.03248  0.78985  0.85323  Biso   1.000  C
  N2       1.0000 0.33133  0.12693  0.96114  Biso   1.000  N
  C32      1.0000 0.36515  0.11540  0.85194  Biso   1.000  C
  N3       1.0000 0.33138  0.12693  0.96109  Biso   1.000  N
  C33      1.0000 0.36513  0.11540  0.85189  Biso   1.000  C
  N4       1.0000 0.33139  0.12693  0.96114  Biso   1.000  N
  H3       1.0000 0.37694  0.09921  0.75242  Biso   1.000  H
  H4       1.0000 0.74330  0.80179  0.65062  Biso   1.000  H
  H5       1.0000 0.74323  0.80179  0.65062  Biso   1.000  H
  C34      1.0000 0.67001  0.99245  0.69070  Biso   1.000  C
  C35      1.0000 0.66543  0.92826  0.57521  Biso   1.000  C
  C36      1.0000 0.67003  0.99252  0.69075  Biso   1.000  C
  C37      1.0000 0.67008  0.99251  0.69070  Biso   1.000  C
  H6       1.0000 0.74851  0.02715  0.62209  Biso   1.000  H
  H7       1.0000 0.74853  0.02722  0.62214  Biso   1.000  H
  H8       1.0000 0.74858  0.02721  0.62209  Biso   1.000  H
  O7       1.0000 0.75922  0.12631  0.72151  Biso   1.000  O
  H9       1.0000 0.84863  0.06888  0.79752  Biso   1.000  H
  H10      1.0000 0.89131  0.16377  0.77589  Biso   1.000  H
  H11      1.0000 0.89133  0.16384  0.77594  Biso   1.000  H
  H12      1.0000 0.84863  0.06894  0.79752  Biso   1.000  H
  O8       1.0000 0.75928  0.12631  0.72151  Biso   1.000  O
  H13      1.0000 0.89138  0.16383  0.77589  Biso   1.000  H
  H14      1.0000 0.84870  0.06894  0.79752  Biso   1.000  H
  C38      1.0000 0.84704  0.68221  0.78273  Biso   1.000  C
  H15      1.0000 0.94846  0.68772  0.73322  Biso   1.000  H
  C39      1.0000 0.82585  0.65542  0.65712  Biso   1.000  C
  H16      1.0000 0.98614  0.82732  0.87144  Biso   1.000  H
  H17      1.0000 0.98606  0.82732  0.87139  Biso   1.000  H
  H18      1.0000 0.98607  0.82732  0.87144  Biso   1.000  H
  H19      1.0000 0.10019  0.80093  0.88633  Biso   1.000  H
  O9       1.0000 0.00388  0.70365  0.85075  Biso   1.000  O
  O10      1.0000 0.00386  0.70364  0.85070  Biso   1.000  O
  C40      1.0000 0.41516  0.16046  0.99934  Biso   1.000  C
  C41      1.0000 0.41514  0.16045  0.99929  Biso   1.000  C
  H20      1.0000 0.43174  0.14670  0.87159  Biso   1.000  H
  C42      1.0000 0.60263  0.93723  0.69983  Biso   1.000  C
  C43      1.0000 0.60269  0.93723  0.69983  Biso   1.000  C
  C44      1.0000 0.69533  0.06661  0.73144  Biso   1.000  C
  C45      1.0000 0.69539  0.06661  0.73144  Biso   1.000  C
  C46      1.0000 0.71652  0.92355  0.52455  Biso   1.000  C
  H21      1.0000 0.64753  0.86528  0.58483  Biso   1.000  H
  H22      1.0000 0.60435  0.96087  0.55655  Biso   1.000  H
  C47      1.0000 0.71645  0.92361  0.52455  Biso   1.000  C
  C48      1.0000 0.71644  0.92361  0.52450  Biso   1.000  C
  H23      1.0000 0.82480  0.58901  0.66342  Biso   1.000  H
  H24      1.0000 0.82473  0.58901  0.66342  Biso   1.000  H
  H25      1.0000 0.75712  0.67533  0.64293  Biso   1.000  H
  C49      1.0000 0.87205  0.67308  0.60205  Biso   1.000  C
  H26      1.0000 0.75718  0.67533  0.64293  Biso   1.000  H
  C50      1.0000 0.75646  0.66011  0.77802  Biso   1.000  C
  C51      1.0000 0.91211  0.68612  0.84425  Biso   1.000  C
  C52      1.0000 0.91203  0.68612  0.84420  Biso   1.000  C
  C53      1.0000 0.91204  0.68612  0.84425  Biso   1.000  C
  C54      1.0000 0.91209  0.68612  0.84420  Biso   1.000  C
  O11      1.0000 0.48007  0.17529  0.97761  Biso   1.000  O
  O12      1.0000 0.48007  0.17536  0.97761  Biso   1.000  O
  C55      1.0000 0.41932  0.18849  0.06979  Biso   1.000  C
  C56      1.0000 0.41938  0.18855  0.06979  Biso   1.000  C
  C57      1.0000 0.56046  0.95602  0.74945  Biso   1.000  C
  H27      1.0000 0.58308  0.87992  0.66833  Biso   1.000  H
  C58      1.0000 0.65314  0.08526  0.78100  Biso   1.000  C
  C59      1.0000 0.65315  0.08533  0.78100  Biso   1.000  C
  H28      1.0000 0.77680  0.89025  0.54445  Biso   1.000  H
  H29      1.0000 0.73577  0.98715  0.51761  Biso   1.000  H
  C60      1.0000 0.66837  0.87948  0.45753  Biso   1.000  C
  H30      1.0000 0.73571  0.98715  0.51761  Biso   1.000  H
  C61      1.0000 0.66830  0.87948  0.45753  Biso   1.000  C
  H31      1.0000 0.73571  0.98721  0.51761  Biso   1.000  H
  H32      1.0000 0.77672  0.89031  0.54440  Biso   1.000  H
  H33      1.0000 0.94368  0.66450  0.62184  Biso   1.000  H
  C62      1.0000 0.83811  0.61585  0.53914  Biso   1.000  C
  H34      1.0000 0.94366  0.66449  0.62179  Biso   1.000  H
  C63      1.0000 0.83803  0.61584  0.53909  Biso   1.000  C
  H35      1.0000 0.86243  0.73746  0.59073  Biso   1.000  H
  C64      1.0000 0.83805  0.61591  0.53914  Biso   1.000  C
  H36      1.0000 0.86247  0.73746  0.59069  Biso   1.000  H
  C65      1.0000 0.83803  0.61590  0.53909  Biso   1.000  C
  H37      1.0000 0.70608  0.65699  0.73044  Biso   1.000  H
  C66      1.0000 0.73098  0.64197  0.83473  Biso   1.000  C
  H38      1.0000 0.70606  0.65699  0.73039  Biso   1.000  H
  C67      1.0000 0.88661  0.66811  0.90091  Biso   1.000  C
  C68      1.0000 0.88655  0.66811  0.90091  Biso   1.000  C
  C69      1.0000 0.39321  0.26722  0.08721  Biso   1.000  C
  C70      1.0000 0.39326  0.26721  0.08716  Biso   1.000  C
  C71      1.0000 0.45807  0.13582  0.11911  Biso   1.000  C
  C72      1.0000 0.39328  0.26722  0.08721  Biso   1.000  C
  C73      1.0000 0.45799  0.13582  0.11906  Biso   1.000  C
  C74      1.0000 0.39319  0.26721  0.08716  Biso   1.000  C
  C75      1.0000 0.48694  0.89569  0.76135  Biso   1.000  C
  C76      1.0000 0.48699  0.89569  0.76130  Biso   1.000  C
  C77      1.0000 0.58566  0.03010  0.79003  Biso   1.000  C
  C78      1.0000 0.66486  0.17294  0.81275  Biso   1.000  C
  C79      1.0000 0.66484  0.17294  0.81270  Biso   1.000  C
  C80      1.0000 0.57547  0.88763  0.43103  Biso   1.000  C
  C81      1.0000 0.71617  0.83216  0.42200  Biso   1.000  C
  C82      1.0000 0.57539  0.88762  0.43098  Biso   1.000  C
  C83      1.0000 0.71610  0.83216  0.42200  Biso   1.000  C
  C84      1.0000 0.57541  0.88769  0.43103  Biso   1.000  C
  C85      1.0000 0.57545  0.88769  0.43098  Biso   1.000  C
  C86      1.0000 0.76051  0.63508  0.49082  Biso   1.000  C
  C87      1.0000 0.88532  0.54617  0.52842  Biso   1.000  C
  C88      1.0000 0.76044  0.63508  0.49082  Biso   1.000  C
  C89      1.0000 0.79593  0.64599  0.89610  Biso   1.000  C
  C90      1.0000 0.63062  0.62181  0.83483  Biso   1.000  C
  C91      1.0000 0.79595  0.64606  0.89615  Biso   1.000  C
  C92      1.0000 0.79599  0.64599  0.89610  Biso   1.000  C
  C93      1.0000 0.95878  0.68563  0.96650  Biso   1.000  C
  C94      1.0000 0.47073  0.16181  0.18569  Biso   1.000  C
  O13      1.0000 0.48466  0.05869  0.10001  Biso   1.000  O
  O14      1.0000 0.48464  0.05868  0.09996  Biso   1.000  O
  O15      1.0000 0.48466  0.05875  0.10001  Biso   1.000  O
  O16      1.0000 0.48458  0.05874  0.09996  Biso   1.000  O
  C95      1.0000 0.40593  0.29320  0.15379  Biso   1.000  C
  O17      1.0000 0.35780  0.31613  0.03506  Biso   1.000  O
  O18      1.0000 0.35787  0.31613  0.03506  Biso   1.000  O
  H39      1.0000 0.43951  0.93270  0.77862  Biso   1.000  H
  C96      1.0000 0.52934  0.83831  0.81434  Biso   1.000  C
  C97      1.0000 0.42864  0.84719  0.69641  Biso   1.000  C
  H40      1.0000 0.43945  0.93270  0.77862  Biso   1.000  H
  O19      1.0000 0.54474  0.05160  0.83865  Biso   1.000  O
  O20      1.0000 0.54478  0.05160  0.83860  Biso   1.000  O
  N5       1.0000 0.73611  0.18479  0.87025  Biso   1.000  N
  O21      1.0000 0.61771  0.22928  0.78675  Biso   1.000  O
  N6       1.0000 0.73618  0.18485  0.87025  Biso   1.000  N
  O22      1.0000 0.61778  0.22934  0.78675  Biso   1.000  O
  N7       1.0000 0.73616  0.18484  0.87020  Biso   1.000  N
  O23      1.0000 0.61776  0.22934  0.78670  Biso   1.000  O
  H41      1.0000 0.53836  0.92427  0.45852  Biso   1.000  H
  C98      1.0000 0.53034  0.84845  0.36892  Biso   1.000  C
  C99      1.0000 0.67110  0.79291  0.35989  Biso   1.000  C
  C100     1.0000 0.67112  0.79298  0.35994  Biso   1.000  C
  C101     1.0000 0.67116  0.79297  0.35989  Biso   1.000  C
  H42      1.0000 0.78815  0.82588  0.44249  Biso   1.000  H
  C102     1.0000 0.85510  0.49553  0.46933  Biso   1.000  C
  H43      1.0000 0.94536  0.53129  0.56583  Biso   1.000  H
  C103     1.0000 0.85504  0.49559  0.46933  Biso   1.000  C
  C104     1.0000 0.85502  0.49559  0.46928  Biso   1.000  C
  C105     1.0000 0.73029  0.58456  0.43173  Biso   1.000  C
  C106     1.0000 0.73023  0.58456  0.43173  Biso   1.000  C
  H44      1.0000 0.72384  0.68904  0.49910  Biso   1.000  H
  H45      1.0000 0.72385  0.68911  0.49910  Biso   1.000  H
  O24      1.0000 0.77625  0.62353  0.95400  Biso   1.000  O
  O25      1.0000 0.77626  0.62354  0.95405  Biso   1.000  O
  H46      1.0000 0.62279  0.57984  0.87154  Biso   1.000  H
  C107     1.0000 0.59414  0.70691  0.84624  Biso   1.000  C
  H47      1.0000 0.62271  0.57977  0.87149  Biso   1.000  H
  C108     1.0000 0.57645  0.57566  0.76760  Biso   1.000  C
  C109     1.0000 0.57648  0.57573  0.76765  Biso   1.000  C
  H48      1.0000 0.62278  0.57983  0.87149  Biso   1.000  H
  C110     1.0000 0.57646  0.57572  0.76760  Biso   1.000  C
  O26      1.0000 0.95179  0.74410  0.00440  Biso   1.000  O
  O27      1.0000 0.95177  0.74410  0.00435  Biso   1.000  O
  N8       1.0000 0.02532  0.63179  0.97632  Biso   1.000  N
  N9       1.0000 0.02526  0.63179  0.97632  Biso   1.000  N
  N10      1.0000 0.02526  0.63185  0.97632  Biso   1.000  N
  C111     1.0000 0.51313  0.10443  0.23867  Biso   1.000  C
  C112     1.0000 0.44462  0.24060  0.20310  Biso   1.000  C
  C113     1.0000 0.44469  0.24066  0.20310  Biso   1.000  C
  C114     1.0000 0.44461  0.24066  0.20305  Biso   1.000  C
  C115     1.0000 0.42960  0.98408  0.10070  Biso   1.000  C
  C116     1.0000 0.42958  0.98407  0.10065  Biso   1.000  C
  C117     1.0000 0.42960  0.98414  0.10070  Biso   1.000  C
  C118     1.0000 0.42958  0.98413  0.10065  Biso   1.000  C
  C119     1.0000 0.36945  0.37831  0.16520  Biso   1.000  C
  C120     1.0000 0.36937  0.37830  0.16515  Biso   1.000  C
  C121     1.0000 0.26106  0.31222  0.00991  Biso   1.000  C
  C122     1.0000 0.26104  0.31216  0.00986  Biso   1.000  C
  C123     1.0000 0.26098  0.31222  0.00986  Biso   1.000  C
  C124     1.0000 0.54207  0.86429  0.88092  Biso   1.000  C
  C125     1.0000 0.55545  0.75952  0.79692  Biso   1.000  C
  C126     1.0000 0.54207  0.86436  0.88092  Biso   1.000  C
  H49      1.0000 0.38252  0.80148  0.70772  Biso   1.000  H
  H50      1.0000 0.47393  0.81561  0.67299  Biso   1.000  H
  H51      1.0000 0.38246  0.80148  0.70772  Biso   1.000  H
  C127     1.0000 0.37456  0.90458  0.64754  Biso   1.000  C
  H52      1.0000 0.47395  0.81561  0.67304  Biso   1.000  H
  C128     1.0000 0.57041  0.01604  0.89932  Biso   1.000  C
  C129     1.0000 0.57047  0.01598  0.89932  Biso   1.000  C
  C130     1.0000 0.57048  0.01604  0.89932  Biso   1.000  C
  C131     1.0000 0.76432  0.26594  0.90295  Biso   1.000  C
  C132     1.0000 0.76439  0.26594  0.90295  Biso   1.000  C
  C133     1.0000 0.57831  0.80112  0.33335  Biso   1.000  C
  H53      1.0000 0.45845  0.85477  0.34833  Biso   1.000  H
  C134     1.0000 0.57825  0.80118  0.33335  Biso   1.000  C
  C135     1.0000 0.57823  0.80118  0.33330  Biso   1.000  C
  H54      1.0000 0.70815  0.75639  0.33240  Biso   1.000  H
  C136     1.0000 0.77740  0.51475  0.42091  Biso   1.000  C
  H55      1.0000 0.89164  0.44156  0.46105  Biso   1.000  H
  H56      1.0000 0.67015  0.59937  0.39422  Biso   1.000  H
  C137     1.0000 0.73908  0.68789  0.99011  Biso   1.000  C
  C138     1.0000 0.73908  0.68796  0.99011  Biso   1.000  C
  C139     1.0000 0.60686  0.73290  0.91282  Biso   1.000  C
  C140     1.0000 0.60686  0.73296  0.91282  Biso   1.000  C
  H57      1.0000 0.60706  0.51771  0.76011  Biso   1.000  H
  C141     1.0000 0.47457  0.55608  0.76249  Biso   1.000  C
  H58      1.0000 0.58083  0.61644  0.72945  Biso   1.000  H
  H59      1.0000 0.58088  0.61638  0.72940  Biso   1.000  H
  C142     1.0000 0.11150  0.64668  0.02499  Biso   1.000  C
  C143     1.0000 0.11151  0.64675  0.02499  Biso   1.000  C
  H60      1.0000 0.56063  0.06742  0.22141  Biso   1.000  H
  C144     1.0000 0.43961  0.04410  0.25058  Biso   1.000  C
  H61      1.0000 0.56067  0.06741  0.22136  Biso   1.000  H
  C145     1.0000 0.43967  0.04410  0.25058  Biso   1.000  C
  C146     1.0000 0.57150  0.15292  0.30362  Biso   1.000  C
  H62      1.0000 0.56069  0.06742  0.22141  Biso   1.000  H
  C147     1.0000 0.43968  0.04416  0.25058  Biso   1.000  C
  C148     1.0000 0.57141  0.15292  0.30357  Biso   1.000  C
  H63      1.0000 0.56061  0.06741  0.22136  Biso   1.000  H
  C149     1.0000 0.43961  0.04416  0.25058  Biso   1.000  C
  H64      1.0000 0.45453  0.26075  0.25460  Biso   1.000  H
  H65      1.0000 0.45451  0.26075  0.25455  Biso   1.000  H
  H66      1.0000 0.43449  0.93881  0.06180  Biso   1.000  H
  O28      1.0000 0.45527  0.94851  0.16138  Biso   1.000  O
  H67      1.0000 0.43447  0.93881  0.06176  Biso   1.000  H
  H68      1.0000 0.36007  0.00094  0.09207  Biso   1.000  H
  H69      1.0000 0.36001  0.00094  0.09207  Biso   1.000  H
  H70      1.0000 0.37734  0.42028  0.12848  Biso   1.000  H
  C150     1.0000 0.26914  0.35808  0.16525  Biso   1.000  C
  C151     1.0000 0.26916  0.35815  0.16530  Biso   1.000  C
  H71      1.0000 0.37735  0.42034  0.12848  Biso   1.000  H
  C152     1.0000 0.42366  0.42445  0.23237  Biso   1.000  C
  C153     1.0000 0.26907  0.35814  0.16525  Biso   1.000  C
  H72      1.0000 0.37728  0.42034  0.12848  Biso   1.000  H
  C154     1.0000 0.42360  0.42445  0.23237  Biso   1.000  C
  H73      1.0000 0.24361  0.32413  0.95802  Biso   1.000  H
  H74      1.0000 0.24368  0.32413  0.95802  Biso   1.000  H
  O29      1.0000 0.22381  0.37658  0.04598  Biso   1.000  O
  H75      1.0000 0.23321  0.25098  0.01537  Biso   1.000  H
  O30      1.0000 0.22388  0.37664  0.04598  Biso   1.000  O
  O31      1.0000 0.22381  0.37664  0.04598  Biso   1.000  O
  C155     1.0000 0.58082  0.81163  0.93023  Biso   1.000  C
  O32      1.0000 0.51548  0.94143  0.90002  Biso   1.000  O
  C156     1.0000 0.58076  0.81163  0.93023  Biso   1.000  C
  H76      1.0000 0.54554  0.73937  0.74543  Biso   1.000  H
  H77      1.0000 0.54554  0.73943  0.74543  Biso   1.000  H
  C157     1.0000 0.33706  0.85948  0.57952  Biso   1.000  C
  H78      1.0000 0.41822  0.95775  0.64451  Biso   1.000  H
  H79      1.0000 0.31886  0.92578  0.66535  Biso   1.000  H
  H80      1.0000 0.41822  0.95781  0.64451  Biso   1.000  H
  H81      1.0000 0.64007  0.99924  0.90796  Biso   1.000  H
  H82      1.0000 0.56552  0.06130  0.93822  Biso   1.000  H
  H83      1.0000 0.56559  0.06130  0.93822  Biso   1.000  H
  C158     1.0000 0.85403  0.27573  0.94244  Biso   1.000  C
  C159     1.0000 0.70911  0.33392  0.89610  Biso   1.000  C
  C160     1.0000 0.85409  0.27573  0.94244  Biso   1.000  C
  C161     1.0000 0.70918  0.33392  0.89610  Biso   1.000  C
  H84      1.0000 0.54330  0.77087  0.28532  Biso   1.000  H
  H85      1.0000 0.75402  0.47566  0.37522  Biso   1.000  H
  O33      1.0000 0.64234  0.68399  0.96496  Biso   1.000  O
  H86      1.0000 0.76685  0.74913  0.98461  Biso   1.000  H
  H87      1.0000 0.76686  0.74913  0.98466  Biso   1.000  H
  O34      1.0000 0.64226  0.68405  0.96491  Biso   1.000  O
  H88      1.0000 0.75640  0.67599  0.04201  Biso   1.000  H
  H89      1.0000 0.75638  0.67598  0.04196  Biso   1.000  H
  H90      1.0000 0.75640  0.67605  0.04201  Biso   1.000  H
  H91      1.0000 0.44448  0.61407  0.77103  Biso   1.000  H
  H92      1.0000 0.44001  0.52782  0.71372  Biso   1.000  H
  C162     1.0000 0.46248  0.49712  0.81325  Biso   1.000  C
  H93      1.0000 0.43994  0.52776  0.71372  Biso   1.000  H
  C163     1.0000 0.46247  0.49711  0.81320  Biso   1.000  C
  H94      1.0000 0.44448  0.61413  0.77103  Biso   1.000  H
  H95      1.0000 0.43995  0.52782  0.71372  Biso   1.000  H
  C164     1.0000 0.14598  0.72439  0.05759  Biso   1.000  C
  C165     1.0000 0.14598  0.72445  0.05759  Biso   1.000  C
  C166     1.0000 0.16663  0.57870  0.03179  Biso   1.000  C
  H96      1.0000 0.52612  0.18451  0.32698  Biso   1.000  H
  C167     1.0000 0.62558  0.09553  0.35248  Biso   1.000  C
  H97      1.0000 0.52619  0.18451  0.32698  Biso   1.000  H
  H98      1.0000 0.52619  0.18457  0.32698  Biso   1.000  H
  H99      1.0000 0.61768  0.19864  0.29230  Biso   1.000  H
  H100     1.0000 0.52612  0.18457  0.32698  Biso   1.000  H
  H101     1.0000 0.61760  0.19863  0.29225  Biso   1.000  H
  C168     1.0000 0.41435  0.97002  0.21000  Biso   1.000  C
  C169     1.0000 0.41441  0.97002  0.21000  Biso   1.000  C
  C170     1.0000 0.39745  0.06295  0.30019  Biso   1.000  C
  C171     1.0000 0.39738  0.06295  0.30019  Biso   1.000  C
  C172     1.0000 0.20412  0.35412  0.10388  Biso   1.000  C
  C173     1.0000 0.24368  0.34007  0.22200  Biso   1.000  C
  C174     1.0000 0.24359  0.34000  0.22195  Biso   1.000  C
  H102     1.0000 0.39307  0.48241  0.23991  Biso   1.000  H
  C175     1.0000 0.52555  0.44403  0.23748  Biso   1.000  C
  H103     1.0000 0.39306  0.48240  0.23986  Biso   1.000  H
  H104     1.0000 0.39308  0.48247  0.23991  Biso   1.000  H
  H105     1.0000 0.39299  0.48246  0.23986  Biso   1.000  H
  H106     1.0000 0.41918  0.38374  0.27057  Biso   1.000  H
  C176     1.0000 0.52549  0.44403  0.23748  Biso   1.000  C
  C177     1.0000 0.58485  0.83972  0.00068  Biso   1.000  C
  C178     1.0000 0.58485  0.83966  0.00068  Biso   1.000  C
  C179     1.0000 0.58492  0.83972  0.00068  Biso   1.000  C
  C180     1.0000 0.37895  0.87479  0.52991  Biso   1.000  C
  C181     1.0000 0.26592  0.79838  0.56771  Biso   1.000  C
  C182     1.0000 0.74378  0.41162  0.92869  Biso   1.000  C
  H107     1.0000 0.63980  0.32640  0.86564  Biso   1.000  H
  C183     1.0000 0.88857  0.35343  0.97503  Biso   1.000  C
  H108     1.0000 0.89674  0.22301  0.94760  Biso   1.000  H
  C184     1.0000 0.44033  0.52861  0.86985  Biso   1.000  C
  C185     1.0000 0.44024  0.52860  0.86980  Biso   1.000  C
  C186     1.0000 0.47345  0.41164  0.80382  Biso   1.000  C
  C187     1.0000 0.44026  0.52861  0.86985  Biso   1.000  C
  C188     1.0000 0.25627  0.58849  0.07128  Biso   1.000  C
  H109     1.0000 0.13987  0.51854  0.00659  Biso   1.000  H
  C189     1.0000 0.23568  0.73418  0.09708  Biso   1.000  C
  C190     1.0000 0.23569  0.73424  0.09708  Biso   1.000  C
  H110     1.0000 0.10325  0.77710  0.05238  Biso   1.000  H
  H111     1.0000 0.10331  0.77710  0.05238  Biso   1.000  H
  C191     1.0000 0.66307  0.14063  0.42050  Biso   1.000  C
  H112     1.0000 0.68127  0.07433  0.33467  Biso   1.000  H
  H113     1.0000 0.58183  0.04230  0.35546  Biso   1.000  H
  C192     1.0000 0.66299  0.14063  0.42045  Biso   1.000  C
  H114     1.0000 0.58184  0.04236  0.35546  Biso   1.000  H
  C193     1.0000 0.34691  0.91485  0.21898  Biso   1.000  C
  C194     1.0000 0.32998  0.00766  0.30927  Biso   1.000  C
  H115     1.0000 0.41700  0.12026  0.33170  Biso   1.000  H
  C195     1.0000 0.15303  0.31797  0.21729  Biso   1.000  C
  H116     1.0000 0.29399  0.34312  0.26958  Biso   1.000  H
  C196     1.0000 0.11353  0.33201  0.09911  Biso   1.000  C
  C197     1.0000 0.11351  0.33201  0.09906  Biso   1.000  C
  C198     1.0000 0.11359  0.33201  0.09911  Biso   1.000  C
  H117     1.0000 0.55566  0.38605  0.22900  Biso   1.000  H
  H118     1.0000 0.56013  0.47230  0.28630  Biso   1.000  H
  H119     1.0000 0.55564  0.38598  0.22895  Biso   1.000  H
  H120     1.0000 0.56017  0.47229  0.28625  Biso   1.000  H
  H121     1.0000 0.56019  0.47236  0.28630  Biso   1.000  H
  C199     1.0000 0.53766  0.50306  0.18678  Biso   1.000  C
  H122     1.0000 0.55557  0.38605  0.22895  Biso   1.000  H
  H123     1.0000 0.56011  0.47236  0.28625  Biso   1.000  H
  C200     1.0000 0.53759  0.50300  0.18678  Biso   1.000  C
  N11      1.0000 0.66868  0.87318  0.03888  Biso   1.000  N
  O35      1.0000 0.51994  0.82482  0.02241  Biso   1.000  O
  O36      1.0000 0.51999  0.82482  0.02236  Biso   1.000  O
  N12      1.0000 0.66868  0.87325  0.03888  Biso   1.000  N
  O37      1.0000 0.52001  0.82482  0.02241  Biso   1.000  O
  H124     1.0000 0.43397  0.92210  0.53914  Biso   1.000  H
  C201     1.0000 0.34985  0.82887  0.46859  Biso   1.000  C
  H125     1.0000 0.43396  0.92209  0.53909  Biso   1.000  H
  C202     1.0000 0.23690  0.75247  0.50644  Biso   1.000  C
  H126     1.0000 0.23341  0.78660  0.60611  Biso   1.000  H
  C203     1.0000 0.23684  0.75247  0.50644  Biso   1.000  C
  C204     1.0000 0.83351  0.42142  0.96824  Biso   1.000  C
  H127     1.0000 0.70107  0.46434  0.92353  Biso   1.000  H
  N13      1.0000 0.97482  0.36833  0.02370  Biso   1.000  N
  N14      1.0000 0.97488  0.36833  0.02370  Biso   1.000  N
  N15      1.0000 0.97480  0.36832  0.02365  Biso   1.000  N
  C205     1.0000 0.46224  0.35758  0.85095  Biso   1.000  C
  C206     1.0000 0.46216  0.35758  0.85090  Biso   1.000  C
  C207     1.0000 0.46218  0.35765  0.85095  Biso   1.000  C
  H128     1.0000 0.49066  0.38733  0.76001  Biso   1.000  H
  C208     1.0000 0.46216  0.35764  0.85090  Biso   1.000  C
  H129     1.0000 0.43180  0.59478  0.87715  Biso   1.000  H
  C209     1.0000 0.42897  0.47461  0.91694  Biso   1.000  C
  H130     1.0000 0.43171  0.59478  0.87710  Biso   1.000  H
  H131     1.0000 0.43174  0.59484  0.87715  Biso   1.000  H
  H132     1.0000 0.43178  0.59484  0.87710  Biso   1.000  H
  C210     1.0000 0.29088  0.66620  0.10388  Biso   1.000  C
  H133     1.0000 0.29894  0.53578  0.07649  Biso   1.000  H
  H134     1.0000 0.29900  0.53584  0.07649  Biso   1.000  H
  N16      1.0000 0.26389  0.81533  0.12977  Biso   1.000  N
  C211     1.0000 0.62119  0.12533  0.47011  Biso   1.000  C
  C212     1.0000 0.73415  0.20173  0.43231  Biso   1.000  C
  C213     1.0000 0.62117  0.12533  0.47007  Biso   1.000  C
  C214     1.0000 0.73414  0.20173  0.43226  Biso   1.000  C
  C215     1.0000 0.62119  0.12539  0.47011  Biso   1.000  C
  C216     1.0000 0.73416  0.20180  0.43231  Biso   1.000  C
  C217     1.0000 0.62111  0.12539  0.47007  Biso   1.000  C
  C218     1.0000 0.33521  0.82724  0.18727  Biso   1.000  C
  C219     1.0000 0.30468  0.93357  0.26859  Biso   1.000  C
  C220     1.0000 0.27636  0.02808  0.35958  Biso   1.000  C
  C221     1.0000 0.27629  0.02808  0.35958  Biso   1.000  C
  C222     1.0000 0.12142  0.29613  0.27648  Biso   1.000  C
  C223     1.0000 0.12148  0.29613  0.27648  Biso   1.000  C
  C224     1.0000 0.08803  0.31406  0.15577  Biso   1.000  C
  C225     1.0000 0.04134  0.31448  0.03348  Biso   1.000  C
  C226     1.0000 0.04135  0.31454  0.03348  Biso   1.000  C
  C227     1.0000 0.04128  0.31454  0.03348  Biso   1.000  C
  C228     1.0000 0.52662  0.58854  0.19620  Biso   1.000  C
  C229     1.0000 0.52667  0.58854  0.19616  Biso   1.000  C
  C230     1.0000 0.52669  0.58854  0.19620  Biso   1.000  C
  C231     1.0000 0.55988  0.47151  0.13017  Biso   1.000  C
  C232     1.0000 0.52660  0.58854  0.19616  Biso   1.000  C
  C233     1.0000 0.68997  0.89832  0.10636  Biso   1.000  C
  C234     1.0000 0.27892  0.76778  0.45683  Biso   1.000  C
  C235     1.0000 0.27885  0.76778  0.45683  Biso   1.000  C
  H135     1.0000 0.38243  0.84066  0.43019  Biso   1.000  H
  H136     1.0000 0.38244  0.84066  0.43024  Biso   1.000  H
  H137     1.0000 0.18181  0.70516  0.49722  Biso   1.000  H
  H138     1.0000 0.86020  0.48164  0.99344  Biso   1.000  H
  C236     1.0000 0.43995  0.38913  0.90756  Biso   1.000  C
  H139     1.0000 0.47077  0.29141  0.84366  Biso   1.000  H
  C237     1.0000 0.44000  0.38913  0.90751  Biso   1.000  C
  H140     1.0000 0.41176  0.49904  0.96074  Biso   1.000  H
  H141     1.0000 0.36027  0.67372  0.13439  Biso   1.000  H
  H142     1.0000 0.36033  0.67372  0.13439  Biso   1.000  H
  C238     1.0000 0.65027  0.17124  0.53139  Biso   1.000  C
  H143     1.0000 0.56616  0.07802  0.46089  Biso   1.000  H
  C239     1.0000 0.65027  0.17130  0.53139  Biso   1.000  C
  H144     1.0000 0.56617  0.07808  0.46089  Biso   1.000  H
  C240     1.0000 0.65021  0.17124  0.53139  Biso   1.000  C
  H145     1.0000 0.56610  0.07808  0.46089  Biso   1.000  H
  C241     1.0000 0.76324  0.24764  0.49358  Biso   1.000  C
  H146     1.0000 0.76667  0.21352  0.39391  Biso   1.000  H
  H147     1.0000 0.76665  0.21352  0.39386  Biso   1.000  H
  H148     1.0000 0.76667  0.21358  0.39391  Biso   1.000  H
  H149     1.0000 0.76659  0.21358  0.39386  Biso   1.000  H
  O38      1.0000 0.24079  0.87381  0.27851  Biso   1.000  O
  O39      1.0000 0.24077  0.87380  0.27846  Biso   1.000  O
  O40      1.0000 0.24079  0.87387  0.27851  Biso   1.000  O
  O41      1.0000 0.24078  0.87387  0.27846  Biso   1.000  O
  O42      1.0000 0.38230  0.77084  0.21327  Biso   1.000  O
  H150     1.0000 0.25148  0.97296  0.37789  Biso   1.000  H
  H151     1.0000 0.25154  0.97296  0.37789  Biso   1.000  H
  C242     1.0000 0.19476  0.07391  0.32272  Biso   1.000  C
  C243     1.0000 0.19474  0.07390  0.32267  Biso   1.000  C
  C244     1.0000 0.33470  0.07186  0.42482  Biso   1.000  C
  C245     1.0000 0.19477  0.07397  0.32272  Biso   1.000  C
  C246     1.0000 0.33462  0.07185  0.42477  Biso   1.000  C
  C247     1.0000 0.19468  0.07397  0.32267  Biso   1.000  C
  C248     1.0000 0.12281  0.19942  0.28258  Biso   1.000  C
  H152     1.0000 0.05161  0.31240  0.26680  Biso   1.000  H
  C249     1.0000 0.17422  0.34476  0.34291  Biso   1.000  C
  C250     1.0000 0.12287  0.19942  0.28258  Biso   1.000  C
  H153     1.0000 0.05166  0.31239  0.26675  Biso   1.000  H
  C251     1.0000 0.17427  0.34476  0.34286  Biso   1.000  C
  H154     1.0000 0.05168  0.31246  0.26680  Biso   1.000  H
  C252     1.0000 0.17429  0.34476  0.34291  Biso   1.000  C
  H155     1.0000 0.05159  0.31245  0.26675  Biso   1.000  H
  C253     1.0000 0.17420  0.34476  0.34286  Biso   1.000  C
  O43      1.0000 0.99626  0.29653  0.14927  Biso   1.000  O
  O44      1.0000 0.99619  0.29653  0.14927  Biso   1.000  O
  O45      1.0000 0.04829  0.25601  0.99562  Biso   1.000  O
  H156     1.0000 0.50941  0.61285  0.24001  Biso   1.000  H
  C254     1.0000 0.53796  0.64253  0.14907  Biso   1.000  C
  H157     1.0000 0.50946  0.61284  0.23996  Biso   1.000  H
  H158     1.0000 0.50948  0.61285  0.24001  Biso   1.000  H
  H159     1.0000 0.50940  0.61284  0.23996  Biso   1.000  H
  H160     1.0000 0.56834  0.40534  0.12288  Biso   1.000  H
  C255     1.0000 0.57117  0.52551  0.08309  Biso   1.000  C
  H161     1.0000 0.56834  0.40527  0.12288  Biso   1.000  H
  H162     1.0000 0.56827  0.40534  0.12288  Biso   1.000  H
  C256     1.0000 0.77584  0.93859  0.13186  Biso   1.000  C
  C257     1.0000 0.77587  0.93865  0.13191  Biso   1.000  C
  C258     1.0000 0.63492  0.88471  0.14808  Biso   1.000  C
  C259     1.0000 0.77591  0.93865  0.13186  Biso   1.000  C
  H163     1.0000 0.25630  0.73214  0.40930  Biso   1.000  H
  H164     1.0000 0.25632  0.73220  0.40935  Biso   1.000  H
  H165     1.0000 0.25637  0.73214  0.40930  Biso   1.000  H
  H166     1.0000 0.43126  0.34732  0.94402  Biso   1.000  H
  H167     1.0000 0.61763  0.15945  0.56979  Biso   1.000  H
  C260     1.0000 0.72129  0.23234  0.54319  Biso   1.000  C
  H168     1.0000 0.61769  0.15945  0.56979  Biso   1.000  H
  C261     1.0000 0.72122  0.23240  0.54319  Biso   1.000  C
  H169     1.0000 0.81826  0.29495  0.50281  Biso   1.000  H
  H170     1.0000 0.81824  0.29495  0.50276  Biso   1.000  H
  C262     1.0000 0.14900  0.89394  0.24319  Biso   1.000  C
  H171     1.0000 0.35254  0.13483  0.41519  Biso   1.000  H
  C263     1.0000 0.28362  0.07657  0.47547  Biso   1.000  C
  H172     1.0000 0.39579  0.03925  0.44347  Biso   1.000  H
  C264     1.0000 0.28369  0.07657  0.47547  Biso   1.000  C
  C265     1.0000 0.19721  0.16091  0.32098  Biso   1.000  C
  C266     1.0000 0.11774  0.02553  0.28590  Biso   1.000  C
  C267     1.0000 0.19727  0.16091  0.32098  Biso   1.000  C
  C268     1.0000 0.11772  0.02553  0.28585  Biso   1.000  C
  C269     1.0000 0.19727  0.16097  0.32098  Biso   1.000  C
  C270     1.0000 0.19721  0.16097  0.32098  Biso   1.000  C
  C271     1.0000 0.04591  0.15104  0.24577  Biso   1.000  C
  C272     1.0000 0.04598  0.15104  0.24577  Biso   1.000  C
  H173     1.0000 0.24296  0.32485  0.35710  Biso   1.000  H
  C273     1.0000 0.12802  0.32703  0.39798  Biso   1.000  C
  H174     1.0000 0.17532  0.41110  0.33656  Biso   1.000  H
  C274     1.0000 0.12809  0.32703  0.39798  Biso   1.000  C
  H175     1.0000 0.17532  0.41117  0.33656  Biso   1.000  H
  H176     1.0000 0.24289  0.32485  0.35710  Biso   1.000  H
  C275     1.0000 0.96766  0.21032  0.14679  Biso   1.000  C
  C276     1.0000 0.96760  0.21032  0.14679  Biso   1.000  C
  C277     1.0000 0.56012  0.61098  0.09247  Biso   1.000  C
  H177     1.0000 0.52937  0.70871  0.15637  Biso   1.000  H
  C278     1.0000 0.56012  0.61105  0.09247  Biso   1.000  C
  H178     1.0000 0.58838  0.50114  0.03928  Biso   1.000  H
  H179     1.0000 0.58831  0.50114  0.03928  Biso   1.000  H
  C279     1.0000 0.66567  0.91144  0.21526  Biso   1.000  C
  H180     1.0000 0.56832  0.85341  0.12838  Biso   1.000  H
  C280     1.0000 0.80681  0.96544  0.19908  Biso   1.000  C
  H181     1.0000 0.81855  0.94920  0.09961  Biso   1.000  H
  H182     1.0000 0.81859  0.94919  0.09956  Biso   1.000  H
  H183     1.0000 0.81861  0.94920  0.09961  Biso   1.000  H
  H184     1.0000 0.74375  0.26798  0.59067  Biso   1.000  H
  H185     1.0000 0.10868  0.83634  0.22409  Biso   1.000  H
  H186     1.0000 0.15138  0.93124  0.20251  Biso   1.000  H
  O46      1.0000 0.11068  0.93863  0.28799  Biso   1.000  O
  H187     1.0000 0.15136  0.93123  0.20246  Biso   1.000  H
  H188     1.0000 0.15142  0.93123  0.20246  Biso   1.000  H
  O47      1.0000 0.11074  0.93863  0.28799  Biso   1.000  O
  H189     1.0000 0.22334  0.10987  0.45558  Biso   1.000  H
  C281     1.0000 0.33177  0.12064  0.54250  Biso   1.000  C
  H190     1.0000 0.26435  0.01296  0.48237  Biso   1.000  H
  C282     1.0000 0.33171  0.12070  0.54250  Biso   1.000  C
  H191     1.0000 0.25684  0.19833  0.34941  Biso   1.000  H
  H192     1.0000 0.25682  0.19833  0.34936  Biso   1.000  H
  C283     1.0000 0.04334  0.06404  0.24750  Biso   1.000  C
  C284     1.0000 0.04332  0.06404  0.24745  Biso   1.000  C
  O48      1.0000 0.96802  0.18640  0.21039  Biso   1.000  O
  O49      1.0000 0.96808  0.18640  0.21039  Biso   1.000  O
  O50      1.0000 0.96808  0.18646  0.21039  Biso   1.000  O
  O51      1.0000 0.96802  0.18646  0.21039  Biso   1.000  O
  H193     1.0000 0.13765  0.26265  0.40929  Biso   1.000  H
  C285     1.0000 0.16203  0.38427  0.46089  Biso   1.000  C
  C286     1.0000 0.16209  0.38427  0.46089  Biso   1.000  C
  H194     1.0000 0.05646  0.33568  0.37818  Biso   1.000  H
  H195     1.0000 0.05640  0.33568  0.37818  Biso   1.000  H
  H196     1.0000 0.89995  0.19919  0.11370  Biso   1.000  H
  H197     1.0000 0.89993  0.19919  0.11365  Biso   1.000  H
  H198     1.0000 0.89996  0.19925  0.11370  Biso   1.000  H
  H199     1.0000 0.89987  0.19925  0.11365  Biso   1.000  H
  H200     1.0000 0.01407  0.17286  0.12858  Biso   1.000  H
  H201     1.0000 0.01400  0.17286  0.12858  Biso   1.000  H
  H202     1.0000 0.56881  0.65279  0.05600  Biso   1.000  H
  H203     1.0000 0.56886  0.65279  0.05595  Biso   1.000  H
  H204     1.0000 0.56888  0.65279  0.05600  Biso   1.000  H
  H205     1.0000 0.56880  0.65279  0.05595  Biso   1.000  H
  C287     1.0000 0.75170  0.95184  0.24081  Biso   1.000  C
  C288     1.0000 0.75168  0.95184  0.24076  Biso   1.000  C
  H206     1.0000 0.62305  0.90090  0.24755  Biso   1.000  H
  H207     1.0000 0.62307  0.90097  0.24760  Biso   1.000  H
  H208     1.0000 0.62312  0.90096  0.24755  Biso   1.000  H
  N17      1.0000 0.89334  0.01045  0.22979  Biso   1.000  N
  C289     1.0000 0.42466  0.11243  0.56899  Biso   1.000  C
  C290     1.0000 0.28395  0.16796  0.57797  Biso   1.000  C
  C291     1.0000 0.42460  0.11249  0.56899  Biso   1.000  C
  C292     1.0000 0.96512  0.01070  0.20439  Biso   1.000  C
  C293     1.0000 0.96519  0.01077  0.20439  Biso   1.000  C
  C294     1.0000 0.23963  0.36504  0.50921  Biso   1.000  C
  C295     1.0000 0.11473  0.45394  0.47155  Biso   1.000  C
  C296     1.0000 0.23970  0.36510  0.50921  Biso   1.000  C
  C297     1.0000 0.23961  0.36504  0.50916  Biso   1.000  C
  H209     1.0000 0.77560  0.97253  0.29275  Biso   1.000  H
  H210     1.0000 0.77562  0.97254  0.29280  Biso   1.000  H
  C298     1.0000 0.46974  0.15167  0.63111  Biso   1.000  C
  H211     1.0000 0.46178  0.07584  0.54151  Biso   1.000  H
  C299     1.0000 0.46978  0.15167  0.63106  Biso   1.000  C
  C300     1.0000 0.46980  0.15167  0.63111  Biso   1.000  C
  H212     1.0000 0.46179  0.07591  0.54151  Biso   1.000  H
  C301     1.0000 0.46972  0.15167  0.63106  Biso   1.000  C
  H213     1.0000 0.46170  0.07584  0.54146  Biso   1.000  H
  C302     1.0000 0.32895  0.20714  0.64009  Biso   1.000  C
  H214     1.0000 0.21197  0.17423  0.55748  Biso   1.000  H
  C303     1.0000 0.32896  0.20720  0.64009  Biso   1.000  C
  H215     1.0000 0.21197  0.17429  0.55748  Biso   1.000  H
  H216     1.0000 0.21191  0.17429  0.55748  Biso   1.000  H
  O52      1.0000 0.96707  0.97833  0.15165  Biso   1.000  O
  H217     1.0000 0.05478  0.46882  0.43420  Biso   1.000  H
  C304     1.0000 0.14510  0.50452  0.53069  Biso   1.000  C
  C305     1.0000 0.14510  0.50459  0.53069  Biso   1.000  C
  H218     1.0000 0.05472  0.46889  0.43420  Biso   1.000  H
  C306     1.0000 0.26985  0.41555  0.56830  Biso   1.000  C
  H219     1.0000 0.27621  0.31107  0.50087  Biso   1.000  H
  H220     1.0000 0.54169  0.14535  0.65170  Biso   1.000  H
  C307     1.0000 0.42189  0.19894  0.66668  Biso   1.000  C
  C308     1.0000 0.42189  0.19900  0.66668  Biso   1.000  C
  H221     1.0000 0.54163  0.14541  0.65170  Biso   1.000  H
  H222     1.0000 0.29197  0.24379  0.66757  Biso   1.000  H
  H223     1.0000 0.29190  0.24379  0.66757  Biso   1.000  H
  C309     1.0000 0.22268  0.48536  0.57911  Biso   1.000  C
  H224     1.0000 0.10844  0.55855  0.53898  Biso   1.000  H
  C310     1.0000 0.22259  0.48536  0.57906  Biso   1.000  C
  H225     1.0000 0.32997  0.40074  0.60576  Biso   1.000  H
  H226     1.0000 0.32999  0.40081  0.60580  Biso   1.000  H
  H227     1.0000 0.32991  0.40081  0.60576  Biso   1.000  H
  H228     1.0000 0.45675  0.22925  0.71465  Biso   1.000  H
  H229     1.0000 0.45675  0.22931  0.71465  Biso   1.000  H
  H230     1.0000 0.24603  0.52445  0.62476  Biso   1.000  H
  H231     1.0000 0.24612  0.52452  0.62481  Biso   1.000  H
  Ne1      1.0000 0.02246  0.01551  0.01215  Biso   1.000  Ne
  He1      1.0000 0.07683  0.89508  0.09944  Biso   1.000  He
  He2      1.0000 0.81274  0.07595  0.00498  Biso   1.000  He
  He3      1.0000 0.24948  0.89952  0.97212  Biso   1.000  He
  He4      1.0000 0.14857  0.14487  0.96507  Biso   1.000  He
  Ar1      1.0000 0.05810  0.03998  0.02259  Biso   1.000  Ar
