data_image0
_cell_length_a       15.358
_cell_length_b       16.029
_cell_length_c       21.009
_cell_angle_alpha    93.44
_cell_angle_beta     105.84
_cell_angle_gamma    92.28

_symmetry_space_group_name_H-M    "P 1"
_symmetry_int_tables_number       1

loop_
  _symmetry_equiv_pos_as_xyz
  'x, y, z'

loop_
  _atom_site_label
  _atom_site_occupancy
  _atom_site_fract_x
  _atom_site_fract_y
  _atom_site_fract_z
  _atom_site_thermal_displace_type
  _atom_site_B_iso_or_equiv
  _atom_site_type_symbol
  C1       1.0000 0.15300  0.31791  0.21730  Biso   1.000  C
  C2       1.0000 0.24365  0.34001  0.22202  Biso   1.000  C
  C3       1.0000 0.12139  0.29613  0.27649  Biso   1.000  C
  C4       1.0000 0.08800  0.31400  0.15578  Biso   1.000  C
  C5       1.0000 0.26913  0.35809  0.16531  Biso   1.000  C
  H1       1.0000 0.29403  0.34313  0.26959  Biso   1.000  H
  C6       1.0000 0.12278  0.19942  0.28259  Biso   1.000  C
  H2       1.0000 0.05159  0.31240  0.26682  Biso   1.000  H
  C7       1.0000 0.17420  0.34477  0.34292  Biso   1.000  C
  C8       1.0000 0.11350  0.33202  0.09913  Biso   1.000  C
  O1       1.0000 0.99623  0.29654  0.14928  Biso   1.000  O
  C9       1.0000 0.20410  0.35413  0.10389  Biso   1.000  C
  C10      1.0000 0.36942  0.37831  0.16521  Biso   1.000  C
  C11      1.0000 0.19718  0.16091  0.32099  Biso   1.000  C
  C12      1.0000 0.04589  0.15105  0.24578  Biso   1.000  C
  H3       1.0000 0.17532  0.41111  0.33662  Biso   1.000  H
  H4       1.0000 0.24293  0.32486  0.35711  Biso   1.000  H
  C13      1.0000 0.12800  0.32704  0.39799  Biso   1.000  C
  C14      1.0000 0.04132  0.31449  0.03349  Biso   1.000  C
  C15      1.0000 0.96764  0.21033  0.14680  Biso   1.000  C
  O2       1.0000 0.22378  0.37659  0.04599  Biso   1.000  O
  C16      1.0000 0.40591  0.29321  0.15380  Biso   1.000  C
  H5       1.0000 0.37732  0.42029  0.12850  Biso   1.000  H
  C17      1.0000 0.42357  0.42439  0.23238  Biso   1.000  C
  C18      1.0000 0.19474  0.07391  0.32273  Biso   1.000  C
  H6       1.0000 0.25682  0.19834  0.34942  Biso   1.000  H
  C19      1.0000 0.04331  0.06405  0.24752  Biso   1.000  C
  O3       1.0000 0.96799  0.18640  0.21041  Biso   1.000  O
  H7       1.0000 0.13762  0.26266  0.40930  Biso   1.000  H
  H8       1.0000 0.05644  0.33563  0.37820  Biso   1.000  H
  C20      1.0000 0.16200  0.38428  0.46090  Biso   1.000  C
  N1       1.0000 0.97479  0.36833  0.02371  Biso   1.000  N
  O4       1.0000 0.04826  0.25602  0.99563  Biso   1.000  O
  H9       1.0000 0.01397  0.17280  0.12860  Biso   1.000  H
  H10      1.0000 0.89993  0.19920  0.11371  Biso   1.000  H
  C21      1.0000 0.26104  0.31223  0.00992  Biso   1.000  C
  C22      1.0000 0.44460  0.24061  0.20311  Biso   1.000  C
  C23      1.0000 0.39319  0.26722  0.08722  Biso   1.000  C
  H11      1.0000 0.39305  0.48241  0.23993  Biso   1.000  H
  H12      1.0000 0.41922  0.38374  0.27059  Biso   1.000  H
  C24      1.0000 0.52553  0.44404  0.23749  Biso   1.000  C
  C25      1.0000 0.27633  0.02802  0.35959  Biso   1.000  C
  C26      1.0000 0.11771  0.02554  0.28592  Biso   1.000  C
  C27      1.0000 0.96510  0.01071  0.20440  Biso   1.000  C
  C28      1.0000 0.11472  0.45395  0.47162  Biso   1.000  C
  C29      1.0000 0.23961  0.36505  0.50922  Biso   1.000  C
  C30      1.0000 0.88855  0.35344  0.97504  Biso   1.000  C
  H13      1.0000 0.23318  0.25099  0.01538  Biso   1.000  H
  O5       1.0000 0.35778  0.31613  0.03508  Biso   1.000  O
  H14      1.0000 0.24365  0.32414  0.95803  Biso   1.000  H
  C31      1.0000 0.47070  0.16181  0.18570  Biso   1.000  C
  H15      1.0000 0.45451  0.26076  0.25461  Biso   1.000  H
  C32      1.0000 0.41929  0.18850  0.06980  Biso   1.000  C
  H16      1.0000 0.55563  0.38606  0.22901  Biso   1.000  H
  H17      1.0000 0.56010  0.47231  0.28631  Biso   1.000  H
  C33      1.0000 0.53763  0.50301  0.18679  Biso   1.000  C
  C34      1.0000 0.33002  0.00761  0.30928  Biso   1.000  C
  C35      1.0000 0.33461  0.07186  0.42483  Biso   1.000  C
  H18      1.0000 0.25152  0.97297  0.37790  Biso   1.000  H
  O6       1.0000 0.11072  0.93863  0.28800  Biso   1.000  O
  O7       1.0000 0.96713  0.97834  0.15171  Biso   1.000  O
  N2       1.0000 0.89331  0.01045  0.22980  Biso   1.000  N
  C36      1.0000 0.14501  0.50459  0.53070  Biso   1.000  C
  H19      1.0000 0.05475  0.46883  0.43421  Biso   1.000  H
  C37      1.0000 0.26982  0.41556  0.56831  Biso   1.000  C
  H20      1.0000 0.27625  0.31108  0.50089  Biso   1.000  H
  C38      1.0000 0.83342  0.42143  0.96825  Biso   1.000  C
  C39      1.0000 0.85407  0.27573  0.94245  Biso   1.000  C
  C40      1.0000 0.51311  0.10443  0.23869  Biso   1.000  C
  C41      1.0000 0.45798  0.13583  0.11912  Biso   1.000  C
  C42      1.0000 0.41511  0.16040  0.99931  Biso   1.000  C
  C43      1.0000 0.52660  0.58855  0.19622  Biso   1.000  C
  C44      1.0000 0.55979  0.47152  0.13018  Biso   1.000  C
  C45      1.0000 0.39742  0.06295  0.30020  Biso   1.000  C
  C46      1.0000 0.30472  0.93358  0.26860  Biso   1.000  C
  H21      1.0000 0.35252  0.13484  0.41521  Biso   1.000  H
  H22      1.0000 0.39570  0.03926  0.44349  Biso   1.000  H
  C47      1.0000 0.28360  0.07657  0.47549  Biso   1.000  C
  C48      1.0000 0.14904  0.89394  0.24320  Biso   1.000  C
  C49      1.0000 0.80685  0.96545  0.19909  Biso   1.000  C
  C50      1.0000 0.22265  0.48537  0.57913  Biso   1.000  C
  H23      1.0000 0.10841  0.55856  0.53899  Biso   1.000  H
  H24      1.0000 0.32996  0.40076  0.60582  Biso   1.000  H
  C51      1.0000 0.74369  0.41163  0.92871  Biso   1.000  C
  H25      1.0000 0.86011  0.48165  0.99345  Biso   1.000  H
  C52      1.0000 0.76435  0.26594  0.90291  Biso   1.000  C
  H26      1.0000 0.89672  0.22302  0.94761  Biso   1.000  H
  C53      1.0000 0.57141  0.15293  0.30363  Biso   1.000  C
  H27      1.0000 0.56060  0.06742  0.22142  Biso   1.000  H
  C54      1.0000 0.43958  0.04410  0.25059  Biso   1.000  C
  O8       1.0000 0.48463  0.05869  0.10002  Biso   1.000  O
  O9       1.0000 0.48004  0.17530  0.97762  Biso   1.000  O
  N3       1.0000 0.33135  0.12694  0.96110  Biso   1.000  N
  C55      1.0000 0.53787  0.64254  0.14909  Biso   1.000  C
  H28      1.0000 0.50939  0.61285  0.24002  Biso   1.000  H
  C56      1.0000 0.57108  0.52552  0.08310  Biso   1.000  C
  H29      1.0000 0.56832  0.40534  0.12289  Biso   1.000  H
  H30      1.0000 0.41704  0.12027  0.33171  Biso   1.000  H
  C57      1.0000 0.34695  0.91485  0.21899  Biso   1.000  C
  O10      1.0000 0.24084  0.87388  0.27852  Biso   1.000  O
  H31      1.0000 0.22331  0.10988  0.45559  Biso   1.000  H
  H32      1.0000 0.26434  0.01297  0.48243  Biso   1.000  H
  C58      1.0000 0.33174  0.12065  0.54251  Biso   1.000  C
  H33      1.0000 0.10872  0.83635  0.22410  Biso   1.000  H
  H34      1.0000 0.15142  0.93124  0.20252  Biso   1.000  H
  C59      1.0000 0.75174  0.95185  0.24082  Biso   1.000  C
  C60      1.0000 0.77591  0.93866  0.13192  Biso   1.000  C
  H35      1.0000 0.24602  0.52446  0.62482  Biso   1.000  H
  C61      1.0000 0.70909  0.33392  0.89611  Biso   1.000  C
  H36      1.0000 0.70105  0.46434  0.92355  Biso   1.000  H
  N4       1.0000 0.73614  0.18479  0.87021  Biso   1.000  N
  C62      1.0000 0.62549  0.09554  0.35250  Biso   1.000  C
  H37      1.0000 0.52610  0.18451  0.32700  Biso   1.000  H
  H38      1.0000 0.61759  0.19864  0.29232  Biso   1.000  H
  C63      1.0000 0.41445  0.97002  0.21001  Biso   1.000  C
  C64      1.0000 0.42964  0.98414  0.10071  Biso   1.000  C
  C65      1.0000 0.31000  0.10180  0.89363  Biso   1.000  C
  C66      1.0000 0.56009  0.61099  0.09248  Biso   1.000  C
  H39      1.0000 0.52928  0.70871  0.15638  Biso   1.000  H
  H40      1.0000 0.58828  0.50109  0.03929  Biso   1.000  H
  C67      1.0000 0.33525  0.82724  0.18729  Biso   1.000  C
  C68      1.0000 0.42464  0.11250  0.56900  Biso   1.000  C
  C69      1.0000 0.28394  0.16797  0.57803  Biso   1.000  C
  C70      1.0000 0.66573  0.91145  0.21532  Biso   1.000  C
  H41      1.0000 0.77566  0.97254  0.29281  Biso   1.000  H
  C71      1.0000 0.69003  0.89833  0.10642  Biso   1.000  C
  H42      1.0000 0.81865  0.94920  0.09962  Biso   1.000  H
  H43      1.0000 0.63971  0.32641  0.86565  Biso   1.000  H
  C72      1.0000 0.66482  0.17288  0.81271  Biso   1.000  C
  C73      1.0000 0.66305  0.14064  0.42051  Biso   1.000  C
  H44      1.0000 0.68119  0.07434  0.33469  Biso   1.000  H
  H45      1.0000 0.58183  0.04231  0.35552  Biso   1.000  H
  O11      1.0000 0.45531  0.94852  0.16139  Biso   1.000  O
  H46      1.0000 0.35998  0.00089  0.09208  Biso   1.000  H
  H47      1.0000 0.43453  0.93882  0.06182  Biso   1.000  H
  C74      1.0000 0.36511  0.11540  0.85191  Biso   1.000  C
  C75      1.0000 0.22412  0.06153  0.86813  Biso   1.000  C
  H48      1.0000 0.56879  0.65280  0.05601  Biso   1.000  H
  N5       1.0000 0.26393  0.81534  0.12979  Biso   1.000  N
  O12      1.0000 0.38234  0.77084  0.21328  Biso   1.000  O
  C76      1.0000 0.46971  0.15168  0.63112  Biso   1.000  C
  H49      1.0000 0.46176  0.07585  0.54152  Biso   1.000  H
  C77      1.0000 0.32893  0.20714  0.64010  Biso   1.000  C
  H50      1.0000 0.21194  0.17424  0.55749  Biso   1.000  H
  C78      1.0000 0.63490  0.88472  0.14809  Biso   1.000  C
  H51      1.0000 0.62311  0.90097  0.24762  Biso   1.000  H
  N6       1.0000 0.66872  0.87325  0.03890  Biso   1.000  N
  C79      1.0000 0.65312  0.08527  0.78101  Biso   1.000  C
  O13      1.0000 0.61773  0.22928  0.78672  Biso   1.000  O
  C80      1.0000 0.62116  0.12534  0.47013  Biso   1.000  C
  C81      1.0000 0.73413  0.20174  0.43232  Biso   1.000  C
  C82      1.0000 0.33430  0.08868  0.78473  Biso   1.000  C
  H52      1.0000 0.43171  0.14671  0.87160  Biso   1.000  H
  C83      1.0000 0.19322  0.03467  0.80091  Biso   1.000  C
  H53      1.0000 0.18144  0.05093  0.90043  Biso   1.000  H
  C84      1.0000 0.23573  0.73425  0.09709  Biso   1.000  C
  C85      1.0000 0.42180  0.19900  0.66669  Biso   1.000  C
  H54      1.0000 0.54166  0.14535  0.65171  Biso   1.000  H
  H55      1.0000 0.29196  0.24380  0.66763  Biso   1.000  H
  H56      1.0000 0.56836  0.85342  0.12840  Biso   1.000  H
  C86      1.0000 0.58489  0.83973  0.00069  Biso   1.000  C
  C87      1.0000 0.69530  0.06661  0.73145  Biso   1.000  C
  C88      1.0000 0.58564  0.03011  0.79004  Biso   1.000  C
  C89      1.0000 0.65025  0.17125  0.53140  Biso   1.000  C
  H57      1.0000 0.56614  0.07803  0.46090  Biso   1.000  H
  C90      1.0000 0.76321  0.24765  0.49359  Biso   1.000  C
  H58      1.0000 0.76664  0.21353  0.39392  Biso   1.000  H
  C91      1.0000 0.24835  0.04828  0.75923  Biso   1.000  C
  H59      1.0000 0.37691  0.09922  0.75243  Biso   1.000  H
  N7       1.0000 0.10678  0.98974  0.77024  Biso   1.000  N
  C92      1.0000 0.29092  0.66620  0.10389  Biso   1.000  C
  C93      1.0000 0.14602  0.72446  0.05760  Biso   1.000  C
  H60      1.0000 0.45675  0.22926  0.71472  Biso   1.000  H
  C94      1.0000 0.58073  0.81163  0.93024  Biso   1.000  C
  O14      1.0000 0.52005  0.82483  0.02242  Biso   1.000  O
  C95      1.0000 0.67005  0.99252  0.69072  Biso   1.000  C
  O15      1.0000 0.75919  0.12631  0.72153  Biso   1.000  O
  C96      1.0000 0.56042  0.95602  0.74941  Biso   1.000  C
  O16      1.0000 0.54470  0.05161  0.83861  Biso   1.000  O
  C97      1.0000 0.72120  0.23235  0.54321  Biso   1.000  C
  H61      1.0000 0.61760  0.15946  0.56980  Biso   1.000  H
  H62      1.0000 0.81824  0.29496  0.50282  Biso   1.000  H
  H63      1.0000 0.22443  0.02758  0.70724  Biso   1.000  H
  C98      1.0000 0.03493  0.98942  0.79565  Biso   1.000  C
  C99      1.0000 0.25631  0.58850  0.07129  Biso   1.000  C
  H64      1.0000 0.36031  0.67372  0.13440  Biso   1.000  H
  C100     1.0000 0.11155  0.64675  0.02500  Biso   1.000  C
  H65      1.0000 0.10329  0.77711  0.05239  Biso   1.000  H
  C101     1.0000 0.54204  0.86430  0.88093  Biso   1.000  C
  C102     1.0000 0.60684  0.73291  0.91283  Biso   1.000  C
  C103     1.0000 0.60267  0.93724  0.69984  Biso   1.000  C
  C104     1.0000 0.72374  0.97211  0.64041  Biso   1.000  C
  C105     1.0000 0.85105  0.10619  0.75685  Biso   1.000  C
  C106     1.0000 0.48696  0.89569  0.76131  Biso   1.000  C
  C107     1.0000 0.57045  0.01598  0.89934  Biso   1.000  C
  H66      1.0000 0.74373  0.26798  0.59069  Biso   1.000  H
  C108     1.0000 0.95671  0.93615  0.75253  Biso   1.000  C
  O17      1.0000 0.03296  0.02179  0.84833  Biso   1.000  O
  C109     1.0000 0.16660  0.57870  0.03180  Biso   1.000  C
  H67      1.0000 0.29904  0.53585  0.07650  Biso   1.000  H
  N8       1.0000 0.02523  0.63186  0.97633  Biso   1.000  N
  C110     1.0000 0.52932  0.83831  0.81435  Biso   1.000  C
  O18      1.0000 0.51546  0.94144  0.90003  Biso   1.000  O
  C111     1.0000 0.59418  0.70692  0.84625  Biso   1.000  C
  O19      1.0000 0.64223  0.68406  0.96492  Biso   1.000  O
  H68      1.0000 0.58305  0.87993  0.66834  Biso   1.000  H
  C112     1.0000 0.66541  0.92827  0.57522  Biso   1.000  C
  C113     1.0000 0.80535  0.92621  0.67732  Biso   1.000  C
  H69      1.0000 0.74849  0.02716  0.62210  Biso   1.000  H
  H70      1.0000 0.89128  0.16378  0.77590  Biso   1.000  H
  H71      1.0000 0.84861  0.06889  0.79753  Biso   1.000  H
  O20      1.0000 0.88929  0.06149  0.71200  Biso   1.000  O
  C114     1.0000 0.42862  0.84720  0.69642  Biso   1.000  C
  H72      1.0000 0.43942  0.93270  0.77863  Biso   1.000  H
  H73      1.0000 0.64002  0.99924  0.90792  Biso   1.000  H
  H74      1.0000 0.56556  0.06131  0.93823  Biso   1.000  H
  C115     1.0000 0.95412  0.84914  0.75422  Biso   1.000  C
  C116     1.0000 0.88231  0.97459  0.71413  Biso   1.000  C
  H75      1.0000 0.13992  0.51854  0.00660  Biso   1.000  H
  C117     1.0000 0.95875  0.68564  0.96651  Biso   1.000  C
  C118     1.0000 0.55542  0.75952  0.79694  Biso   1.000  C
  C119     1.0000 0.63066  0.62182  0.83484  Biso   1.000  C
  C120     1.0000 0.73905  0.68796  0.99013  Biso   1.000  C
  H76      1.0000 0.64751  0.86529  0.58484  Biso   1.000  H
  H77      1.0000 0.60430  0.96087  0.55651  Biso   1.000  H
  C121     1.0000 0.71641  0.92361  0.52451  Biso   1.000  C
  C122     1.0000 0.80282  0.83921  0.67901  Biso   1.000  C
  C123     1.0000 0.37451  0.90459  0.64750  Biso   1.000  C
  H78      1.0000 0.47391  0.81561  0.67300  Biso   1.000  H
  H79      1.0000 0.38243  0.80149  0.70773  Biso   1.000  H
  C124     1.0000 0.87722  0.80070  0.71741  Biso   1.000  C
  O21      1.0000 0.03203  0.81373  0.78964  Biso   1.000  O
  C125     1.0000 0.88652  0.66811  0.90092  Biso   1.000  C
  O22      1.0000 0.95183  0.74411  0.00442  Biso   1.000  O
  H80      1.0000 0.54552  0.73944  0.74544  Biso   1.000  H
  C126     1.0000 0.73096  0.64204  0.83474  Biso   1.000  C
  H81      1.0000 0.62275  0.57984  0.87150  Biso   1.000  H
  C127     1.0000 0.57643  0.57573  0.76762  Biso   1.000  C
  O23      1.0000 0.77622  0.62354  0.95401  Biso   1.000  O
  H82      1.0000 0.76682  0.74914  0.98462  Biso   1.000  H
  H83      1.0000 0.75644  0.67606  0.04202  Biso   1.000  H
  H84      1.0000 0.77670  0.89031  0.54441  Biso   1.000  H
  H85      1.0000 0.73575  0.98716  0.51762  Biso   1.000  H
  C128     1.0000 0.66834  0.87948  0.45754  Biso   1.000  C
  H86      1.0000 0.74321  0.80179  0.65063  Biso   1.000  H
  C129     1.0000 0.33704  0.85949  0.57953  Biso   1.000  C
  H87      1.0000 0.31882  0.92578  0.66531  Biso   1.000  H
  H88      1.0000 0.41826  0.95782  0.64453  Biso   1.000  H
  C130     1.0000 0.87861  0.70399  0.72351  Biso   1.000  C
  C131     1.0000 0.03245  0.78980  0.85325  Biso   1.000  C
  C132     1.0000 0.91207  0.68613  0.84422  Biso   1.000  C
  C133     1.0000 0.79597  0.64600  0.89611  Biso   1.000  C
  C134     1.0000 0.75644  0.66011  0.77803  Biso   1.000  C
  H89      1.0000 0.60704  0.51772  0.76012  Biso   1.000  H
  H90      1.0000 0.58085  0.61638  0.72941  Biso   1.000  H
  C135     1.0000 0.47454  0.55609  0.76251  Biso   1.000  C
  C136     1.0000 0.57543  0.88769  0.43100  Biso   1.000  C
  C137     1.0000 0.71614  0.83216  0.42202  Biso   1.000  C
  C138     1.0000 0.37892  0.87479  0.52992  Biso   1.000  C
  C139     1.0000 0.26596  0.79839  0.56773  Biso   1.000  C
  H91      1.0000 0.94844  0.68773  0.73323  Biso   1.000  H
  C140     1.0000 0.82583  0.65542  0.65713  Biso   1.000  C
  C141     1.0000 0.84702  0.68222  0.78275  Biso   1.000  C
  H92      1.0000 0.98603  0.82733  0.87140  Biso   1.000  H
  O24      1.0000 0.00384  0.70365  0.85072  Biso   1.000  O
  H93      1.0000 0.10016  0.80093  0.88634  Biso   1.000  H
  H94      1.0000 0.70604  0.65700  0.73041  Biso   1.000  H
  H95      1.0000 0.44446  0.61413  0.77104  Biso   1.000  H
  H96      1.0000 0.43992  0.52782  0.71374  Biso   1.000  H
  C142     1.0000 0.46244  0.49712  0.81321  Biso   1.000  C
  C143     1.0000 0.53031  0.84845  0.36893  Biso   1.000  C
  H97      1.0000 0.53833  0.92428  0.45853  Biso   1.000  H
  C144     1.0000 0.67114  0.79298  0.35990  Biso   1.000  C
  H98      1.0000 0.78813  0.82589  0.44251  Biso   1.000  H
  C145     1.0000 0.34982  0.82888  0.46860  Biso   1.000  C
  H99      1.0000 0.43393  0.92210  0.53910  Biso   1.000  H
  C146     1.0000 0.23679  0.75248  0.50641  Biso   1.000  C
  H100     1.0000 0.23345  0.78660  0.60613  Biso   1.000  H
  H101     1.0000 0.82471  0.58901  0.66343  Biso   1.000  H
  H102     1.0000 0.75716  0.67533  0.64294  Biso   1.000  H
  C147     1.0000 0.87201  0.67308  0.60201  Biso   1.000  C
  C148     1.0000 0.47343  0.41165  0.80383  Biso   1.000  C
  C149     1.0000 0.44022  0.52861  0.86982  Biso   1.000  C
  C150     1.0000 0.57821  0.80118  0.33331  Biso   1.000  C
  H103     1.0000 0.45842  0.85478  0.34834  Biso   1.000  H
  H104     1.0000 0.70813  0.75640  0.33242  Biso   1.000  H
  C151     1.0000 0.27883  0.76778  0.45684  Biso   1.000  C
  H105     1.0000 0.38240  0.84067  0.43020  Biso   1.000  H
  H106     1.0000 0.18185  0.70517  0.49723  Biso   1.000  H
  H107     1.0000 0.86245  0.73747  0.59070  Biso   1.000  H
  H108     1.0000 0.94363  0.66450  0.62180  Biso   1.000  H
  C152     1.0000 0.83800  0.61591  0.53910  Biso   1.000  C
  C153     1.0000 0.46213  0.35765  0.85091  Biso   1.000  C
  H109     1.0000 0.49064  0.38734  0.76002  Biso   1.000  H
  C154     1.0000 0.42894  0.47461  0.91695  Biso   1.000  C
  H110     1.0000 0.43176  0.59484  0.87711  Biso   1.000  H
  H111     1.0000 0.54334  0.77087  0.28533  Biso   1.000  H
  H112     1.0000 0.25634  0.73214  0.40931  Biso   1.000  H
  C155     1.0000 0.88530  0.54618  0.52843  Biso   1.000  C
  C156     1.0000 0.76042  0.63508  0.49083  Biso   1.000  C
  C157     1.0000 0.43998  0.38914  0.90752  Biso   1.000  C
  H113     1.0000 0.47073  0.29141  0.84362  Biso   1.000  H
  H114     1.0000 0.41172  0.49904  0.96071  Biso   1.000  H
  C158     1.0000 0.85500  0.49559  0.46930  Biso   1.000  C
  H115     1.0000 0.94534  0.53130  0.56584  Biso   1.000  H
  C159     1.0000 0.73020  0.58457  0.43174  Biso   1.000  C
  H116     1.0000 0.72382  0.68911  0.49911  Biso   1.000  H
  H117     1.0000 0.43123  0.34733  0.94404  Biso   1.000  H
  C160     1.0000 0.77744  0.51476  0.42092  Biso   1.000  C
  H118     1.0000 0.89159  0.44157  0.46101  Biso   1.000  H
  H119     1.0000 0.67013  0.59937  0.39423  Biso   1.000  H
  H120     1.0000 0.75400  0.47567  0.37523  Biso   1.000  H
  Ne1      1.0000 0.00002  0.00007  0.00001  Biso   1.000  Ne
  He1      1.0000 0.02619  0.83726  0.11446  Biso   1.000  He
  He2      1.0000 0.67672  0.15793  0.08535  Biso   1.000  He
  He3      1.0000 0.21574  0.91649  0.98756  Biso   1.000  He
  He4      1.0000 0.97430  0.15491  0.89338  Biso   1.000  He
  He5      1.0000 0.63833  0.76125  0.69014  Biso   1.000  He
  Ar1      1.0000 0.00002  0.00007  0.00002  Biso   1.000  Ar
