data_image0
_cell_length_a       12.398
_cell_length_b       12.927
_cell_length_c       13.03
_cell_angle_alpha    93.79
_cell_angle_beta     113.71
_cell_angle_gamma    104.74

_symmetry_space_group_name_H-M    "P 1"
_symmetry_int_tables_number       1

loop_
  _symmetry_equiv_pos_as_xyz
  'x, y, z'

loop_
  _atom_site_label
  _atom_site_occupancy
  _atom_site_fract_x
  _atom_site_fract_y
  _atom_site_fract_z
  _atom_site_thermal_displace_type
  _atom_site_B_iso_or_equiv
  _atom_site_type_symbol
  O1       1.0000 0.70343  0.70416  0.00137  Biso   1.000  O
  C1       1.0000 0.68414  0.70302  0.90164  Biso   1.000  C
  N1       1.0000 0.61241  0.75517  0.82762  Biso   1.000  N
  N2       1.0000 0.72964  0.64793  0.84273  Biso   1.000  N
  C2       1.0000 0.60589  0.73579  0.71423  Biso   1.000  C
  C3       1.0000 0.53797  0.81147  0.85528  Biso   1.000  C
  C4       1.0000 0.68480  0.65820  0.72388  Biso   1.000  C
  C5       1.0000 0.79809  0.57408  0.88977  Biso   1.000  C
  N3       1.0000 0.66987  0.83018  0.68384  Biso   1.000  N
  H1       1.0000 0.51871  0.70207  0.65490  Biso   1.000  H
  N4       1.0000 0.58762  0.92946  0.87868  Biso   1.000  N
  H2       1.0000 0.52904  0.78810  0.92307  Biso   1.000  H
  H3       1.0000 0.45429  0.78922  0.79091  Biso   1.000  H
  N5       1.0000 0.77908  0.71649  0.69204  Biso   1.000  N
  H4       1.0000 0.63439  0.58611  0.67180  Biso   1.000  H
  N6       1.0000 0.93012  0.61820  0.92487  Biso   1.000  N
  H5       1.0000 0.76518  0.50656  0.83197  Biso   1.000  H
  H6       1.0000 0.78437  0.55422  0.95663  Biso   1.000  H
  C6       1.0000 0.76311  0.81295  0.66070  Biso   1.000  C
  C7       1.0000 0.61148  0.91154  0.63850  Biso   1.000  C
  C8       1.0000 0.63422  0.99058  0.98625  Biso   1.000  C
  C9       1.0000 0.56154  0.99533  0.79031  Biso   1.000  C
  C10      1.0000 0.86000  0.66667  0.66745  Biso   1.000  C
  C11      1.0000 0.98909  0.60706  0.84982  Biso   1.000  C
  C12      1.0000 0.01333  0.64554  0.03799  Biso   1.000  C
  O2       1.0000 0.82173  0.87252  0.61963  Biso   1.000  O
  N7       1.0000 0.63355  0.99985  0.72576  Biso   1.000  N
  H7       1.0000 0.64278  0.94173  0.58446  Biso   1.000  H
  H8       1.0000 0.52108  0.87587  0.59530  Biso   1.000  H
  O3       1.0000 0.65339  0.95547  0.07445  Biso   1.000  O
  N8       1.0000 0.65267  0.09734  0.97644  Biso   1.000  N
  H9       1.0000 0.47090  0.97483  0.73908  Biso   1.000  H
  C13      1.0000 0.61168  0.11284  0.85998  Biso   1.000  C
  N9       1.0000 0.97398  0.67569  0.76563  Biso   1.000  N
  H10      1.0000 0.88049  0.70088  0.60913  Biso   1.000  H
  H11      1.0000 0.81494  0.58851  0.63432  Biso   1.000  H
  H12      1.0000 0.96659  0.52909  0.81421  Biso   1.000  H
  C14      1.0000 0.12932  0.65342  0.93246  Biso   1.000  C
  O4       1.0000 0.98746  0.64544  0.11902  Biso   1.000  O
  N10      1.0000 0.13007  0.66745  0.04414  Biso   1.000  N
  C15      1.0000 0.71810  0.10022  0.74813  Biso   1.000  C
  C16      1.0000 0.70242  0.18660  0.07155  Biso   1.000  C
  N11      1.0000 0.71028  0.16661  0.83052  Biso   1.000  N
  H13      1.0000 0.54582  0.14947  0.83880  Biso   1.000  H
  C17      1.0000 0.08034  0.75902  0.79150  Biso   1.000  C
  N12      1.0000 0.16862  0.75372  0.89456  Biso   1.000  N
  H14      1.0000 0.17528  0.60183  0.92589  Biso   1.000  H
  C18      1.0000 0.24066  0.71551  0.15027  Biso   1.000  C
  O5       1.0000 0.78725  0.12663  0.70279  Biso   1.000  O
  N13      1.0000 0.83141  0.24634  0.10544  Biso   1.000  N
  H15      1.0000 0.65275  0.23748  0.05089  Biso   1.000  H
  H16      1.0000 0.69432  0.15777  0.13746  Biso   1.000  H
  C19      1.0000 0.75933  0.28440  0.84973  Biso   1.000  C
  O6       1.0000 0.09383  0.82474  0.73140  Biso   1.000  O
  C20      1.0000 0.29758  0.81339  0.92845  Biso   1.000  C
  N14      1.0000 0.28972  0.83338  0.16948  Biso   1.000  N
  H17      1.0000 0.30557  0.68375  0.15069  Biso   1.000  H
  H18      1.0000 0.22162  0.69532  0.21447  Biso   1.000  H
  C21      1.0000 0.91969  0.24105  0.20850  Biso   1.000  C
  C22      1.0000 0.87071  0.34665  0.06754  Biso   1.000  C
  N15      1.0000 0.86994  0.33254  0.95586  Biso   1.000  N
  H19      1.0000 0.69444  0.31624  0.84931  Biso   1.000  H
  H20      1.0000 0.77836  0.30458  0.78553  Biso   1.000  H
  H21      1.0000 0.34728  0.76259  0.94911  Biso   1.000  H
  H22      1.0000 0.30571  0.84230  0.86254  Biso   1.000  H
  N16      1.0000 0.34734  0.90264  0.02356  Biso   1.000  N
  C23      1.0000 0.28188  0.89969  0.25187  Biso   1.000  C
  C24      1.0000 0.38833  0.88715  0.14002  Biso   1.000  C
  O7       1.0000 0.90620  0.17533  0.26860  Biso   1.000  O
  N17      1.0000 0.02602  0.32430  0.23437  Biso   1.000  N
  H23      1.0000 0.82472  0.39816  0.07411  Biso   1.000  H
  C25      1.0000 0.01091  0.39293  0.15018  Biso   1.000  C
  C26      1.0000 0.98668  0.35445  0.96201  Biso   1.000  C
  C27      1.0000 0.36579  0.00941  0.01375  Biso   1.000  C
  O8       1.0000 0.21273  0.87328  0.29721  Biso   1.000  O
  N18      1.0000 0.36646  0.00013  0.27424  Biso   1.000  N
  H24      1.0000 0.45416  0.85043  0.16120  Biso   1.000  H
  C28      1.0000 0.43846  0.00466  0.20969  Biso   1.000  C
  C29      1.0000 0.14002  0.33340  0.33255  Biso   1.000  C
  N19      1.0000 0.06988  0.38178  0.07513  Biso   1.000  N
  H25      1.0000 0.03344  0.47098  0.18579  Biso   1.000  H
  O9       1.0000 0.01255  0.35454  0.88098  Biso   1.000  O
  O10      1.0000 0.34660  0.04443  0.92555  Biso   1.000  O
  N20      1.0000 0.41240  0.07061  0.12132  Biso   1.000  N
  C30      1.0000 0.38855  0.08852  0.36150  Biso   1.000  C
  H26      1.0000 0.52911  0.02515  0.26092  Biso   1.000  H
  N21      1.0000 0.22093  0.28350  0.30796  Biso   1.000  N
  H27      1.0000 0.11954  0.29919  0.39087  Biso   1.000  H
  H28      1.0000 0.18506  0.41148  0.36568  Biso   1.000  H
  C31      1.0000 0.20192  0.42591  0.11023  Biso   1.000  C
  C32      1.0000 0.46204  0.18852  0.14472  Biso   1.000  C
  N22      1.0000 0.33014  0.16980  0.31616  Biso   1.000  N
  H29      1.0000 0.35727  0.05827  0.41563  Biso   1.000  H
  H30      1.0000 0.47895  0.12420  0.40470  Biso   1.000  H
  C33      1.0000 0.23689  0.18704  0.33930  Biso   1.000  C
  C34      1.0000 0.31521  0.34179  0.27612  Biso   1.000  C
  N23      1.0000 0.27037  0.35206  0.15727  Biso   1.000  N
  H31      1.0000 0.23485  0.49351  0.16803  Biso   1.000  H
  H32      1.0000 0.21566  0.44585  0.04337  Biso   1.000  H
  N24      1.0000 0.38760  0.24481  0.17238  Biso   1.000  N
  H33      1.0000 0.47099  0.21197  0.07693  Biso   1.000  H
  H34      1.0000 0.54572  0.21076  0.20909  Biso   1.000  H
  C35      1.0000 0.39412  0.26419  0.28577  Biso   1.000  C
  O11      1.0000 0.17829  0.12754  0.38037  Biso   1.000  O
  H35      1.0000 0.36562  0.41388  0.32820  Biso   1.000  H
  C36      1.0000 0.31587  0.29697  0.09836  Biso   1.000  C
  H36      1.0000 0.48132  0.29800  0.34510  Biso   1.000  H
  O12      1.0000 0.29655  0.29575  0.99863  Biso   1.000  O
