data_image0
_cell_length_a       21.273
_cell_length_b       11.971
_cell_length_c       17.789
_cell_angle_alpha    90
_cell_angle_beta     99.59
_cell_angle_gamma    90

_symmetry_space_group_name_H-M    "P 1"
_symmetry_int_tables_number       1

loop_
  _symmetry_equiv_pos_as_xyz
  'x, y, z'

loop_
  _atom_site_label
  _atom_site_occupancy
  _atom_site_fract_x
  _atom_site_fract_y
  _atom_site_fract_z
  _atom_site_thermal_displace_type
  _atom_site_B_iso_or_equiv
  _atom_site_type_symbol
  C1       1.0000 0.53826  0.69150  0.41282  Biso   1.000  C
  O1       1.0000 0.51611  0.80344  0.39520  Biso   1.000  O
  H1       1.0000 0.50443  0.63838  0.39332  Biso   1.000  H
  H2       1.0000 0.54973  0.68298  0.46818  Biso   1.000  H
  H3       1.0000 0.57582  0.67689  0.38887  Biso   1.000  H
  C2       1.0000 0.50364  0.82992  0.31784  Biso   1.000  C
  C3       1.0000 0.49965  0.75115  0.25952  Biso   1.000  C
  C4       1.0000 0.49588  0.94345  0.29994  Biso   1.000  C
  C5       1.0000 0.48471  0.78256  0.18232  Biso   1.000  C
  H4       1.0000 0.50710  0.67463  0.27211  Biso   1.000  H
  C6       1.0000 0.48428  0.97544  0.22411  Biso   1.000  C
  C7       1.0000 0.49666  0.03116  0.36191  Biso   1.000  C
  C8       1.0000 0.47421  0.69460  0.12109  Biso   1.000  C
  C9       1.0000 0.47958  0.89583  0.16602  Biso   1.000  C
  H5       1.0000 0.47941  0.05229  0.21140  Biso   1.000  H
  H6       1.0000 0.51840  0.09924  0.34788  Biso   1.000  H
  H7       1.0000 0.52073  0.00242  0.41048  Biso   1.000  H
  C10      1.0000 0.42888  0.06006  0.37234  Biso   1.000  C
  C11      1.0000 0.40360  0.66335  0.10319  Biso   1.000  C
  H8       1.0000 0.49981  0.62752  0.13820  Biso   1.000  H
  H9       1.0000 0.48829  0.72333  0.07440  Biso   1.000  H
  O2       1.0000 0.46624  0.92315  0.08917  Biso   1.000  O
  C12      1.0000 0.40021  0.00485  0.42473  Biso   1.000  C
  C13      1.0000 0.39472  0.14193  0.32491  Biso   1.000  C
  C14      1.0000 0.38020  0.58141  0.14749  Biso   1.000  C
  C15      1.0000 0.36169  0.71289  0.04396  Biso   1.000  C
  C16      1.0000 0.45427  0.04043  0.07315  Biso   1.000  C
  H10      1.0000 0.42289  0.94846  0.45558  Biso   1.000  H
  C17      1.0000 0.33720  0.03091  0.43334  Biso   1.000  C
  C18      1.0000 0.33229  0.16782  0.33637  Biso   1.000  C
  O3       1.0000 0.42479  0.19263  0.27183  Biso   1.000  O
  C19      1.0000 0.31572  0.54883  0.13306  Biso   1.000  C
  H11      1.0000 0.40842  0.54724  0.18802  Biso   1.000  H
  C20      1.0000 0.29724  0.67872  0.02976  Biso   1.000  C
  O4       1.0000 0.37987  0.79083  0.99664  Biso   1.000  O
  H12      1.0000 0.42242  0.06783  0.10262  Biso   1.000  H
  H13      1.0000 0.43831  0.05029  0.01859  Biso   1.000  H
  H14      1.0000 0.49399  0.08262  0.08728  Biso   1.000  H
  O5       1.0000 0.30606  0.98079  0.48682  Biso   1.000  O
  C21      1.0000 0.30412  0.11311  0.38990  Biso   1.000  C
  H15      1.0000 0.30921  0.22454  0.30632  Biso   1.000  H
  C22      1.0000 0.38557  0.26105  0.21567  Biso   1.000  C
  O6       1.0000 0.29760  0.46821  0.17913  Biso   1.000  O
  C23      1.0000 0.27431  0.59769  0.07201  Biso   1.000  C
  H16      1.0000 0.26893  0.71322  0.98951  Biso   1.000  H
  H17      1.0000 0.41909  0.80319  0.00889  Biso   1.000  H
  C24      1.0000 0.33635  0.89115  0.52884  Biso   1.000  C
  C25      1.0000 0.23573  0.14084  0.39874  Biso   1.000  C
  H18      1.0000 0.35099  0.21560  0.18780  Biso   1.000  H
  H19      1.0000 0.41162  0.29120  0.17998  Biso   1.000  H
  H20      1.0000 0.36738  0.32270  0.24139  Biso   1.000  H
  H21      1.0000 0.25881  0.45343  0.16522  Biso   1.000  H
  C26      1.0000 0.20485  0.56144  0.05291  Biso   1.000  C
  H22      1.0000 0.34493  0.83193  0.49389  Biso   1.000  H
  H23      1.0000 0.30860  0.86200  0.56310  Biso   1.000  H
  H24      1.0000 0.37663  0.91672  0.55877  Biso   1.000  H
  C27      1.0000 0.18759  0.06365  0.35250  Biso   1.000  C
  H25      1.0000 0.23161  0.13516  0.45318  Biso   1.000  H
  H26      1.0000 0.22611  0.21886  0.38232  Biso   1.000  H
  H27      1.0000 0.20161  0.48133  0.06539  Biso   1.000  H
  C28      1.0000 0.16155  0.62860  0.09606  Biso   1.000  C
  H28      1.0000 0.19016  0.57029  0.99738  Biso   1.000  H
  C29      1.0000 0.16714  0.96734  0.38551  Biso   1.000  C
  C30      1.0000 0.16241  0.08696  0.27873  Biso   1.000  C
  C31      1.0000 0.14916  0.59703  0.16602  Biso   1.000  C
  C32      1.0000 0.13448  0.72910  0.06437  Biso   1.000  C
  C33      1.0000 0.12343  0.89450  0.34412  Biso   1.000  C
  H29      1.0000 0.18339  0.95113  0.43739  Biso   1.000  H
  C34      1.0000 0.11739  0.01746  0.23625  Biso   1.000  C
  O7       1.0000 0.18555  0.18177  0.24743  Biso   1.000  O
  C35      1.0000 0.11208  0.66419  0.20695  Biso   1.000  C
  O8       1.0000 0.17633  0.49812  0.19606  Biso   1.000  O
  H30      1.0000 0.14179  0.75140  0.01528  Biso   1.000  H
  C36      1.0000 0.09779  0.79526  0.10268  Biso   1.000  C
  C37      1.0000 0.09700  0.92014  0.26875  Biso   1.000  C
  O9       1.0000 0.10411  0.79559  0.37308  Biso   1.000  O
  H31      1.0000 0.10042  0.03609  0.18500  Biso   1.000  H
  C38      1.0000 0.16334  0.20533  0.16961  Biso   1.000  C
  C39      1.0000 0.08628  0.76543  0.17594  Biso   1.000  C
  H32      1.0000 0.10449  0.64088  0.25570  Biso   1.000  H
  C40      1.0000 0.16436  0.46362  0.26875  Biso   1.000  C
  O10      1.0000 0.07076  0.89541  0.07531  Biso   1.000  O
  C41      1.0000 0.05068  0.84070  0.22103  Biso   1.000  C
  C42      1.0000 0.14661  0.75365  0.43790  Biso   1.000  C
  H33      1.0000 0.16469  0.13700  0.13951  Biso   1.000  H
  H34      1.0000 0.19050  0.26247  0.15199  Biso   1.000  H
  H35      1.0000 0.11943  0.23281  0.16351  Biso   1.000  H
  H36      1.0000 0.18589  0.51449  0.30792  Biso   1.000  H
  H37      1.0000 0.18059  0.38760  0.27930  Biso   1.000  H
  H38      1.0000 0.11840  0.46479  0.26921  Biso   1.000  H
  C43      1.0000 0.08367  0.93300  0.00433  Biso   1.000  C
  H39      1.0000 0.02811  0.79559  0.25478  Biso   1.000  H
  H40      1.0000 0.01859  0.88414  0.18608  Biso   1.000  H
  H41      1.0000 0.19082  0.76334  0.42998  Biso   1.000  H
  H42      1.0000 0.13809  0.67413  0.44457  Biso   1.000  H
  H43      1.0000 0.13999  0.79475  0.48357  Biso   1.000  H
  H44      1.0000 0.12979  0.94102  0.00678  Biso   1.000  H
  H45      1.0000 0.06713  0.87879  0.96460  Biso   1.000  H
  H46      1.0000 0.06306  0.00543  0.99208  Biso   1.000  H
  C44      1.0000 0.46177  0.69150  0.58722  Biso   1.000  C
  H47      1.0000 0.49561  0.63838  0.60671  Biso   1.000  H
  H48      1.0000 0.45034  0.68298  0.53180  Biso   1.000  H
  H49      1.0000 0.42420  0.67689  0.61110  Biso   1.000  H
  O11      1.0000 0.48391  0.80344  0.60478  Biso   1.000  O
  C45      1.0000 0.49638  0.82992  0.68214  Biso   1.000  C
  C46      1.0000 0.50037  0.75115  0.74046  Biso   1.000  C
  C47      1.0000 0.50414  0.94345  0.70004  Biso   1.000  C
  C48      1.0000 0.51531  0.78256  0.81766  Biso   1.000  C
  H50      1.0000 0.49293  0.67463  0.72786  Biso   1.000  H
  C49      1.0000 0.51574  0.97544  0.77587  Biso   1.000  C
  C50      1.0000 0.50336  0.03116  0.63807  Biso   1.000  C
  C51      1.0000 0.52582  0.69460  0.87894  Biso   1.000  C
  C52      1.0000 0.52045  0.89583  0.83396  Biso   1.000  C
  H51      1.0000 0.52061  0.05229  0.78858  Biso   1.000  H
  H52      1.0000 0.48162  0.09924  0.65209  Biso   1.000  H
  H53      1.0000 0.47934  0.00242  0.58950  Biso   1.000  H
  C53      1.0000 0.57115  0.06006  0.62764  Biso   1.000  C
  H54      1.0000 0.50021  0.62752  0.86178  Biso   1.000  H
  H55      1.0000 0.51173  0.72333  0.92558  Biso   1.000  H
  C54      1.0000 0.59642  0.66335  0.89679  Biso   1.000  C
  O12      1.0000 0.53379  0.92315  0.91081  Biso   1.000  O
  C55      1.0000 0.59981  0.00485  0.57524  Biso   1.000  C
  C56      1.0000 0.60530  0.14193  0.67507  Biso   1.000  C
  C57      1.0000 0.61982  0.58141  0.85249  Biso   1.000  C
  C58      1.0000 0.63834  0.71289  0.95608  Biso   1.000  C
  C59      1.0000 0.54576  0.04043  0.92689  Biso   1.000  C
  H56      1.0000 0.57713  0.94846  0.54440  Biso   1.000  H
  C60      1.0000 0.66282  0.03091  0.56663  Biso   1.000  C
  C61      1.0000 0.66773  0.16782  0.66361  Biso   1.000  C
  O13      1.0000 0.57524  0.19263  0.72820  Biso   1.000  O
  C62      1.0000 0.68430  0.54883  0.86691  Biso   1.000  C
  H57      1.0000 0.59162  0.54724  0.81201  Biso   1.000  H
  C63      1.0000 0.70278  0.67872  0.97022  Biso   1.000  C
  O14      1.0000 0.62015  0.79083  0.00334  Biso   1.000  O
  H58      1.0000 0.57761  0.06783  0.89736  Biso   1.000  H
  H59      1.0000 0.56172  0.05029  0.98139  Biso   1.000  H
  H60      1.0000 0.50603  0.08262  0.91269  Biso   1.000  H
  O15      1.0000 0.69397  0.98079  0.51316  Biso   1.000  O
  C64      1.0000 0.69591  0.11311  0.61008  Biso   1.000  C
  H61      1.0000 0.69082  0.22454  0.69371  Biso   1.000  H
  C65      1.0000 0.61446  0.26105  0.78430  Biso   1.000  C
  C66      1.0000 0.72571  0.59769  0.92797  Biso   1.000  C
  O16      1.0000 0.70242  0.46821  0.82085  Biso   1.000  O
  H62      1.0000 0.73110  0.71322  0.01047  Biso   1.000  H
  H63      1.0000 0.58093  0.80319  0.99108  Biso   1.000  H
  C67      1.0000 0.66367  0.89115  0.47114  Biso   1.000  C
  C68      1.0000 0.76434  0.14084  0.60124  Biso   1.000  C
  H64      1.0000 0.64904  0.21560  0.81218  Biso   1.000  H
  H65      1.0000 0.58840  0.29120  0.81999  Biso   1.000  H
  H66      1.0000 0.63264  0.32270  0.75859  Biso   1.000  H
  C69      1.0000 0.79517  0.56144  0.94707  Biso   1.000  C
  H67      1.0000 0.74122  0.45343  0.83476  Biso   1.000  H
  H68      1.0000 0.65510  0.83193  0.50609  Biso   1.000  H
  H69      1.0000 0.69143  0.86200  0.43688  Biso   1.000  H
  H70      1.0000 0.62340  0.91672  0.44121  Biso   1.000  H
  H71      1.0000 0.76841  0.13516  0.54679  Biso   1.000  H
  H72      1.0000 0.77392  0.21886  0.61772  Biso   1.000  H
  C70      1.0000 0.81243  0.06365  0.64748  Biso   1.000  C
  H73      1.0000 0.79842  0.48133  0.93459  Biso   1.000  H
  C71      1.0000 0.83847  0.62860  0.90391  Biso   1.000  C
  H74      1.0000 0.80987  0.57029  0.00260  Biso   1.000  H
  C72      1.0000 0.83289  0.96734  0.61447  Biso   1.000  C
  C73      1.0000 0.83761  0.08696  0.72125  Biso   1.000  C
  C74      1.0000 0.85087  0.59703  0.83396  Biso   1.000  C
  C75      1.0000 0.86555  0.72910  0.93561  Biso   1.000  C
  H75      1.0000 0.81663  0.95113  0.56259  Biso   1.000  H
  C76      1.0000 0.87659  0.89450  0.65586  Biso   1.000  C
  C77      1.0000 0.88265  0.01746  0.76378  Biso   1.000  C
  O17      1.0000 0.81448  0.18177  0.75261  Biso   1.000  O
  C78      1.0000 0.88794  0.66419  0.79303  Biso   1.000  C
  O18      1.0000 0.82374  0.49812  0.80392  Biso   1.000  O
  H76      1.0000 0.85824  0.75140  0.98470  Biso   1.000  H
  C79      1.0000 0.90223  0.79526  0.89730  Biso   1.000  C
  C80      1.0000 0.90303  0.92014  0.73123  Biso   1.000  C
  O19      1.0000 0.89592  0.79559  0.62690  Biso   1.000  O
  H77      1.0000 0.89960  0.03609  0.81498  Biso   1.000  H
  C81      1.0000 0.83669  0.20533  0.83037  Biso   1.000  C
  C82      1.0000 0.91375  0.76543  0.82404  Biso   1.000  C
  H78      1.0000 0.89554  0.64088  0.74428  Biso   1.000  H
  C83      1.0000 0.83567  0.46362  0.73128  Biso   1.000  C
  O20      1.0000 0.92927  0.89541  0.92467  Biso   1.000  O
  C84      1.0000 0.94936  0.84070  0.77900  Biso   1.000  C
  C85      1.0000 0.85342  0.75365  0.56207  Biso   1.000  C
  H79      1.0000 0.83533  0.13700  0.86047  Biso   1.000  H
  H80      1.0000 0.80953  0.26247  0.84799  Biso   1.000  H
  H81      1.0000 0.88064  0.23281  0.83647  Biso   1.000  H
  H82      1.0000 0.81414  0.51449  0.69212  Biso   1.000  H
  H83      1.0000 0.81943  0.38760  0.72068  Biso   1.000  H
  H84      1.0000 0.88162  0.46479  0.73077  Biso   1.000  H
  C86      1.0000 0.91641  0.93300  0.99570  Biso   1.000  C
  H85      1.0000 0.97191  0.79559  0.74519  Biso   1.000  H
  H86      1.0000 0.98143  0.88414  0.81389  Biso   1.000  H
  H87      1.0000 0.80921  0.76334  0.57000  Biso   1.000  H
  H88      1.0000 0.86194  0.67413  0.55540  Biso   1.000  H
  H89      1.0000 0.86003  0.79475  0.51641  Biso   1.000  H
  H90      1.0000 0.87023  0.94102  0.99319  Biso   1.000  H
  H91      1.0000 0.93289  0.87879  0.03538  Biso   1.000  H
  H92      1.0000 0.93696  0.00543  0.00790  Biso   1.000  H
  C87      1.0000 0.66711  0.46730  0.38551  Biso   1.000  C
  C88      1.0000 0.62346  0.39454  0.34412  Biso   1.000  C
  C89      1.0000 0.68757  0.56361  0.35250  Biso   1.000  C
  H93      1.0000 0.68341  0.45109  0.43739  Biso   1.000  H
  C90      1.0000 0.59702  0.42018  0.26875  Biso   1.000  C
  O21      1.0000 0.60413  0.29563  0.37308  Biso   1.000  O
  C91      1.0000 0.66244  0.58700  0.27873  Biso   1.000  C
  C92      1.0000 0.73571  0.64080  0.39874  Biso   1.000  C
  C93      1.0000 0.55070  0.34074  0.22103  Biso   1.000  C
  C94      1.0000 0.61741  0.51742  0.23625  Biso   1.000  C
  C95      1.0000 0.64663  0.25361  0.43790  Biso   1.000  C
  O22      1.0000 0.68558  0.68181  0.24743  Biso   1.000  O
  H94      1.0000 0.73163  0.63512  0.45318  Biso   1.000  H
  H95      1.0000 0.72613  0.71882  0.38232  Biso   1.000  H
  C96      1.0000 0.80414  0.61315  0.38990  Biso   1.000  C
  H96      1.0000 0.52809  0.29563  0.25478  Biso   1.000  H
  H97      1.0000 0.51861  0.38409  0.18608  Biso   1.000  H
  C97      1.0000 0.58630  0.26547  0.17594  Biso   1.000  C
  H98      1.0000 0.60040  0.53613  0.18500  Biso   1.000  H
  H99      1.0000 0.69079  0.26330  0.42998  Biso   1.000  H
  H100     1.0000 0.63811  0.17409  0.44457  Biso   1.000  H
  H101     1.0000 0.64002  0.29471  0.48357  Biso   1.000  H
  C98      1.0000 0.66331  0.70529  0.16961  Biso   1.000  C
  C99      1.0000 0.83718  0.53095  0.43334  Biso   1.000  C
  C100     1.0000 0.83232  0.66778  0.33637  Biso   1.000  C
  C101     1.0000 0.61211  0.16423  0.20695  Biso   1.000  C
  C102     1.0000 0.59781  0.29521  0.10268  Biso   1.000  C
  H102     1.0000 0.66471  0.63704  0.13951  Biso   1.000  H
  H103     1.0000 0.69052  0.76243  0.15199  Biso   1.000  H
  H104     1.0000 0.61940  0.73285  0.16351  Biso   1.000  H
  C103     1.0000 0.90024  0.50480  0.42473  Biso   1.000  C
  O23      1.0000 0.80608  0.48075  0.48682  Biso   1.000  O
  H105     1.0000 0.80923  0.72450  0.30632  Biso   1.000  H
  C104     1.0000 0.89474  0.64188  0.32491  Biso   1.000  C
  H106     1.0000 0.60451  0.14092  0.25570  Biso   1.000  H
  C105     1.0000 0.64918  0.09698  0.16602  Biso   1.000  C
  C106     1.0000 0.63445  0.22914  0.06437  Biso   1.000  C
  O24      1.0000 0.57078  0.39537  0.07531  Biso   1.000  O
  C107     1.0000 0.92890  0.56002  0.37234  Biso   1.000  C
  H107     1.0000 0.92291  0.44842  0.45558  Biso   1.000  H
  C108     1.0000 0.83633  0.39111  0.52884  Biso   1.000  C
  O25      1.0000 0.92482  0.69259  0.27183  Biso   1.000  O
  C109     1.0000 0.66158  0.12864  0.09606  Biso   1.000  C
  O26      1.0000 0.67631  0.99808  0.19606  Biso   1.000  O
  H108     1.0000 0.64181  0.25144  0.01528  Biso   1.000  H
  C110     1.0000 0.58364  0.43305  0.00433  Biso   1.000  C
  C111     1.0000 0.99664  0.53112  0.36191  Biso   1.000  C
  H109     1.0000 0.84491  0.33189  0.49389  Biso   1.000  H
  H110     1.0000 0.80862  0.36204  0.56310  Biso   1.000  H
  H111     1.0000 0.87660  0.41667  0.55877  Biso   1.000  H
  C112     1.0000 0.88554  0.76101  0.21567  Biso   1.000  C
  C113     1.0000 0.70487  0.06140  0.05291  Biso   1.000  C
  C114     1.0000 0.66439  0.96358  0.26875  Biso   1.000  C
  H112     1.0000 0.62982  0.44098  0.00678  Biso   1.000  H
  H113     1.0000 0.56304  0.50539  0.99208  Biso   1.000  H
  H114     1.0000 0.56715  0.37883  0.96460  Biso   1.000  H
  C115     1.0000 0.99586  0.44340  0.29994  Biso   1.000  C
  H115     1.0000 0.01843  0.59920  0.34788  Biso   1.000  H
  H116     1.0000 0.02071  0.50238  0.41048  Biso   1.000  H
  H117     1.0000 0.85101  0.71565  0.18780  Biso   1.000  H
  H118     1.0000 0.91160  0.79125  0.17998  Biso   1.000  H
  H119     1.0000 0.86741  0.82274  0.24139  Biso   1.000  H
  C116     1.0000 0.77429  0.09774  0.07201  Biso   1.000  C
  H120     1.0000 0.70158  0.98129  0.06539  Biso   1.000  H
  H121     1.0000 0.69013  0.07034  0.99738  Biso   1.000  H
  H122     1.0000 0.68592  0.01454  0.30792  Biso   1.000  H
  H123     1.0000 0.68062  0.88756  0.27930  Biso   1.000  H
  H124     1.0000 0.61843  0.96483  0.26921  Biso   1.000  H
  C117     1.0000 0.98426  0.47540  0.22411  Biso   1.000  C
  C118     1.0000 0.00362  0.32988  0.31784  Biso   1.000  C
  C119     1.0000 0.81575  0.04878  0.13306  Biso   1.000  C
  C120     1.0000 0.79722  0.17868  0.02976  Biso   1.000  C
  C121     1.0000 0.97960  0.39579  0.16602  Biso   1.000  C
  H125     1.0000 0.97939  0.55233  0.21140  Biso   1.000  H
  C122     1.0000 0.99963  0.25111  0.25952  Biso   1.000  C
  O27      1.0000 0.01613  0.30340  0.39520  Biso   1.000  O
  C123     1.0000 0.88023  0.08136  0.14749  Biso   1.000  C
  O28      1.0000 0.79762  0.96817  0.17913  Biso   1.000  O
  C124     1.0000 0.86172  0.21293  0.04396  Biso   1.000  C
  H126     1.0000 0.76895  0.21318  0.98951  Biso   1.000  H
  C125     1.0000 0.98474  0.28252  0.18232  Biso   1.000  C
  O29      1.0000 0.96626  0.42311  0.08917  Biso   1.000  O
  H127     1.0000 0.00712  0.17459  0.27211  Biso   1.000  H
  C126     1.0000 0.03828  0.19155  0.41282  Biso   1.000  C
  H128     1.0000 0.90839  0.04720  0.18802  Biso   1.000  H
  C127     1.0000 0.90362  0.16331  0.10319  Biso   1.000  C
  H129     1.0000 0.75879  0.95339  0.16522  Biso   1.000  H
  O30      1.0000 0.87990  0.29079  0.99664  Biso   1.000  O
  C128     1.0000 0.97419  0.19464  0.12109  Biso   1.000  C
  C129     1.0000 0.95425  0.54039  0.07315  Biso   1.000  C
  H130     1.0000 0.00440  0.13842  0.39332  Biso   1.000  H
  H131     1.0000 0.04971  0.18303  0.46818  Biso   1.000  H
  H132     1.0000 0.07580  0.17693  0.38887  Biso   1.000  H
  H133     1.0000 0.91912  0.30323  0.00889  Biso   1.000  H
  H134     1.0000 0.99979  0.12747  0.13820  Biso   1.000  H
  H135     1.0000 0.98832  0.22329  0.07440  Biso   1.000  H
  H136     1.0000 0.92240  0.56779  0.10262  Biso   1.000  H
  H137     1.0000 0.93828  0.55033  0.01859  Biso   1.000  H
  H138     1.0000 0.99401  0.58257  0.08728  Biso   1.000  H
  C130     1.0000 0.33291  0.46730  0.61447  Biso   1.000  C
  C131     1.0000 0.31245  0.56361  0.64748  Biso   1.000  C
  H139     1.0000 0.31661  0.45109  0.56259  Biso   1.000  H
  C132     1.0000 0.37657  0.39454  0.65586  Biso   1.000  C
  C133     1.0000 0.26432  0.64080  0.60124  Biso   1.000  C
  C134     1.0000 0.33759  0.58700  0.72125  Biso   1.000  C
  C135     1.0000 0.40300  0.42018  0.73123  Biso   1.000  C
  O31      1.0000 0.39589  0.29563  0.62690  Biso   1.000  O
  C136     1.0000 0.19593  0.61315  0.61008  Biso   1.000  C
  H140     1.0000 0.26844  0.63512  0.54679  Biso   1.000  H
  H141     1.0000 0.27390  0.71882  0.61772  Biso   1.000  H
  C137     1.0000 0.38262  0.51742  0.76378  Biso   1.000  C
  O32      1.0000 0.31446  0.68181  0.75261  Biso   1.000  O
  C138     1.0000 0.44933  0.34074  0.77900  Biso   1.000  C
  C139     1.0000 0.35339  0.25361  0.56207  Biso   1.000  C
  C140     1.0000 0.16285  0.53095  0.56663  Biso   1.000  C
  C141     1.0000 0.16771  0.66778  0.66361  Biso   1.000  C
  H142     1.0000 0.39963  0.53613  0.81498  Biso   1.000  H
  C142     1.0000 0.33671  0.70529  0.83037  Biso   1.000  C
  H143     1.0000 0.47193  0.29563  0.74519  Biso   1.000  H
  H144     1.0000 0.48141  0.38409  0.81389  Biso   1.000  H
  C143     1.0000 0.41372  0.26547  0.82404  Biso   1.000  C
  H145     1.0000 0.30923  0.26330  0.57000  Biso   1.000  H
  H146     1.0000 0.36191  0.17409  0.55540  Biso   1.000  H
  H147     1.0000 0.36001  0.29471  0.51641  Biso   1.000  H
  O33      1.0000 0.19394  0.48075  0.51316  Biso   1.000  O
  C144     1.0000 0.09979  0.50480  0.57524  Biso   1.000  C
  C145     1.0000 0.10528  0.64188  0.67507  Biso   1.000  C
  H148     1.0000 0.19085  0.72450  0.69371  Biso   1.000  H
  H149     1.0000 0.33531  0.63704  0.86047  Biso   1.000  H
  H150     1.0000 0.30950  0.76243  0.84799  Biso   1.000  H
  H151     1.0000 0.38062  0.73285  0.83647  Biso   1.000  H
  C146     1.0000 0.38792  0.16423  0.79303  Biso   1.000  C
  C147     1.0000 0.40226  0.29521  0.89730  Biso   1.000  C
  C148     1.0000 0.16369  0.39111  0.47114  Biso   1.000  C
  C149     1.0000 0.07113  0.56002  0.62764  Biso   1.000  C
  H152     1.0000 0.07711  0.44842  0.54440  Biso   1.000  H
  O34      1.0000 0.07522  0.69259  0.72820  Biso   1.000  O
  H153     1.0000 0.39551  0.14092  0.74428  Biso   1.000  H
  C150     1.0000 0.35084  0.09698  0.83396  Biso   1.000  C
  C151     1.0000 0.36557  0.22914  0.93561  Biso   1.000  C
  O35      1.0000 0.42929  0.39537  0.92467  Biso   1.000  O
  H154     1.0000 0.15512  0.33189  0.50609  Biso   1.000  H
  H155     1.0000 0.19140  0.36204  0.43688  Biso   1.000  H
  H156     1.0000 0.12342  0.41667  0.44121  Biso   1.000  H
  C152     1.0000 0.00338  0.53112  0.63807  Biso   1.000  C
  C153     1.0000 0.11448  0.76101  0.78430  Biso   1.000  C
  C154     1.0000 0.33845  0.12864  0.90391  Biso   1.000  C
  O36      1.0000 0.32372  0.99808  0.80392  Biso   1.000  O
  H157     1.0000 0.35821  0.25144  0.98470  Biso   1.000  H
  C155     1.0000 0.41639  0.43305  0.99570  Biso   1.000  C
  C156     1.0000 0.00417  0.44340  0.70004  Biso   1.000  C
  H158     1.0000 0.98160  0.59920  0.65209  Biso   1.000  H
  H159     1.0000 0.97932  0.50238  0.58950  Biso   1.000  H
  H160     1.0000 0.14901  0.71565  0.81218  Biso   1.000  H
  H161     1.0000 0.08843  0.79125  0.81999  Biso   1.000  H
  H162     1.0000 0.13262  0.82274  0.75859  Biso   1.000  H
  C157     1.0000 0.29520  0.06140  0.94707  Biso   1.000  C
  C158     1.0000 0.33565  0.96358  0.73128  Biso   1.000  C
  H163     1.0000 0.37025  0.44098  0.99319  Biso   1.000  H
  H164     1.0000 0.43699  0.50539  0.00790  Biso   1.000  H
  H165     1.0000 0.43287  0.37883  0.03538  Biso   1.000  H
  C159     1.0000 0.01576  0.47540  0.77587  Biso   1.000  C
  C160     1.0000 0.99641  0.32988  0.68214  Biso   1.000  C
  C161     1.0000 0.22574  0.09774  0.92797  Biso   1.000  C
  H166     1.0000 0.29844  0.98129  0.93459  Biso   1.000  H
  H167     1.0000 0.30989  0.07034  0.00260  Biso   1.000  H
  H168     1.0000 0.31411  0.01454  0.69212  Biso   1.000  H
  H169     1.0000 0.31941  0.88756  0.72068  Biso   1.000  H
  H170     1.0000 0.38160  0.96483  0.73077  Biso   1.000  H
  H171     1.0000 0.02064  0.55233  0.78858  Biso   1.000  H
  C162     1.0000 0.02043  0.39579  0.83396  Biso   1.000  C
  C163     1.0000 0.00040  0.25111  0.74046  Biso   1.000  C
  O37      1.0000 0.98389  0.30340  0.60478  Biso   1.000  O
  C164     1.0000 0.18428  0.04878  0.86691  Biso   1.000  C
  C165     1.0000 0.20281  0.17868  0.97022  Biso   1.000  C
  C166     1.0000 0.01529  0.28252  0.81766  Biso   1.000  C
  O38      1.0000 0.03376  0.42311  0.91081  Biso   1.000  O
  H172     1.0000 0.99291  0.17459  0.72786  Biso   1.000  H
  C167     1.0000 0.96175  0.19155  0.58722  Biso   1.000  C
  C168     1.0000 0.11980  0.08136  0.85249  Biso   1.000  C
  O39      1.0000 0.20245  0.96817  0.82085  Biso   1.000  O
  C169     1.0000 0.13836  0.21293  0.95608  Biso   1.000  C
  H173     1.0000 0.23107  0.21318  0.01047  Biso   1.000  H
  C170     1.0000 0.02585  0.19464  0.87894  Biso   1.000  C
  C171     1.0000 0.04578  0.54039  0.92689  Biso   1.000  C
  H174     1.0000 0.99563  0.13842  0.60671  Biso   1.000  H
  H175     1.0000 0.95031  0.18303  0.53180  Biso   1.000  H
  H176     1.0000 0.92423  0.17693  0.61110  Biso   1.000  H
  C172     1.0000 0.09640  0.16331  0.89679  Biso   1.000  C
  H177     1.0000 0.09164  0.04720  0.81201  Biso   1.000  H
  H178     1.0000 0.24124  0.95339  0.83476  Biso   1.000  H
  O40      1.0000 0.12013  0.29079  0.00334  Biso   1.000  O
  H179     1.0000 0.00023  0.12747  0.86178  Biso   1.000  H
  H180     1.0000 0.01171  0.22329  0.92558  Biso   1.000  H
  H181     1.0000 0.07763  0.56779  0.89736  Biso   1.000  H
  H182     1.0000 0.06174  0.55033  0.98139  Biso   1.000  H
  H183     1.0000 0.00601  0.58257  0.91269  Biso   1.000  H
  H184     1.0000 0.08091  0.30323  0.99108  Biso   1.000  H
  Ne1      1.0000 0.29128  0.86140  0.23623  Biso   1.000  Ne
  He1      1.0000 0.34543  0.64430  0.35492  Biso   1.000  He
  He2      1.0000 0.28689  0.96311  0.14214  Biso   1.000  He
  Ar1      1.0000 0.29355  0.85413  0.23262  Biso   1.000  Ar
  Ne2      1.0000 0.20874  0.36138  0.76376  Biso   1.000  Ne
  He3      1.0000 0.22884  0.54380  0.95341  Biso   1.000  He
  He4      1.0000 0.15666  0.11195  0.62721  Biso   1.000  He
  Ar2      1.0000 0.20644  0.35414  0.76745  Biso   1.000  Ar
  Ne3      1.0000 0.79129  0.36138  0.23623  Biso   1.000  Ne
  He5      1.0000 0.84533  0.14435  0.35501  Biso   1.000  He
  He6      1.0000 0.78688  0.46308  0.14214  Biso   1.000  He
  Ar3      1.0000 0.79355  0.35405  0.23262  Biso   1.000  Ar
  Ne4      1.0000 0.70875  0.86140  0.76376  Biso   1.000  Ne
  He7      1.0000 0.72883  0.04388  0.95339  Biso   1.000  He
  He8      1.0000 0.70776  0.76156  0.69926  Biso   1.000  He
  Ar4      1.0000 0.70399  0.85241  0.76589  Biso   1.000  Ar
