data_image0
_cell_length_a       15.884
_cell_length_b       15.985
_cell_length_c       21.691
_cell_angle_alpha    101.88
_cell_angle_beta     108.09
_cell_angle_gamma    96.14

_symmetry_space_group_name_H-M    "P 1"
_symmetry_int_tables_number       1

loop_
  _symmetry_equiv_pos_as_xyz
  'x, y, z'

loop_
  _atom_site_label
  _atom_site_occupancy
  _atom_site_fract_x
  _atom_site_fract_y
  _atom_site_fract_z
  _atom_site_thermal_displace_type
  _atom_site_B_iso_or_equiv
  _atom_site_type_symbol
  C1       1.0000 0.89306  0.29203  0.50200  Biso   1.000  C
  C2       1.0000 0.84303  0.29603  0.54601  Biso   1.000  C
  C3       1.0000 0.90808  0.36304  0.47603  Biso   1.000  C
  H1       1.0000 0.91907  0.23300  0.48701  Biso   1.000  H
  C4       1.0000 0.83408  0.21805  0.57203  Biso   1.000  C
  C5       1.0000 0.81303  0.37003  0.56501  Biso   1.000  C
  C6       1.0000 0.87209  0.43606  0.49704  Biso   1.000  C
  C7       1.0000 0.96206  0.36104  0.43102  Biso   1.000  C
  O1       1.0000 0.78606  0.23102  0.61404  Biso   1.000  O
  O2       1.0000 0.85911  0.15004  0.55804  Biso   1.000  O
  H2       1.0000 0.77509  0.37206  0.59900  Biso   1.000  H
  C8       1.0000 0.82504  0.44105  0.54100  Biso   1.000  C
  H3       1.0000 0.88205  0.49103  0.47703  Biso   1.000  H
  O3       1.0000 0.96102  0.41203  0.39602  Biso   1.000  O
  O4       1.0000 0.01008  0.29802  0.43302  Biso   1.000  O
  C9       1.0000 0.77109  0.16305  0.64602  Biso   1.000  C
  H4       1.0000 0.80008  0.49901  0.55504  Biso   1.000  H
  C10      1.0000 0.05905  0.28801  0.38700  Biso   1.000  C
  C11      1.0000 0.69910  0.10003  0.61504  Biso   1.000  C
  C12      1.0000 0.83207  0.17203  0.70904  Biso   1.000  C
  C13      1.0000 0.15105  0.31499  0.40901  Biso   1.000  C
  C14      1.0000 0.01205  0.24502  0.32003  Biso   1.000  C
  O5       1.0000 0.64308  0.09501  0.55103  Biso   1.000  O
  C15      1.0000 0.67611  0.04005  0.65104  Biso   1.000  C
  C16      1.0000 0.81409  0.11201  0.74703  Biso   1.000  C
  O6       1.0000 0.90605  0.23500  0.73701  Biso   1.000  O
  O7       1.0000 0.19105  0.36503  0.47503  Biso   1.000  O
  C17      1.0000 0.19800  0.29400  0.36499  Biso   1.000  C
  O8       1.0000 0.91603  0.22501  0.29702  Biso   1.000  O
  C18      1.0000 0.05902  0.22400  0.27802  Biso   1.000  C
  C19      1.0000 0.65205  0.02706  0.50004  Biso   1.000  C
  C20      1.0000 0.73507  0.05006  0.71701  Biso   1.000  C
  C21      1.0000 0.59104  0.97205  0.62000  Biso   1.000  C
  C22      1.0000 0.88107  0.11804  0.81601  Biso   1.000  C
  C23      1.0000 0.99009  0.21307  0.73305  Biso   1.000  C
  C24      1.0000 0.23403  0.32403  0.52802  Biso   1.000  C
  C25      1.0000 0.15103  0.25005  0.30103  Biso   1.000  C
  C26      1.0000 0.30002  0.32104  0.39502  Biso   1.000  C
  C27      1.0000 0.87603  0.14100  0.29602  Biso   1.000  C
  C28      1.0000 0.00901  0.17003  0.20598  Biso   1.000  C
  H5       1.0000 0.71808  0.01001  0.51904  Biso   1.000  H
  H6       1.0000 0.64806  0.05106  0.45603  Biso   1.000  H
  O9       1.0000 0.58406  0.95207  0.48300  Biso   1.000  O
  H7       1.0000 0.71911  0.00807  0.74703  Biso   1.000  H
  C29      1.0000 0.61408  0.89202  0.57900  Biso   1.000  C
  H8       1.0000 0.54008  0.99702  0.58702  Biso   1.000  H
  C30      1.0000 0.54708  0.95204  0.67003  Biso   1.000  C
  C31      1.0000 0.95110  0.06604  0.80403  Biso   1.000  C
  H9       1.0000 0.91509  0.18308  0.84604  Biso   1.000  H
  C32      1.0000 0.83213  0.09402  0.86303  Biso   1.000  C
  H10      1.0000 0.97712  0.15906  0.69004  Biso   1.000  H
  O10      1.0000 0.04108  0.19002  0.79205  Biso   1.000  O
  H11      1.0000 0.02912  0.26906  0.72803  Biso   1.000  H
  O11      1.0000 0.32609  0.32606  0.53303  Biso   1.000  O
  H12      1.0000 0.20107  0.25806  0.51604  Biso   1.000  H
  H13      1.0000 0.23109  0.36004  0.57504  Biso   1.000  H
  H14      1.0000 0.18801  0.23502  0.26599  Biso   1.000  H
  C33      1.0000 0.33702  0.24802  0.42600  Biso   1.000  C
  H15      1.0000 0.31803  0.38202  0.43302  Biso   1.000  H
  C34      1.0000 0.34403  0.34098  0.34499  Biso   1.000  C
  H16      1.0000 0.92206  0.11702  0.33301  Biso   1.000  H
  H17      1.0000 0.81402  0.14503  0.30599  Biso   1.000  H
  O12      1.0000 0.85699  0.08299  0.23200  Biso   1.000  O
  C35      1.0000 0.99603  0.07302  0.20699  Biso   1.000  C
  H18      1.0000 0.94604  0.19302  0.18899  Biso   1.000  H
  C36      1.0000 0.04799  0.18601  0.14999  Biso   1.000  C
  C37      1.0000 0.61007  0.88506  0.51503  Biso   1.000  C
  C38      1.0000 0.63905  0.82302  0.60802  Biso   1.000  C
  C39      1.0000 0.50810  0.02906  0.69901  Biso   1.000  C
  H19      1.0000 0.59707  0.93603  0.71004  Biso   1.000  H
  H20      1.0000 0.49305  0.89706  0.64402  Biso   1.000  H
  C40      1.0000 0.94210  0.97804  0.80604  Biso   1.000  C
  C41      1.0000 0.02610  0.10203  0.79004  Biso   1.000  C
  H21      1.0000 0.80113  0.02608  0.84504  Biso   1.000  H
  H22      1.0000 0.78110  0.13305  0.86404  Biso   1.000  H
  C42      1.0000 0.90212  0.11007  0.93301  Biso   1.000  C
  C43      1.0000 0.34506  0.25503  0.49202  Biso   1.000  C
  C44      1.0000 0.36106  0.17703  0.39201  Biso   1.000  C
  H23      1.0000 0.41703  0.35300  0.36800  Biso   1.000  H
  H24      1.0000 0.32406  0.28605  0.30203  Biso   1.000  H
  C45      1.0000 0.31704  0.42203  0.32103  Biso   1.000  C
  C46      1.0000 0.92206  0.03705  0.22102  Biso   1.000  C
  C47      1.0000 0.05800  0.02201  0.19400  Biso   1.000  C
  H25      1.0000 0.01004  0.13901  0.10302  Biso   1.000  H
  H26      1.0000 0.11705  0.17704  0.16503  Biso   1.000  H
  C48      1.0000 0.04602  0.27900  0.14001  Biso   1.000  C
  C49      1.0000 0.62704  0.81106  0.47703  Biso   1.000  C
  C50      1.0000 0.66308  0.75203  0.57404  Biso   1.000  C
  H27      1.0000 0.64006  0.82502  0.65800  Biso   1.000  H
  H28      1.0000 0.44607  0.03302  0.66201  Biso   1.000  H
  H29      1.0000 0.55607  0.08806  0.71104  Biso   1.000  H
  C51      1.0000 0.48813  0.02005  0.76302  Biso   1.000  C
  H30      1.0000 0.88711  0.95003  0.81902  Biso   1.000  H
  C52      1.0000 0.00408  0.92710  0.79305  Biso   1.000  C
  C53      1.0000 0.08608  0.04806  0.77801  Biso   1.000  C
  H31      1.0000 0.93114  0.17809  0.95106  Biso   1.000  H
  H32      1.0000 0.95510  0.07306  0.93106  Biso   1.000  H
  C54      1.0000 0.85610  0.08305  0.98204  Biso   1.000  C
  C55      1.0000 0.37306  0.18900  0.52300  Biso   1.000  C
  H33      1.0000 0.36005  0.17504  0.34204  Biso   1.000  H
  C56      1.0000 0.38608  0.10803  0.42104  Biso   1.000  C
  H34      1.0000 0.33702  0.47702  0.36399  Biso   1.000  H
  H35      1.0000 0.24404  0.41001  0.29802  Biso   1.000  H
  C57      1.0000 0.35803  0.44098  0.27200  Biso   1.000  C
  C58      1.0000 0.91403  0.95206  0.22202  Biso   1.000  C
  C59      1.0000 0.04900  0.93402  0.19601  Biso   1.000  C
  H36      1.0000 0.11305  0.05003  0.18102  Biso   1.000  H
  H37      1.0000 0.97997  0.29298  0.13600  Biso   1.000  H
  H38      1.0000 0.09605  0.32401  0.18302  Biso   1.000  H
  C60      1.0000 0.06498  0.29203  0.08001  Biso   1.000  C
  O13      1.0000 0.61207  0.80203  0.40600  Biso   1.000  O
  C61      1.0000 0.65504  0.74503  0.50801  Biso   1.000  C
  C62      1.0000 0.70009  0.67902  0.60502  Biso   1.000  C
  C63      1.0000 0.55710  0.04808  0.82504  Biso   1.000  C
  C64      1.0000 0.40210  0.98407  0.75901  Biso   1.000  C
  C65      1.0000 0.99110  0.83009  0.79406  Biso   1.000  C
  C66      1.0000 0.07811  0.96307  0.77902  Biso   1.000  C
  O14      1.0000 0.15311  0.08602  0.75601  Biso   1.000  O
  C67      1.0000 0.86615  0.00405  0.99803  Biso   1.000  C
  C68      1.0000 0.80628  0.13705  0.00911  Biso   1.000  C
  O15      1.0000 0.38810  0.19803  0.59404  Biso   1.000  O
  C69      1.0000 0.39003  0.11499  0.48501  Biso   1.000  C
  C70      1.0000 0.40906  0.02801  0.38003  Biso   1.000  C
  C71      1.0000 0.32004  0.39502  0.20403  Biso   1.000  C
  C72      1.0000 0.43504  0.50400  0.29301  Biso   1.000  C
  O16      1.0000 0.84706  0.91404  0.24403  Biso   1.000  O
  C73      1.0000 0.97400  0.89802  0.20999  Biso   1.000  C
  C74      1.0000 0.11903  0.88201  0.18403  Biso   1.000  C
  C75      1.0000 0.01501  0.34298  0.04201  Biso   1.000  C
  C76      1.0000 0.13102  0.25501  0.06001  Biso   1.000  C
  C77      1.0000 0.68002  0.83604  0.39001  Biso   1.000  C
  O17      1.0000 0.67409  0.67406  0.46701  Biso   1.000  O
  C78      1.0000 0.80210  0.70605  0.63504  Biso   1.000  C
  H39      1.0000 0.68207  0.61804  0.56702  Biso   1.000  H
  C79      1.0000 0.65607  0.65907  0.65505  Biso   1.000  C
  C80      1.0000 0.54010  0.04006  0.88304  Biso   1.000  C
  H40      1.0000 0.62411  0.07505  0.82804  Biso   1.000  H
  C81      1.0000 0.38508  0.97705  0.81701  Biso   1.000  C
  H41      1.0000 0.34808  0.96304  0.71104  Biso   1.000  H
  C82      1.0000 0.94108  0.77606  0.72202  Biso   1.000  C
  C83      1.0000 0.95212  0.81405  0.85005  Biso   1.000  C
  H42      1.0000 0.05413  0.80704  0.81105  Biso   1.000  H
  O18      1.0000 0.14311  0.91706  0.76804  Biso   1.000  O
  C84      1.0000 0.22509  0.13506  0.80403  Biso   1.000  C
  H43      1.0000 0.90410  0.96205  0.97703  Biso   1.000  H
  C85      1.0000 0.82723  0.97901  0.04310  Biso   1.000  C
  H44      1.0000 0.79811  0.19807  0.99603  Biso   1.000  H
  C86      1.0000 0.76826  0.11204  0.05408  Biso   1.000  C
  C87      1.0000 0.32008  0.16401  0.61003  Biso   1.000  C
  O19      1.0000 0.41605  0.04805  0.51704  Biso   1.000  O
  C88      1.0000 0.32405  0.96000  0.34900  Biso   1.000  C
  H45      1.0000 0.46008  0.00303  0.41302  Biso   1.000  H
  C89      1.0000 0.45302  0.04802  0.33000  Biso   1.000  C
  C90      1.0000 0.36001  0.41301  0.15801  Biso   1.000  C
  H46      1.0000 0.25899  0.34602  0.18799  Biso   1.000  H
  C91      1.0000 0.47502  0.52099  0.24699  Biso   1.000  C
  H47      1.0000 0.46501  0.53899  0.34499  Biso   1.000  H
  C92      1.0000 0.77502  0.86506  0.19601  Biso   1.000  C
  O20      1.0000 0.95902  0.81003  0.20799  Biso   1.000  O
  H48      1.0000 0.08502  0.81704  0.15400  Biso   1.000  H
  C93      1.0000 0.16804  0.90603  0.13700  Biso   1.000  C
  C94      1.0000 0.18601  0.88804  0.25300  Biso   1.000  C
  H49      1.0000 0.96298  0.37200  0.05700  Biso   1.000  H
  C95      1.0000 0.03087  0.35597  0.98496  Biso   1.000  C
  C96      1.0000 0.14702  0.26902  0.00301  Biso   1.000  C
  H50      1.0000 0.16901  0.21601  0.08898  Biso   1.000  H
  O21      1.0000 0.74705  0.88006  0.43001  Biso   1.000  O
  C97      1.0000 0.65702  0.81702  0.31401  Biso   1.000  C
  C98      1.0000 0.76607  0.67602  0.47202  Biso   1.000  C
  C99      1.0000 0.84905  0.68506  0.59103  Biso   1.000  C
  C100     1.0000 0.84908  0.75007  0.69901  Biso   1.000  C
  H51      1.0000 0.58307  0.64705  0.63204  Biso   1.000  H
  H52      1.0000 0.67605  0.71407  0.69801  Biso   1.000  H
  C101     1.0000 0.68307  0.57803  0.67901  Biso   1.000  C
  C102     1.0000 0.45411  0.00502  0.87903  Biso   1.000  C
  H53      1.0000 0.59311  0.06205  0.93106  Biso   1.000  H
  H54      1.0000 0.31811  0.94909  0.81406  Biso   1.000  H
  C103     1.0000 0.98805  0.75504  0.68001  Biso   1.000  C
  H55      1.0000 0.99012  0.86105  0.89702  Biso   1.000  H
  H56      1.0000 0.88312  0.82308  0.83501  Biso   1.000  H
  C104     1.0000 0.95408  0.72105  0.86003  Biso   1.000  C
  C105     1.0000 0.12408  0.85906  0.70402  Biso   1.000  C
  C106     1.0000 0.29507  0.16802  0.77601  Biso   1.000  C
  O22      1.0000 0.23811  0.14706  0.86303  Biso   1.000  O
  H57      1.0000 0.83523  0.91803  0.05608  Biso   1.000  H
  C107     1.0000 0.77824  0.03306  0.07107  Biso   1.000  C
  H58      1.0000 0.73024  0.15406  0.07609  Biso   1.000  H
  C108     1.0000 0.34308  0.18304  0.68603  Biso   1.000  C
  O23      1.0000 0.25306  0.12005  0.57003  Biso   1.000  O
  C109     1.0000 0.34808  0.97307  0.50004  Biso   1.000  C
  C110     1.0000 0.26504  0.95005  0.28303  Biso   1.000  C
  C111     1.0000 0.30100  0.90002  0.38500  Biso   1.000  C
  C112     1.0000 0.49201  0.97106  0.30103  Biso   1.000  C
  H59      1.0000 0.40303  0.06402  0.29000  Biso   1.000  H
  H60      1.0000 0.50705  0.10299  0.35602  Biso   1.000  H
  C113     1.0000 0.43700  0.47598  0.18002  Biso   1.000  C
  H61      1.0000 0.32998  0.37802  0.10602  Biso   1.000  H
  H62      1.0000 0.53600  0.57000  0.26403  Biso   1.000  H
  C114     1.0000 0.70503  0.83203  0.22403  Biso   1.000  C
  O24      1.0000 0.76199  0.85299  0.13700  Biso   1.000  O
  C115     1.0000 0.01002  0.78705  0.26699  Biso   1.000  C
  H63      1.0000 0.19898  0.97404  0.15500  Biso   1.000  H
  H64      1.0000 0.21900  0.86701  0.13600  Biso   1.000  H
  C116     1.0000 0.09799  0.89005  0.06702  Biso   1.000  C
  C117     1.0000 0.16803  0.82803  0.29100  Biso   1.000  C
  H65      1.0000 0.99185  0.39496  0.95594  Biso   1.000  H
  C118     1.0000 0.09685  0.31895  0.96496  Biso   1.000  C
  H66      1.0000 0.19789  0.23999  0.98797  Biso   1.000  H
  C119     1.0000 0.57801  0.76505  0.27301  Biso   1.000  C
  C120     1.0000 0.72303  0.85104  0.29401  Biso   1.000  C
  H67      1.0000 0.79904  0.74206  0.48400  Biso   1.000  H
  H68      1.0000 0.76901  0.64002  0.42500  Biso   1.000  H
  O25      1.0000 0.80906  0.63502  0.52501  Biso   1.000  O
  C121     1.0000 0.94105  0.71204  0.61304  Biso   1.000  C
  H69      1.0000 0.81210  0.76509  0.73405  Biso   1.000  H
  H70      1.0000 0.66309  0.52303  0.63605  Biso   1.000  H
  H71      1.0000 0.75607  0.59005  0.70202  Biso   1.000  H
  C122     1.0000 0.64213  0.55907  0.72803  Biso   1.000  C
  H72      1.0000 0.44014  0.99909  0.92404  Biso   1.000  H
  O26      1.0000 0.08407  0.77505  0.70302  Biso   1.000  O
  H73      1.0000 0.90411  0.67605  0.81701  Biso   1.000  H
  C123     1.0000 0.93513  0.70809  0.92003  Biso   1.000  C
  H74      1.0000 0.02013  0.70708  0.86404  Biso   1.000  H
  H75      1.0000 0.07811  0.88303  0.66703  Biso   1.000  H
  H76      1.0000 0.18609  0.85509  0.69405  Biso   1.000  H
  C124     1.0000 0.37708  0.21803  0.82102  Biso   1.000  C
  C125     1.0000 0.27708  0.14902  0.70603  Biso   1.000  C
  H77      1.0000 0.74826  0.01409  0.10511  Biso   1.000  H
  C126     1.0000 0.42210  0.23507  0.72703  Biso   1.000  C
  O27      1.0000 0.35702  0.90505  0.44901  Biso   1.000  O
  H78      1.0000 0.28202  0.99004  0.48099  Biso   1.000  H
  H79      1.0000 0.35205  0.94906  0.54401  Biso   1.000  H
  H80      1.0000 0.28100  0.99205  0.25300  Biso   1.000  H
  C127     1.0000 0.22902  0.83707  0.35402  Biso   1.000  C
  H81      1.0000 0.55404  0.96703  0.33802  Biso   1.000  H
  H82      1.0000 0.44404  0.91206  0.28900  Biso   1.000  H
  C128     1.0000 0.51203  0.98000  0.23701  Biso   1.000  C
  H83      1.0000 0.46801  0.49003  0.14402  Biso   1.000  H
  C129     1.0000 0.62302  0.78203  0.17901  Biso   1.000  C
  H84      1.0000 0.97105  0.73100  0.27200  Biso   1.000  H
  H85      1.0000 0.02305  0.84106  0.31000  Biso   1.000  H
  O28      1.0000 0.09405  0.76505  0.26303  Biso   1.000  O
  H86      1.0000 0.06900  0.82205  0.04903  Biso   1.000  H
  H87      1.0000 0.04500  0.92700  0.06898  Biso   1.000  H
  C130     1.0000 0.14400  0.91700  0.01800  Biso   1.000  C
  H88      1.0000 0.10986  0.32899  0.92095  Biso   1.000  H
  H89      1.0000 0.52906  0.73901  0.29201  Biso   1.000  H
  C131     1.0000 0.56306  0.74806  0.20303  Biso   1.000  C
  H90      1.0000 0.78400  0.89303  0.32900  Biso   1.000  H
  O29      1.0000 0.99009  0.70204  0.56702  Biso   1.000  O
  C132     1.0000 0.68012  0.60504  0.79601  Biso   1.000  C
  C133     1.0000 0.56512  0.49605  0.70703  Biso   1.000  C
  C134     1.0000 0.98510  0.65707  0.95803  Biso   1.000  C
  C135     1.0000 0.86914  0.74504  0.94003  Biso   1.000  C
  C136     1.0000 0.43711  0.25205  0.79701  Biso   1.000  C
  H91      1.0000 0.39010  0.22906  0.87401  Biso   1.000  H
  H92      1.0000 0.21610  0.10702  0.67104  Biso   1.000  H
  H93      1.0000 0.47111  0.26105  0.70803  Biso   1.000  H
  O30      1.0000 0.21405  0.76904  0.38600  Biso   1.000  O
  C137     1.0000 0.44301  0.95204  0.17500  Biso   1.000  C
  C138     1.0000 0.59800  0.01599  0.24102  Biso   1.000  C
  H94      1.0000 0.61001  0.77106  0.12603  Biso   1.000  H
  C139     1.0000 0.19382  0.86300  0.99093  Biso   1.000  C
  C140     1.0000 0.13401  0.99600  0.00201  Biso   1.000  C
  H95      1.0000 0.50104  0.70805  0.16698  Biso   1.000  H
  C141     1.0000 0.03805  0.63902  0.56902  Biso   1.000  C
  C142     1.0000 0.64009  0.58704  0.84203  Biso   1.000  C
  H96      1.0000 0.74112  0.65409  0.81205  Biso   1.000  H
  C143     1.0000 0.52514  0.47907  0.75305  Biso   1.000  C
  H97      1.0000 0.53510  0.46106  0.65505  Biso   1.000  H
  C144     1.0000 0.96923  0.64402  0.01508  Biso   1.000  C
  H98      1.0000 0.03713  0.62806  0.94304  Biso   1.000  H
  C145     1.0000 0.85316  0.73109  0.99703  Biso   1.000  C
  H99      1.0000 0.83115  0.78405  0.91106  Biso   1.000  H
  H100     1.0000 0.49913  0.29207  0.83306  Biso   1.000  H
  C146     1.0000 0.16602  0.78201  0.42801  Biso   1.000  C
  C147     1.0000 0.46000  0.96000  0.11700  Biso   1.000  C
  H101     1.0000 0.37599  0.92500  0.17200  Biso   1.000  H
  C148     1.0000 0.61502  0.02300  0.18302  Biso   1.000  C
  H102     1.0000 0.65203  0.03702  0.28900  Biso   1.000  H
  C149     1.0000 0.23178  0.88801  0.94596  Biso   1.000  C
  H103     1.0000 0.20200  0.80205  0.00401  Biso   1.000  H
  C150     1.0000 0.17287  0.02098  0.95694  Biso   1.000  C
  H104     1.0000 0.09601  0.03800  0.02301  Biso   1.000  H
  C151     1.0000 0.09209  0.63702  0.52401  Biso   1.000  C
  O31      1.0000 0.03909  0.58802  0.60401  Biso   1.000  O
  C152     1.0000 0.56311  0.52407  0.82002  Biso   1.000  C
  H105     1.0000 0.67012  0.62204  0.89401  Biso   1.000  H
  H106     1.0000 0.46410  0.43006  0.73600  Biso   1.000  H
  C153     1.0000 0.90325  0.68104  0.03508  Biso   1.000  C
  H107     1.0000 0.00825  0.60504  0.04410  Biso   1.000  H
  H108     1.0000 0.80221  0.76000  0.01207  Biso   1.000  H
  C154     1.0000 0.15707  0.70403  0.45403  Biso   1.000  C
  O32      1.0000 0.14106  0.85002  0.44199  Biso   1.000  O
  C155     1.0000 0.54599  0.99504  0.12101  Biso   1.000  C
  H109     1.0000 0.40699  0.93801  0.06898  Biso   1.000  H
  H110     1.0000 0.68202  0.05105  0.18603  Biso   1.000  H
  C156     1.0000 0.22180  0.96700  0.92897  Biso   1.000  C
  H111     1.0000 0.26980  0.84600  0.92395  Biso   1.000  H
  H112     1.0000 0.16486  0.08196  0.94395  Biso   1.000  H
  C157     1.0000 0.12809  0.56406  0.50300  Biso   1.000  C
  C158     1.0000 0.10704  0.70803  0.49804  Biso   1.000  C
  H113     1.0000 0.53210  0.51009  0.85602  Biso   1.000  H
  H114     1.0000 0.89024  0.67101  0.07909  Biso   1.000  H
  C159     1.0000 0.18707  0.63003  0.43503  Biso   1.000  C
  H115     1.0000 0.56004  0.00103  0.07600  Biso   1.000  H
  H116     1.0000 0.25178  0.98597  0.89493  Biso   1.000  H
  C160     1.0000 0.17507  0.55907  0.45904  Biso   1.000  C
  H117     1.0000 0.11805  0.50903  0.52300  Biso   1.000  H
  H118     1.0000 0.08110  0.76706  0.51303  Biso   1.000  H
  H119     1.0000 0.22508  0.62806  0.40104  Biso   1.000  H
  H120     1.0000 0.20008  0.50105  0.44500  Biso   1.000  H
