data_image0
_cell_length_a       16.899
_cell_length_b       10.891
_cell_length_c       20.226
_cell_angle_alpha    90
_cell_angle_beta     105.05
_cell_angle_gamma    90

_symmetry_space_group_name_H-M    "P 1"
_symmetry_int_tables_number       1

loop_
  _symmetry_equiv_pos_as_xyz
  'x, y, z'

loop_
  _atom_site_label
  _atom_site_occupancy
  _atom_site_fract_x
  _atom_site_fract_y
  _atom_site_fract_z
  _atom_site_thermal_displace_type
  _atom_site_B_iso_or_equiv
  _atom_site_type_symbol
  O1       1.0000 0.31791  0.53099  0.52979  Biso   1.000  O
  C1       1.0000 0.31200  0.55303  0.59758  Biso   1.000  C
  C2       1.0000 0.27812  0.43862  0.62261  Biso   1.000  C
  C3       1.0000 0.39718  0.59701  0.64319  Biso   1.000  C
  H1       1.0000 0.26897  0.62804  0.59548  Biso   1.000  H
  O2       1.0000 0.20007  0.42301  0.58150  Biso   1.000  O
  H2       1.0000 0.31998  0.36296  0.61698  Biso   1.000  H
  C4       1.0000 0.28027  0.46001  0.69808  Biso   1.000  C
  C5       1.0000 0.40288  0.59260  0.71902  Biso   1.000  C
  H3       1.0000 0.44199  0.52897  0.63162  Biso   1.000  H
  O3       1.0000 0.41867  0.71297  0.62379  Biso   1.000  O
  C6       1.0000 0.17948  0.30401  0.55600  Biso   1.000  C
  H4       1.0000 0.24401  0.54100  0.70268  Biso   1.000  H
  C7       1.0000 0.25061  0.35901  0.73422  Biso   1.000  C
  O4       1.0000 0.36818  0.48802  0.70581  Biso   1.000  O
  H5       1.0000 0.45999  0.59499  0.74400  Biso   1.000  H
  O5       1.0000 0.35611  0.69204  0.73381  Biso   1.000  O
  C8       1.0000 0.13978  0.31200  0.48499  Biso   1.000  C
  H6       1.0000 0.23700  0.24901  0.54802  Biso   1.000  H
  O6       1.0000 0.12698  0.24102  0.58298  Biso   1.000  O
  H7       1.0000 0.22200  0.23900  0.59399  Biso   1.000  H
  H8       1.0000 0.28601  0.28501  0.74892  Biso   1.000  H
  H9       1.0000 0.18099  0.35001  0.70499  Biso   1.000  H
  O7       1.0000 0.25301  0.38197  0.80610  Biso   1.000  O
  O8       1.0000 0.24697  0.22597  0.70099  Biso   1.000  O
  O9       1.0000 0.18700  0.40097  0.76299  Biso   1.000  O
  C9       1.0000 0.39931  0.77403  0.78921  Biso   1.000  C
  O10      1.0000 0.18899  0.36902  0.44931  Biso   1.000  O
  H10      1.0000 0.13402  0.21403  0.47199  Biso   1.000  H
  C10      1.0000 0.05293  0.37297  0.46410  Biso   1.000  C
  H11      1.0000 0.13299  0.27996  0.43098  Biso   1.000  H
  C11      1.0000 0.04803  0.29602  0.57403  Biso   1.000  C
  C12      1.0000 0.37549  0.89799  0.76648  Biso   1.000  C
  H12      1.0000 0.46503  0.76999  0.79602  Biso   1.000  H
  C13      1.0000 0.37820  0.74603  0.85592  Biso   1.000  C
  H13      1.0000 0.05599  0.46598  0.48100  Biso   1.000  H
  C14      1.0000 0.00410  0.29804  0.50102  Biso   1.000  C
  O11      1.0000 0.01401  0.36103  0.39581  Biso   1.000  O
  H14      1.0000 0.05601  0.38601  0.60101  Biso   1.000  H
  C15      1.0000 0.01200  0.19998  0.61401  Biso   1.000  C
  C16      1.0000 0.40929  0.99697  0.82438  Biso   1.000  C
  H15      1.0000 0.30799  0.90598  0.74902  Biso   1.000  H
  O12      1.0000 0.40618  0.92498  0.70719  Biso   1.000  O
  H16      1.0000 0.31100  0.74199  0.84629  Biso   1.000  H
  C17      1.0000 0.41470  0.62198  0.88920  Biso   1.000  C
  O13      1.0000 0.41037  0.83996  0.90650  Biso   1.000  O
  H17      1.0000 0.99397  0.20797  0.48899  Biso   1.000  H
  O14      1.0000 0.92592  0.36103  0.49242  Biso   1.000  O
  H18      1.0000 0.02602  0.11202  0.59000  Biso   1.000  H
  O15      1.0000 0.04499  0.19603  0.68799  Biso   1.000  O
  H19      1.0000 0.95100  0.20402  0.60398  Biso   1.000  H
  C18      1.0000 0.38599  0.95804  0.88858  Biso   1.000  C
  H20      1.0000 0.47698  0.99504  0.83370  Biso   1.000  H
  O16      1.0000 0.38199  0.11597  0.80318  Biso   1.000  O
  H21      1.0000 0.39699  0.61399  0.93599  Biso   1.000  H
  H22      1.0000 0.39803  0.55000  0.85802  Biso   1.000  H
  O17      1.0000 0.50249  0.62703  0.90891  Biso   1.000  O
  C19      1.0000 0.85359  0.29400  0.45770  Biso   1.000  C
  O18      1.0000 0.29978  0.96300  0.87911  Biso   1.000  O
  H23      1.0000 0.41998  0.01497  0.93000  Biso   1.000  H
  H24      1.0000 0.87200  0.21100  0.43298  Biso   1.000  H
  C20      1.0000 0.79948  0.37499  0.40088  Biso   1.000  C
  O19      1.0000 0.81090  0.25296  0.50388  Biso   1.000  O
  C21      1.0000 0.27169  0.02892  0.93021  Biso   1.000  C
  H25      1.0000 0.75000  0.31999  0.37400  Biso   1.000  H
  C22      1.0000 0.76533  0.48196  0.43380  Biso   1.000  C
  O20      1.0000 0.85001  0.42099  0.36202  Biso   1.000  O
  C23      1.0000 0.78116  0.35066  0.53788  Biso   1.000  C
  C24      1.0000 0.20547  0.95060  0.95038  Biso   1.000  C
  C25      1.0000 0.23901  0.15196  0.90292  Biso   1.000  C
  H26      1.0000 0.32713  0.04003  0.97700  Biso   1.000  H
  H27      1.0000 0.81699  0.54201  0.46160  Biso   1.000  H
  C26      1.0000 0.72348  0.42990  0.48709  Biso   1.000  C
  O21      1.0000 0.71082  0.54798  0.38198  Biso   1.000  O
  H28      1.0000 0.83797  0.40804  0.56548  Biso   1.000  H
  C27      1.0000 0.74349  0.28996  0.59220  Biso   1.000  C
  H29      1.0000 0.15600  0.93196  0.90200  Biso   1.000  H
  C28      1.0000 0.23879  0.83399  0.98447  Biso   1.000  C
  O22      1.0000 0.17397  0.01800  0.99830  Biso   1.000  O
  C29      1.0000 0.19961  0.21320  0.95550  Biso   1.000  C
  H30      1.0000 0.19003  0.13396  0.85612  Biso   1.000  H
  O23      1.0000 0.30308  0.23304  0.88802  Biso   1.000  O
  H31      1.0000 0.67099  0.37903  0.45852  Biso   1.000  H
  O24      1.0000 0.69788  0.53503  0.51627  Biso   1.000  O
  H32      1.0000 0.79201  0.23001  0.62399  Biso   1.000  H
  H33      1.0000 0.72301  0.35901  0.62189  Biso   1.000  H
  O25      1.0000 0.67262  0.21899  0.55478  Biso   1.000  O
  H34      1.0000 0.18699  0.77899  0.99599  Biso   1.000  H
  H35      1.0000 0.26499  0.77596  0.95299  Biso   1.000  H
  O26      1.0000 0.29869  0.85300  0.04980  Biso   1.000  O
  C30      1.0000 0.13722  0.13148  0.97372  Biso   1.000  C
  O27      1.0000 0.16471  0.32697  0.92908  Biso   1.000  O
  H36      1.0000 0.24961  0.23001  0.00101  Biso   1.000  H
  C31      1.0000 0.61567  0.53999  0.52098  Biso   1.000  C
  O28      1.0000 0.07118  0.11790  0.91582  Biso   1.000  O
  H37      1.0000 0.11598  0.17299  0.01601  Biso   1.000  H
  H38      1.0000 0.57797  0.46901  0.49298  Biso   1.000  H
  C32      1.0000 0.58040  0.66670  0.49528  Biso   1.000  C
  O29      1.0000 0.61298  0.52254  0.59020  Biso   1.000  O
  C33      1.0000 0.99369  0.15949  0.92068  Biso   1.000  C
  H39      1.0000 0.51599  0.66596  0.49252  Biso   1.000  H
  C34      1.0000 0.61667  0.76990  0.54249  Biso   1.000  C
  O30      1.0000 0.59418  0.69103  0.42919  Biso   1.000  O
  C35      1.0000 0.65750  0.61353  0.63541  Biso   1.000  C
  C36      1.0000 0.95161  0.23267  0.85612  Biso   1.000  C
  C37      1.0000 0.93822  0.05610  0.93108  Biso   1.000  C
  H40      1.0000 0.00102  0.22496  0.96599  Biso   1.000  H
  H41      1.0000 0.68352  0.78000  0.54489  Biso   1.000  H
  C38      1.0000 0.61373  0.73483  0.61662  Biso   1.000  C
  O31      1.0000 0.57771  0.88100  0.52319  Biso   1.000  O
  H42      1.0000 0.71697  0.62299  0.63198  Biso   1.000  H
  C39      1.0000 0.66841  0.57001  0.70878  Biso   1.000  C
  C40      1.0000 0.86631  0.27160  0.86078  Biso   1.000  C
  H43      1.0000 0.94597  0.17400  0.80999  Biso   1.000  H
  O32      1.0000 0.00132  0.34203  0.85080  Biso   1.000  O
  H44      1.0000 0.92738  0.99596  0.88612  Biso   1.000  H
  C41      1.0000 0.96878  0.97705  0.99210  Biso   1.000  C
  O33      1.0000 0.86272  0.10578  0.93471  Biso   1.000  O
  H45      1.0000 0.54997  0.72702  0.61539  Biso   1.000  H
  O34      1.0000 0.65111  0.83537  0.66111  Biso   1.000  O
  H46      1.0000 0.70701  0.48499  0.71702  Biso   1.000  H
  H47      1.0000 0.70503  0.64402  0.74682  Biso   1.000  H
  O35      1.0000 0.59449  0.55101  0.72378  Biso   1.000  O
  C42      1.0000 0.81653  0.16582  0.87501  Biso   1.000  C
  H48      1.0000 0.87299  0.33799  0.90399  Biso   1.000  H
  O36      1.0000 0.82142  0.34203  0.80641  Biso   1.000  O
  H49      1.0000 0.02600  0.93003  0.99000  Biso   1.000  H
  H50      1.0000 0.92602  0.90901  0.99599  Biso   1.000  H
  O37      1.0000 0.98658  0.03103  0.05451  Biso   1.000  O
  C43      1.0000 0.60417  0.88174  0.70258  Biso   1.000  C
  O38      1.0000 0.80079  0.08704  0.82018  Biso   1.000  O
  H51      1.0000 0.75959  0.20099  0.88602  Biso   1.000  H
  H52      1.0000 0.53871  0.85199  0.68692  Biso   1.000  H
  O39      1.0000 0.63568  0.85520  0.77349  Biso   1.000  O
  C44      1.0000 0.60303  0.02286  0.69280  Biso   1.000  C
  C45      1.0000 0.71648  0.03664  0.79699  Biso   1.000  C
  C46      1.0000 0.71618  0.89588  0.80042  Biso   1.000  C
  H53      1.0000 0.55670  0.06097  0.71912  Biso   1.000  H
  C47      1.0000 0.68497  0.07832  0.72398  Biso   1.000  C
  O40      1.0000 0.57388  0.05399  0.62128  Biso   1.000  O
  H54      1.0000 0.68210  0.06896  0.83052  Biso   1.000  H
  H55      1.0000 0.75877  0.85704  0.77201  Biso   1.000  H
  C48      1.0000 0.74441  0.84850  0.87240  Biso   1.000  C
  H56      1.0000 0.73103  0.04701  0.69531  Biso   1.000  H
  O41      1.0000 0.68020  0.21100  0.71948  Biso   1.000  O
  H57      1.0000 0.79499  0.89799  0.90092  Biso   1.000  H
  H58      1.0000 0.69799  0.86503  0.90031  Biso   1.000  H
  O42      1.0000 0.76078  0.71903  0.87670  Biso   1.000  O
  O43      1.0000 0.58132  0.21302  0.37620  Biso   1.000  O
  C49      1.0000 0.60281  0.09696  0.35679  Biso   1.000  C
  C50      1.0000 0.59713  0.09265  0.28102  Biso   1.000  C
  H59      1.0000 0.55801  0.02901  0.36842  Biso   1.000  H
  C51      1.0000 0.68800  0.05298  0.40241  Biso   1.000  C
  H60      1.0000 0.54000  0.09503  0.25599  Biso   1.000  H
  O44      1.0000 0.64388  0.19199  0.26618  Biso   1.000  O
  O45      1.0000 0.63181  0.98797  0.29418  Biso   1.000  O
  H61      1.0000 0.73102  0.12800  0.40451  Biso   1.000  H
  O46      1.0000 0.68208  0.03103  0.47020  Biso   1.000  O
  C52      1.0000 0.72187  0.93857  0.37738  Biso   1.000  C
  C53      1.0000 0.60069  0.27399  0.21078  Biso   1.000  C
  C54      1.0000 0.71972  0.95997  0.30191  Biso   1.000  C
  H62      1.0000 0.68001  0.86301  0.38301  Biso   1.000  H
  O47      1.0000 0.79992  0.92296  0.41849  Biso   1.000  O
  C55      1.0000 0.62450  0.39804  0.23351  Biso   1.000  C
  H63      1.0000 0.53503  0.27004  0.20402  Biso   1.000  H
  C56      1.0000 0.62181  0.24598  0.14412  Biso   1.000  C
  H64      1.0000 0.75599  0.04104  0.29730  Biso   1.000  H
  C57      1.0000 0.74940  0.85897  0.26582  Biso   1.000  C
  C58      1.0000 0.82051  0.80397  0.44398  Biso   1.000  C
  C59      1.0000 0.59070  0.49702  0.17561  Biso   1.000  C
  H65      1.0000 0.69201  0.40602  0.25102  Biso   1.000  H
  O48      1.0000 0.59381  0.42503  0.29280  Biso   1.000  O
  H66      1.0000 0.68899  0.24203  0.15369  Biso   1.000  H
  C60      1.0000 0.58529  0.12203  0.11079  Biso   1.000  C
  O49      1.0000 0.58962  0.34001  0.09349  Biso   1.000  O
  H67      1.0000 0.71400  0.78496  0.25112  Biso   1.000  H
  H68      1.0000 0.81900  0.84997  0.29500  Biso   1.000  H
  O50      1.0000 0.74698  0.88201  0.19388  Biso   1.000  O
  O51      1.0000 0.75302  0.72601  0.29899  Biso   1.000  O
  O52      1.0000 0.81299  0.90102  0.23699  Biso   1.000  O
  H69      1.0000 0.76300  0.74897  0.45202  Biso   1.000  H
  C61      1.0000 0.86021  0.81195  0.51499  Biso   1.000  C
  O53      1.0000 0.87301  0.74098  0.41700  Biso   1.000  O
  H70      1.0000 0.77799  0.73896  0.40600  Biso   1.000  H
  C62      1.0000 0.61401  0.45799  0.11141  Biso   1.000  C
  H71      1.0000 0.52301  0.49500  0.16629  Biso   1.000  H
  O54      1.0000 0.61800  0.61601  0.19680  Biso   1.000  O
  H72      1.0000 0.60300  0.11404  0.06400  Biso   1.000  H
  H73      1.0000 0.60198  0.05004  0.14202  Biso   1.000  H
  O55      1.0000 0.49751  0.12699  0.09108  Biso   1.000  O
  H74      1.0000 0.86603  0.71398  0.52800  Biso   1.000  H
  C63      1.0000 0.94712  0.87301  0.53588  Biso   1.000  C
  O56      1.0000 0.81100  0.86897  0.55068  Biso   1.000  O
  H75      1.0000 0.86700  0.78000  0.56901  Biso   1.000  H
  C64      1.0000 0.95203  0.79598  0.42601  Biso   1.000  C
  H76      1.0000 0.58001  0.51501  0.06999  Biso   1.000  H
  O57      1.0000 0.70021  0.46304  0.12088  Biso   1.000  O
  H77      1.0000 0.94400  0.96603  0.51899  Biso   1.000  H
  C65      1.0000 0.99591  0.79800  0.49902  Biso   1.000  C
  O58      1.0000 0.98598  0.86099  0.60418  Biso   1.000  O
  H78      1.0000 0.94399  0.88596  0.39898  Biso   1.000  H
  C66      1.0000 0.98799  0.70003  0.38598  Biso   1.000  C
  C67      1.0000 0.72830  0.52888  0.06978  Biso   1.000  C
  H79      1.0000 0.00602  0.70802  0.51100  Biso   1.000  H
  O59      1.0000 0.07409  0.86099  0.50762  Biso   1.000  O
  H80      1.0000 0.97398  0.61197  0.40999  Biso   1.000  H
  O60      1.0000 0.95500  0.69599  0.31200  Biso   1.000  O
  H81      1.0000 0.04899  0.70398  0.39601  Biso   1.000  H
  C68      1.0000 0.76100  0.65201  0.09712  Biso   1.000  C
  H82      1.0000 0.67292  0.53999  0.02299  Biso   1.000  H
  C69      1.0000 0.79452  0.45056  0.04961  Biso   1.000  C
  C70      1.0000 0.14640  0.79396  0.54228  Biso   1.000  C
  C71      1.0000 0.80038  0.71316  0.04449  Biso   1.000  C
  H83      1.0000 0.80998  0.63401  0.14392  Biso   1.000  H
  O61      1.0000 0.69692  0.73299  0.11202  Biso   1.000  O
  H84      1.0000 0.84399  0.43201  0.09799  Biso   1.000  H
  C72      1.0000 0.76120  0.33404  0.01551  Biso   1.000  C
  O62      1.0000 0.82602  0.51804  0.00169  Biso   1.000  O
  H85      1.0000 0.12799  0.71105  0.56701  Biso   1.000  H
  C73      1.0000 0.20051  0.87503  0.59911  Biso   1.000  C
  O63      1.0000 0.18909  0.75301  0.49610  Biso   1.000  O
  C74      1.0000 0.86279  0.63153  0.02632  Biso   1.000  C
  O64      1.0000 0.83528  0.82701  0.07091  Biso   1.000  O
  H86      1.0000 0.75038  0.72996  0.99898  Biso   1.000  H
  H87      1.0000 0.81301  0.27904  0.00399  Biso   1.000  H
  H88      1.0000 0.73500  0.27601  0.04700  Biso   1.000  H
  O65      1.0000 0.70131  0.35304  0.95018  Biso   1.000  O
  H89      1.0000 0.24999  0.82003  0.62599  Biso   1.000  H
  C75      1.0000 0.23472  0.98200  0.56619  Biso   1.000  C
  O66      1.0000 0.15000  0.92104  0.63802  Biso   1.000  O
  C76      1.0000 0.21883  0.85070  0.46211  Biso   1.000  C
  O67      1.0000 0.92883  0.61794  0.08422  Biso   1.000  O
  H90      1.0000 0.88401  0.67303  0.98398  Biso   1.000  H
  C77      1.0000 0.27651  0.92994  0.51290  Biso   1.000  C
  H91      1.0000 0.18300  0.04196  0.53839  Biso   1.000  H
  O68      1.0000 0.28923  0.04802  0.61800  Biso   1.000  O
  H92      1.0000 0.16202  0.90800  0.43451  Biso   1.000  H
  C78      1.0000 0.25650  0.79001  0.40779  Biso   1.000  C
  C79      1.0000 0.00630  0.65954  0.07930  Biso   1.000  C
  H93      1.0000 0.32901  0.87898  0.54151  Biso   1.000  H
  O69      1.0000 0.30211  0.03498  0.48371  Biso   1.000  O
  H94      1.0000 0.20798  0.72996  0.37599  Biso   1.000  H
  H95      1.0000 0.27698  0.85897  0.37809  Biso   1.000  H
  O70      1.0000 0.32743  0.71903  0.44521  Biso   1.000  O
  H96      1.0000 0.99903  0.72500  0.03400  Biso   1.000  H
  C80      1.0000 0.04840  0.73272  0.14392  Biso   1.000  C
  C81      1.0000 0.06183  0.55606  0.06891  Biso   1.000  C
  C82      1.0000 0.38432  0.04003  0.47900  Biso   1.000  C
  O71      1.0000 0.99867  0.84198  0.14919  Biso   1.000  O
  C83      1.0000 0.13368  0.77155  0.13921  Biso   1.000  C
  H97      1.0000 0.05402  0.67404  0.18999  Biso   1.000  H
  H98      1.0000 0.07262  0.49601  0.11391  Biso   1.000  H
  C84      1.0000 0.03121  0.47700  0.00788  Biso   1.000  C
  O72      1.0000 0.13728  0.60582  0.06528  Biso   1.000  O
  H99      1.0000 0.42202  0.96897  0.50701  Biso   1.000  H
  C85      1.0000 0.41959  0.16674  0.50470  Biso   1.000  C
  O73      1.0000 0.38701  0.02250  0.40978  Biso   1.000  O
  C86      1.0000 0.18348  0.66578  0.12502  Biso   1.000  C
  H100     1.0000 0.12700  0.83803  0.09600  Biso   1.000  H
  O74      1.0000 0.17857  0.84198  0.19358  Biso   1.000  O
  H101     1.0000 0.97399  0.42999  0.00998  Biso   1.000  H
  O75      1.0000 0.01341  0.53099  0.94547  Biso   1.000  O
  H102     1.0000 0.07403  0.40896  0.00399  Biso   1.000  H
  H103     1.0000 0.48402  0.16601  0.50752  Biso   1.000  H
  C87      1.0000 0.38332  0.26986  0.45750  Biso   1.000  C
  O76      1.0000 0.40581  0.19098  0.57080  Biso   1.000  O
  C88      1.0000 0.34249  0.11349  0.36458  Biso   1.000  C
  H104     1.0000 0.24042  0.70104  0.11402  Biso   1.000  H
  O77      1.0000 0.19920  0.58700  0.17981  Biso   1.000  O
  H105     1.0000 0.31648  0.27996  0.45509  Biso   1.000  H
  C89      1.0000 0.38628  0.23478  0.38342  Biso   1.000  C
  O78      1.0000 0.42228  0.38096  0.47680  Biso   1.000  O
  H106     1.0000 0.28302  0.12304  0.36801  Biso   1.000  H
  C90      1.0000 0.33158  0.06997  0.29121  Biso   1.000  C
  C91      1.0000 0.28352  0.53659  0.20300  Biso   1.000  C
  H107     1.0000 0.45002  0.22698  0.38459  Biso   1.000  H
  O79      1.0000 0.34888  0.33541  0.33888  Biso   1.000  O
  H108     1.0000 0.29300  0.98503  0.28302  Biso   1.000  H
  H109     1.0000 0.29498  0.14397  0.25322  Biso   1.000  H
  O80      1.0000 0.40551  0.05096  0.27621  Biso   1.000  O
  C92      1.0000 0.31502  0.57828  0.27601  Biso   1.000  C
  H110     1.0000 0.31791  0.56900  0.16951  Biso   1.000  H
  C93      1.0000 0.28383  0.39592  0.19962  Biso   1.000  C
  C94      1.0000 0.39582  0.38169  0.29741  Biso   1.000  C
  C95      1.0000 0.39702  0.52291  0.30718  Biso   1.000  C
  H111     1.0000 0.26902  0.54697  0.30468  Biso   1.000  H
  O81      1.0000 0.31980  0.71105  0.28051  Biso   1.000  O
  H112     1.0000 0.24122  0.35699  0.22798  Biso   1.000  H
  C96      1.0000 0.25558  0.34854  0.12758  Biso   1.000  C
  O82      1.0000 0.36431  0.35516  0.22650  Biso   1.000  O
  H113     1.0000 0.46130  0.35203  0.31312  Biso   1.000  H
  H114     1.0000 0.44330  0.56101  0.28092  Biso   1.000  H
  O83      1.0000 0.42612  0.55404  0.37871  Biso   1.000  O
  H115     1.0000 0.20502  0.39804  0.09912  Biso   1.000  H
  H116     1.0000 0.30200  0.36498  0.09968  Biso   1.000  H
  O84      1.0000 0.23921  0.21899  0.12328  Biso   1.000  O
