data_image0
_cell_length_a       17.534
_cell_length_b       16.05
_cell_length_c       10.239
_cell_angle_alpha    90
_cell_angle_beta     112.59
_cell_angle_gamma    90

_symmetry_space_group_name_H-M    "P 1"
_symmetry_int_tables_number       1

loop_
  _symmetry_equiv_pos_as_xyz
  'x, y, z'

loop_
  _atom_site_label
  _atom_site_occupancy
  _atom_site_fract_x
  _atom_site_fract_y
  _atom_site_fract_z
  _atom_site_thermal_displace_type
  _atom_site_B_iso_or_equiv
  _atom_site_type_symbol
  O1       1.0000 0.51412  0.37801  0.52161  Biso   1.000  O
  C1       1.0000 0.43762  0.39371  0.40789  Biso   1.000  C
  C2       1.0000 0.57618  0.35670  0.47284  Biso   1.000  C
  C3       1.0000 0.37090  0.40262  0.45698  Biso   1.000  C
  H1       1.0000 0.44197  0.44100  0.35405  Biso   1.000  H
  H2       1.0000 0.42323  0.34598  0.34654  Biso   1.000  H
  C4       1.0000 0.65182  0.32860  0.59344  Biso   1.000  C
  H3       1.0000 0.58841  0.40349  0.42567  Biso   1.000  H
  H4       1.0000 0.55723  0.31171  0.40641  Biso   1.000  H
  O2       1.0000 0.34282  0.33090  0.50215  Biso   1.000  O
  H5       1.0000 0.32560  0.43121  0.38674  Biso   1.000  H
  H6       1.0000 0.39292  0.43838  0.53811  Biso   1.000  H
  N1       1.0000 0.63961  0.25109  0.65796  Biso   1.000  N
  H7       1.0000 0.66680  0.37202  0.66325  Biso   1.000  H
  H8       1.0000 0.69659  0.32137  0.56265  Biso   1.000  H
  C5       1.0000 0.39109  0.30293  0.63903  Biso   1.000  C
  C6       1.0000 0.63462  0.18137  0.58106  Biso   1.000  C
  C7       1.0000 0.66459  0.25171  0.81156  Biso   1.000  C
  C8       1.0000 0.33539  0.25171  0.68843  Biso   1.000  C
  H9       1.0000 0.41311  0.34897  0.70186  Biso   1.000  H
  H10      1.0000 0.43603  0.26928  0.63723  Biso   1.000  H
  C9       1.0000 0.61809  0.09919  0.63120  Biso   1.000  C
  O3       1.0000 0.64082  0.18417  0.46681  Biso   1.000  O
  C10      1.0000 0.60889  0.30293  0.86096  Biso   1.000  C
  H11      1.0000 0.66570  0.19539  0.84371  Biso   1.000  H
  H12      1.0000 0.71952  0.27408  0.85482  Biso   1.000  H
  N2       1.0000 0.36043  0.25109  0.84202  Biso   1.000  N
  H13      1.0000 0.33428  0.19539  0.65627  Biso   1.000  H
  H14      1.0000 0.28051  0.27408  0.64516  Biso   1.000  H
  N3       1.0000 0.56161  0.08723  0.68832  Biso   1.000  N
  C11      1.0000 0.64937  0.02243  0.60486  Biso   1.000  C
  O4       1.0000 0.65718  0.33090  0.99794  Biso   1.000  O
  H15      1.0000 0.58692  0.34897  0.79812  Biso   1.000  H
  H16      1.0000 0.56401  0.26928  0.86276  Biso   1.000  H
  C12      1.0000 0.36542  0.18137  0.91893  Biso   1.000  C
  C13      1.0000 0.34821  0.32860  0.90655  Biso   1.000  C
  C14      1.0000 0.55354  0.00137  0.69784  Biso   1.000  C
  H17      1.0000 0.53418  0.12679  0.71477  Biso   1.000  H
  C15      1.0000 0.60819  0.96100  0.64580  Biso   1.000  C
  C16      1.0000 0.71418  0.01053  0.54499  Biso   1.000  C
  C17      1.0000 0.62908  0.40262  0.04301  Biso   1.000  C
  C18      1.0000 0.38189  0.09919  0.86878  Biso   1.000  C
  O5       1.0000 0.35917  0.18417  0.03317  Biso   1.000  O
  H18      1.0000 0.33318  0.37202  0.83673  Biso   1.000  H
  H19      1.0000 0.30342  0.32137  0.93744  Biso   1.000  H
  C19      1.0000 0.42382  0.35670  0.02725  Biso   1.000  C
  C20      1.0000 0.49999  0.96411  0.74999  Biso   1.000  C
  C21      1.0000 0.61652  0.86860  0.63511  Biso   1.000  C
  H20      1.0000 0.76483  0.03607  0.60602  Biso   1.000  H
  H21      1.0000 0.69649  0.03502  0.45264  Biso   1.000  H
  H22      1.0000 0.72292  0.95178  0.53843  Biso   1.000  H
  C22      1.0000 0.56241  0.39371  0.09209  Biso   1.000  C
  H23      1.0000 0.60712  0.43838  0.96187  Biso   1.000  H
  H24      1.0000 0.67440  0.43121  0.11335  Biso   1.000  H
  C23      1.0000 0.35061  0.02243  0.89512  Biso   1.000  C
  N4       1.0000 0.43837  0.08723  0.81166  Biso   1.000  N
  O6       1.0000 0.48592  0.37801  0.97837  Biso   1.000  O
  H25      1.0000 0.41163  0.40349  0.07432  Biso   1.000  H
  H26      1.0000 0.44281  0.31171  0.09357  Biso   1.000  H
  C24      1.0000 0.44652  0.00137  0.80225  Biso   1.000  C
  H27      1.0000 0.49999  0.90430  0.74999  Biso   1.000  H
  H28      1.0000 0.65822  0.85738  0.59830  Biso   1.000  H
  H29      1.0000 0.56479  0.84561  0.57260  Biso   1.000  H
  H30      1.0000 0.63212  0.84380  0.72704  Biso   1.000  H
  H31      1.0000 0.55801  0.44100  0.14593  Biso   1.000  H
  H32      1.0000 0.57683  0.34598  0.15355  Biso   1.000  H
  C25      1.0000 0.28580  0.01053  0.95500  Biso   1.000  C
  C26      1.0000 0.39179  0.96100  0.85419  Biso   1.000  C
  H33      1.0000 0.46580  0.12679  0.78522  Biso   1.000  H
  H34      1.0000 0.23520  0.03607  0.89396  Biso   1.000  H
  H35      1.0000 0.27712  0.95178  0.96156  Biso   1.000  H
  H36      1.0000 0.30351  0.03502  0.04745  Biso   1.000  H
  C27      1.0000 0.38352  0.86860  0.86487  Biso   1.000  C
  H37      1.0000 0.34182  0.85738  0.90168  Biso   1.000  H
  H38      1.0000 0.43519  0.84561  0.92739  Biso   1.000  H
  H39      1.0000 0.36789  0.84380  0.77305  Biso   1.000  H
  O7       1.0000 0.48590  0.62199  0.47845  Biso   1.000  O
  C28      1.0000 0.42378  0.64330  0.52722  Biso   1.000  C
  C29      1.0000 0.56237  0.60629  0.59206  Biso   1.000  C
  C30      1.0000 0.34820  0.67140  0.40662  Biso   1.000  C
  H40      1.0000 0.41159  0.59651  0.57429  Biso   1.000  H
  H41      1.0000 0.44279  0.68829  0.59365  Biso   1.000  H
  C31      1.0000 0.62910  0.59738  0.54298  Biso   1.000  C
  H42      1.0000 0.55803  0.55900  0.64590  Biso   1.000  H
  H43      1.0000 0.57679  0.65402  0.65352  Biso   1.000  H
  N5       1.0000 0.36039  0.74891  0.34199  Biso   1.000  N
  H44      1.0000 0.33320  0.62798  0.33670  Biso   1.000  H
  H45      1.0000 0.30338  0.67863  0.43741  Biso   1.000  H
  O8       1.0000 0.65720  0.66910  0.49791  Biso   1.000  O
  H46      1.0000 0.67442  0.56879  0.61332  Biso   1.000  H
  H47      1.0000 0.60710  0.56162  0.46195  Biso   1.000  H
  C32      1.0000 0.36538  0.81863  0.41890  Biso   1.000  C
  C33      1.0000 0.33541  0.74829  0.18840  Biso   1.000  C
  C34      1.0000 0.60893  0.69707  0.36103  Biso   1.000  C
  C35      1.0000 0.38191  0.90081  0.36875  Biso   1.000  C
  O9       1.0000 0.35921  0.81583  0.53325  Biso   1.000  O
  C36      1.0000 0.39111  0.69707  0.13900  Biso   1.000  C
  H48      1.0000 0.33432  0.80461  0.15635  Biso   1.000  H
  H49      1.0000 0.28050  0.72592  0.14524  Biso   1.000  H
  C37      1.0000 0.66463  0.74829  0.31163  Biso   1.000  C
  H50      1.0000 0.58689  0.65103  0.29809  Biso   1.000  H
  H51      1.0000 0.56399  0.73072  0.36283  Biso   1.000  H
  N6       1.0000 0.43841  0.91277  0.31174  Biso   1.000  N
  C38      1.0000 0.35057  0.97757  0.39509  Biso   1.000  C
  O10      1.0000 0.34278  0.66910  0.00212  Biso   1.000  O
  H52      1.0000 0.41310  0.65103  0.20194  Biso   1.000  H
  H53      1.0000 0.43599  0.73072  0.13720  Biso   1.000  H
  N7       1.0000 0.63959  0.74891  0.15804  Biso   1.000  N
  H54      1.0000 0.66572  0.80461  0.34368  Biso   1.000  H
  H55      1.0000 0.71948  0.72592  0.35479  Biso   1.000  H
  C39      1.0000 0.44649  0.99863  0.30222  Biso   1.000  C
  H56      1.0000 0.46582  0.87321  0.28519  Biso   1.000  H
  C40      1.0000 0.28581  0.98947  0.45497  Biso   1.000  C
  C41      1.0000 0.39181  0.03900  0.35416  Biso   1.000  C
  C42      1.0000 0.37088  0.59738  0.95705  Biso   1.000  C
  C43      1.0000 0.63460  0.81863  0.08113  Biso   1.000  C
  C44      1.0000 0.65178  0.67140  0.09341  Biso   1.000  C
  C45      1.0000 0.50001  0.03589  0.24996  Biso   1.000  C
  H57      1.0000 0.23519  0.96393  0.39404  Biso   1.000  H
  H58      1.0000 0.30353  0.96498  0.54742  Biso   1.000  H
  H59      1.0000 0.27710  0.04822  0.46163  Biso   1.000  H
  C46      1.0000 0.38351  0.13140  0.36495  Biso   1.000  C
  H60      1.0000 0.39288  0.56162  0.03808  Biso   1.000  H
  C47      1.0000 0.43759  0.60629  0.90786  Biso   1.000  C
  H61      1.0000 0.32562  0.56879  0.88671  Biso   1.000  H
  C48      1.0000 0.61811  0.90081  0.13117  Biso   1.000  C
  O11      1.0000 0.64078  0.81583  0.96678  Biso   1.000  O
  C49      1.0000 0.57620  0.64330  0.97281  Biso   1.000  C
  H62      1.0000 0.66678  0.62798  0.16333  Biso   1.000  H
  H63      1.0000 0.69661  0.67863  0.06262  Biso   1.000  H
  C50      1.0000 0.55350  0.99863  0.19781  Biso   1.000  C
  H64      1.0000 0.50001  0.09570  0.24996  Biso   1.000  H
  H65      1.0000 0.34178  0.14262  0.40165  Biso   1.000  H
  H66      1.0000 0.43520  0.15439  0.42736  Biso   1.000  H
  H67      1.0000 0.36790  0.15620  0.27302  Biso   1.000  H
  O12      1.0000 0.51408  0.62199  0.02158  Biso   1.000  O
  H68      1.0000 0.44201  0.55900  0.85413  Biso   1.000  H
  H69      1.0000 0.42320  0.65402  0.84651  Biso   1.000  H
  N8       1.0000 0.56157  0.91277  0.18829  Biso   1.000  N
  C51      1.0000 0.64941  0.97757  0.10494  Biso   1.000  C
  H70      1.0000 0.58840  0.59651  0.92574  Biso   1.000  H
  H71      1.0000 0.55719  0.68829  0.90638  Biso   1.000  H
  C52      1.0000 0.60821  0.03900  0.14577  Biso   1.000  C
  H72      1.0000 0.53422  0.87321  0.21484  Biso   1.000  H
  C53      1.0000 0.71420  0.98947  0.04496  Biso   1.000  C
  C54      1.0000 0.61648  0.13140  0.13508  Biso   1.000  C
  H73      1.0000 0.76479  0.96393  0.10599  Biso   1.000  H
  H74      1.0000 0.69651  0.96498  0.95261  Biso   1.000  H
  H75      1.0000 0.72288  0.04822  0.03840  Biso   1.000  H
  H76      1.0000 0.65818  0.14262  0.09827  Biso   1.000  H
  H77      1.0000 0.56481  0.15439  0.07257  Biso   1.000  H
  H78      1.0000 0.63208  0.15620  0.22701  Biso   1.000  H
  C55      1.0000 0.78581  0.48947  0.45497  Biso   1.000  C
  C56      1.0000 0.85057  0.47757  0.39509  Biso   1.000  C
  H79      1.0000 0.77710  0.54822  0.46163  Biso   1.000  H
  H80      1.0000 0.73519  0.46393  0.39404  Biso   1.000  H
  H81      1.0000 0.80353  0.46498  0.54742  Biso   1.000  H
  C57      1.0000 0.89181  0.53900  0.35416  Biso   1.000  C
  C58      1.0000 0.88191  0.40081  0.36875  Biso   1.000  C
  C59      1.0000 0.94649  0.49863  0.30222  Biso   1.000  C
  C60      1.0000 0.88351  0.63140  0.36495  Biso   1.000  C
  N9       1.0000 0.93841  0.41277  0.31174  Biso   1.000  N
  C61      1.0000 0.86538  0.31863  0.41890  Biso   1.000  C
  C62      1.0000 0.00001  0.53589  0.24996  Biso   1.000  C
  H82      1.0000 0.84178  0.64262  0.40165  Biso   1.000  H
  H83      1.0000 0.93520  0.65439  0.42736  Biso   1.000  H
  H84      1.0000 0.86790  0.65620  0.27302  Biso   1.000  H
  H85      1.0000 0.96582  0.37321  0.28519  Biso   1.000  H
  N10      1.0000 0.86039  0.24891  0.34199  Biso   1.000  N
  O13      1.0000 0.85921  0.31583  0.53325  Biso   1.000  O
  C63      1.0000 0.05350  0.49863  0.19781  Biso   1.000  C
  H86      1.0000 0.00001  0.59570  0.24996  Biso   1.000  H
  C64      1.0000 0.84820  0.17140  0.40662  Biso   1.000  C
  C65      1.0000 0.83541  0.24829  0.18840  Biso   1.000  C
  C66      1.0000 0.10821  0.53900  0.14577  Biso   1.000  C
  N11      1.0000 0.06157  0.41277  0.18829  Biso   1.000  N
  C67      1.0000 0.92378  0.14330  0.52722  Biso   1.000  C
  H87      1.0000 0.83320  0.12798  0.33670  Biso   1.000  H
  H88      1.0000 0.80338  0.17863  0.43741  Biso   1.000  H
  C68      1.0000 0.89111  0.19707  0.13900  Biso   1.000  C
  H89      1.0000 0.83432  0.30461  0.15635  Biso   1.000  H
  H90      1.0000 0.78050  0.22592  0.14524  Biso   1.000  H
  C69      1.0000 0.14941  0.47757  0.10494  Biso   1.000  C
  C70      1.0000 0.11648  0.63140  0.13508  Biso   1.000  C
  C71      1.0000 0.11811  0.40081  0.13117  Biso   1.000  C
  H91      1.0000 0.03422  0.37321  0.21484  Biso   1.000  H
  O14      1.0000 0.98590  0.12199  0.47845  Biso   1.000  O
  H92      1.0000 0.91159  0.09651  0.57429  Biso   1.000  H
  H93      1.0000 0.94279  0.18829  0.59365  Biso   1.000  H
  O15      1.0000 0.84278  0.16910  0.00212  Biso   1.000  O
  H94      1.0000 0.91310  0.15103  0.20194  Biso   1.000  H
  H95      1.0000 0.93599  0.23072  0.13720  Biso   1.000  H
  C72      1.0000 0.21420  0.48947  0.04496  Biso   1.000  C
  H96      1.0000 0.15818  0.64262  0.09827  Biso   1.000  H
  H97      1.0000 0.06481  0.65439  0.07257  Biso   1.000  H
  H98      1.0000 0.13208  0.65620  0.22701  Biso   1.000  H
  C73      1.0000 0.13460  0.31863  0.08113  Biso   1.000  C
  C74      1.0000 0.06237  0.10629  0.59206  Biso   1.000  C
  C75      1.0000 0.87088  0.09738  0.95705  Biso   1.000  C
  H99      1.0000 0.19651  0.46498  0.95261  Biso   1.000  H
  H100     1.0000 0.22288  0.54822  0.03840  Biso   1.000  H
  H101     1.0000 0.26479  0.46393  0.10599  Biso   1.000  H
  O16      1.0000 0.14078  0.31583  0.96678  Biso   1.000  O
  N12      1.0000 0.13959  0.24891  0.15804  Biso   1.000  N
  C76      1.0000 0.12910  0.09738  0.54298  Biso   1.000  C
  H102     1.0000 0.05803  0.05900  0.64590  Biso   1.000  H
  H103     1.0000 0.07679  0.15402  0.65352  Biso   1.000  H
  H104     1.0000 0.89288  0.06162  0.03808  Biso   1.000  H
  C77      1.0000 0.93759  0.10629  0.90786  Biso   1.000  C
  H105     1.0000 0.82562  0.06879  0.88671  Biso   1.000  H
  C78      1.0000 0.16463  0.24829  0.31163  Biso   1.000  C
  C79      1.0000 0.15178  0.17140  0.09341  Biso   1.000  C
  O17      1.0000 0.15720  0.16910  0.49791  Biso   1.000  O
  H106     1.0000 0.17442  0.06879  0.61332  Biso   1.000  H
  H107     1.0000 0.10710  0.06162  0.46195  Biso   1.000  H
  H108     1.0000 0.94201  0.05900  0.85413  Biso   1.000  H
  H109     1.0000 0.92320  0.15402  0.84651  Biso   1.000  H
  O18      1.0000 0.01408  0.12199  0.02158  Biso   1.000  O
  C80      1.0000 0.10893  0.19707  0.36103  Biso   1.000  C
  H110     1.0000 0.16572  0.30461  0.34368  Biso   1.000  H
  H111     1.0000 0.21948  0.22592  0.35479  Biso   1.000  H
  C81      1.0000 0.07620  0.14330  0.97281  Biso   1.000  C
  H112     1.0000 0.16678  0.12798  0.16333  Biso   1.000  H
  H113     1.0000 0.19661  0.17863  0.06262  Biso   1.000  H
  H114     1.0000 0.08689  0.15103  0.29809  Biso   1.000  H
  H115     1.0000 0.06399  0.23072  0.36283  Biso   1.000  H
  H116     1.0000 0.08840  0.09651  0.92574  Biso   1.000  H
  H117     1.0000 0.05719  0.18829  0.90638  Biso   1.000  H
  C82      1.0000 0.21418  0.51053  0.54499  Biso   1.000  C
  C83      1.0000 0.14937  0.52243  0.60486  Biso   1.000  C
  H118     1.0000 0.22292  0.45178  0.53843  Biso   1.000  H
  H119     1.0000 0.26483  0.53607  0.60602  Biso   1.000  H
  H120     1.0000 0.19649  0.53502  0.45264  Biso   1.000  H
  C84      1.0000 0.10819  0.46100  0.64580  Biso   1.000  C
  C85      1.0000 0.11809  0.59919  0.63120  Biso   1.000  C
  C86      1.0000 0.05354  0.50137  0.69784  Biso   1.000  C
  C87      1.0000 0.11652  0.36860  0.63511  Biso   1.000  C
  N13      1.0000 0.06161  0.58723  0.68832  Biso   1.000  N
  C88      1.0000 0.13462  0.68137  0.58106  Biso   1.000  C
  C89      1.0000 0.99999  0.46411  0.74999  Biso   1.000  C
  H121     1.0000 0.15822  0.35738  0.59830  Biso   1.000  H
  H122     1.0000 0.06479  0.34561  0.57260  Biso   1.000  H
  H123     1.0000 0.13212  0.34380  0.72704  Biso   1.000  H
  H124     1.0000 0.03418  0.62679  0.71477  Biso   1.000  H
  N14      1.0000 0.13961  0.75109  0.65796  Biso   1.000  N
  O19      1.0000 0.14082  0.68417  0.46681  Biso   1.000  O
  C90      1.0000 0.94652  0.50137  0.80225  Biso   1.000  C
  H125     1.0000 0.99999  0.40430  0.74999  Biso   1.000  H
  C91      1.0000 0.15182  0.82860  0.59344  Biso   1.000  C
  C92      1.0000 0.16459  0.75171  0.81156  Biso   1.000  C
  C93      1.0000 0.89179  0.46100  0.85419  Biso   1.000  C
  N15      1.0000 0.93837  0.58723  0.81166  Biso   1.000  N
  C94      1.0000 0.07618  0.85670  0.47284  Biso   1.000  C
  H126     1.0000 0.16680  0.87202  0.66325  Biso   1.000  H
  H127     1.0000 0.19659  0.82137  0.56265  Biso   1.000  H
  C95      1.0000 0.10889  0.80293  0.86096  Biso   1.000  C
  H128     1.0000 0.16570  0.69539  0.84371  Biso   1.000  H
  H129     1.0000 0.21952  0.77408  0.85482  Biso   1.000  H
  C96      1.0000 0.85061  0.52243  0.89512  Biso   1.000  C
  C97      1.0000 0.88352  0.36860  0.86487  Biso   1.000  C
  C98      1.0000 0.88189  0.59919  0.86878  Biso   1.000  C
  H130     1.0000 0.96580  0.62679  0.78522  Biso   1.000  H
  O20      1.0000 0.01412  0.87801  0.52161  Biso   1.000  O
  H131     1.0000 0.08841  0.90349  0.42567  Biso   1.000  H
  H132     1.0000 0.05723  0.81171  0.40641  Biso   1.000  H
  O21      1.0000 0.15718  0.83090  0.99794  Biso   1.000  O
  H133     1.0000 0.08692  0.84897  0.79812  Biso   1.000  H
  H134     1.0000 0.06401  0.76928  0.86276  Biso   1.000  H
  C99      1.0000 0.78580  0.51053  0.95500  Biso   1.000  C
  H135     1.0000 0.84182  0.35738  0.90168  Biso   1.000  H
  H136     1.0000 0.93519  0.34561  0.92739  Biso   1.000  H
  H137     1.0000 0.86789  0.34380  0.77305  Biso   1.000  H
  C100     1.0000 0.86542  0.68137  0.91893  Biso   1.000  C
  C101     1.0000 0.93762  0.89371  0.40789  Biso   1.000  C
  C102     1.0000 0.12908  0.90262  0.04301  Biso   1.000  C
  H138     1.0000 0.77712  0.45178  0.96156  Biso   1.000  H
  H139     1.0000 0.73520  0.53607  0.89396  Biso   1.000  H
  H140     1.0000 0.80351  0.53502  0.04745  Biso   1.000  H
  N16      1.0000 0.86043  0.75109  0.84202  Biso   1.000  N
  O22      1.0000 0.85917  0.68417  0.03317  Biso   1.000  O
  C103     1.0000 0.87090  0.90262  0.45698  Biso   1.000  C
  H141     1.0000 0.94197  0.94100  0.35405  Biso   1.000  H
  H142     1.0000 0.92323  0.84598  0.34654  Biso   1.000  H
  H143     1.0000 0.10712  0.93838  0.96187  Biso   1.000  H
  C104     1.0000 0.06241  0.89371  0.09209  Biso   1.000  C
  H144     1.0000 0.17440  0.93121  0.11335  Biso   1.000  H
  C105     1.0000 0.83539  0.75171  0.68843  Biso   1.000  C
  C106     1.0000 0.84821  0.82860  0.90655  Biso   1.000  C
  O23      1.0000 0.84282  0.83090  0.50215  Biso   1.000  O
  H145     1.0000 0.82560  0.93121  0.38674  Biso   1.000  H
  H146     1.0000 0.89292  0.93838  0.53811  Biso   1.000  H
  O24      1.0000 0.98592  0.87801  0.97837  Biso   1.000  O
  H147     1.0000 0.05801  0.94100  0.14593  Biso   1.000  H
  H148     1.0000 0.07683  0.84598  0.15355  Biso   1.000  H
  C107     1.0000 0.89109  0.80293  0.63903  Biso   1.000  C
  H149     1.0000 0.83428  0.69539  0.65627  Biso   1.000  H
  H150     1.0000 0.78051  0.77408  0.64516  Biso   1.000  H
  H151     1.0000 0.83318  0.87202  0.83673  Biso   1.000  H
  H152     1.0000 0.80342  0.82137  0.93744  Biso   1.000  H
  C108     1.0000 0.92382  0.85670  0.02725  Biso   1.000  C
  H153     1.0000 0.91311  0.84897  0.70186  Biso   1.000  H
  H154     1.0000 0.93603  0.76928  0.63723  Biso   1.000  H
  H155     1.0000 0.91163  0.90349  0.07432  Biso   1.000  H
  H156     1.0000 0.94281  0.81171  0.09357  Biso   1.000  H
