data_image0
_cell_length_a       13.351
_cell_length_b       13.351
_cell_length_c       34.765
_cell_angle_alpha    90
_cell_angle_beta     90
_cell_angle_gamma    120

_symmetry_space_group_name_H-M    "P 1"
_symmetry_int_tables_number       1

loop_
  _symmetry_equiv_pos_as_xyz
  'x, y, z'

loop_
  _atom_site_label
  _atom_site_occupancy
  _atom_site_fract_x
  _atom_site_fract_y
  _atom_site_fract_z
  _atom_site_thermal_displace_type
  _atom_site_B_iso_or_equiv
  _atom_site_type_symbol
  N1       1.0000 0.59457  0.47862  0.55754  Biso   1.000  N
  C1       1.0000 0.58256  0.43797  0.52395  Biso   1.000  C
  C2       1.0000 0.52938  0.39724  0.58852  Biso   1.000  C
  C3       1.0000 0.64044  0.51045  0.49052  Biso   1.000  C
  H1       1.0000 0.53068  0.35235  0.52032  Biso   1.000  H
  C4       1.0000 0.61515  0.40130  0.61852  Biso   1.000  C
  H2       1.0000 0.47562  0.41929  0.60035  Biso   1.000  H
  H3       1.0000 0.48371  0.31637  0.57733  Biso   1.000  H
  C5       1.0000 0.60733  0.46280  0.45523  Biso   1.000  C
  C6       1.0000 0.73308  0.63387  0.49714  Biso   1.000  C
  N2       1.0000 0.66670  0.33332  0.60685  Biso   1.000  N
  H4       1.0000 0.57368  0.37034  0.64332  Biso   1.000  H
  H5       1.0000 0.67764  0.48329  0.62232  Biso   1.000  H
  C7       1.0000 0.65198  0.51945  0.41944  Biso   1.000  C
  H6       1.0000 0.54470  0.37934  0.45434  Biso   1.000  H
  H7       1.0000 0.74362  0.65030  0.52533  Biso   1.000  H
  H8       1.0000 0.70967  0.68637  0.48434  Biso   1.000  H
  H9       1.0000 0.80769  0.64736  0.48534  Biso   1.000  H
  C8       1.0000 0.78617  0.38487  0.61852  Biso   1.000  C
  C9       1.0000 0.59862  0.21380  0.61852  Biso   1.000  C
  C10      1.0000 0.61191  0.46747  0.38473  Biso   1.000  C
  H10      1.0000 0.71663  0.60230  0.42034  Biso   1.000  H
  C11      1.0000 0.86787  0.47067  0.58852  Biso   1.000  C
  H11      1.0000 0.79663  0.42630  0.64332  Biso   1.000  H
  H12      1.0000 0.80569  0.32234  0.62232  Biso   1.000  H
  C12      1.0000 0.60274  0.13215  0.58852  Biso   1.000  C
  H13      1.0000 0.62964  0.20333  0.64332  Biso   1.000  H
  H14      1.0000 0.51669  0.19434  0.62232  Biso   1.000  H
  C13      1.0000 0.65185  0.51815  0.34693  Biso   1.000  C
  H15      1.0000 0.54768  0.38530  0.38533  Biso   1.000  H
  N3       1.0000 0.88410  0.40546  0.55754  Biso   1.000  N
  H16      1.0000 0.94371  0.52438  0.60035  Biso   1.000  H
  H17      1.0000 0.83266  0.51633  0.57733  Biso   1.000  H
  N4       1.0000 0.52136  0.11589  0.55754  Biso   1.000  N
  H18      1.0000 0.58062  0.05630  0.60035  Biso   1.000  H
  H19      1.0000 0.68371  0.16735  0.57733  Biso   1.000  H
  C14      1.0000 0.60084  0.45821  0.31523  Biso   1.000  C
  C15      1.0000 0.75348  0.63871  0.34535  Biso   1.000  C
  C16      1.0000 0.85531  0.41739  0.52395  Biso   1.000  C
  C17      1.0000 0.56208  0.14461  0.52395  Biso   1.000  C
  C18      1.0000 0.63456  0.49091  0.27634  Biso   1.000  C
  H20      1.0000 0.53064  0.38133  0.31934  Biso   1.000  H
  H21      1.0000 0.77868  0.66829  0.37233  Biso   1.000  H
  H22      1.0000 0.73166  0.69035  0.33134  Biso   1.000  H
  H23      1.0000 0.81870  0.63837  0.33134  Biso   1.000  H
  C19      1.0000 0.86998  0.35953  0.49052  Biso   1.000  C
  H24      1.0000 0.82168  0.46937  0.52032  Biso   1.000  H
  C20      1.0000 0.48953  0.12999  0.49052  Biso   1.000  C
  H25      1.0000 0.64770  0.17834  0.52032  Biso   1.000  H
  C21      1.0000 0.56690  0.43676  0.24525  Biso   1.000  C
  H26      1.0000 0.71363  0.55932  0.27134  Biso   1.000  H
  C22      1.0000 0.90073  0.26690  0.49714  Biso   1.000  C
  C23      1.0000 0.85545  0.39266  0.45523  Biso   1.000  C
  C24      1.0000 0.36613  0.09920  0.49714  Biso   1.000  C
  C25      1.0000 0.53717  0.14452  0.45523  Biso   1.000  C
  C26      1.0000 0.60467  0.46678  0.20664  Biso   1.000  C
  H27      1.0000 0.48667  0.37233  0.25034  Biso   1.000  H
  H28      1.0000 0.90669  0.25635  0.52533  Biso   1.000  H
  H29      1.0000 0.97664  0.29034  0.48434  Biso   1.000  H
  H30      1.0000 0.83964  0.19235  0.48534  Biso   1.000  H
  C27      1.0000 0.86744  0.34803  0.41944  Biso   1.000  C
  H31      1.0000 0.83468  0.45536  0.45434  Biso   1.000  H
  H32      1.0000 0.34963  0.09332  0.52533  Biso   1.000  H
  H33      1.0000 0.31368  0.02335  0.48434  Biso   1.000  H
  H34      1.0000 0.35266  0.16035  0.48534  Biso   1.000  H
  C28      1.0000 0.48053  0.13250  0.41944  Biso   1.000  C
  H35      1.0000 0.62069  0.16536  0.45434  Biso   1.000  H
  C29      1.0000 0.53808  0.42933  0.17414  Biso   1.000  C
  H36      1.0000 0.68866  0.52135  0.20233  Biso   1.000  H
  C30      1.0000 0.85560  0.38816  0.38473  Biso   1.000  C
  H37      1.0000 0.88566  0.28333  0.42034  Biso   1.000  H
  C31      1.0000 0.53256  0.14443  0.38473  Biso   1.000  C
  H38      1.0000 0.39767  0.11434  0.42034  Biso   1.000  H
  C32      1.0000 0.40961  0.35529  0.17564  Biso   1.000  C
  C33      1.0000 0.59035  0.45925  0.13623  Biso   1.000  C
  C34      1.0000 0.86629  0.34811  0.34693  Biso   1.000  C
  H39      1.0000 0.83766  0.45233  0.38533  Biso   1.000  H
  C35      1.0000 0.48188  0.13371  0.34693  Biso   1.000  C
  H40      1.0000 0.61469  0.16234  0.38533  Biso   1.000  H
  H41      1.0000 0.37762  0.33730  0.14935  Biso   1.000  H
  H42      1.0000 0.37663  0.39733  0.18933  Biso   1.000  H
  H43      1.0000 0.38867  0.28135  0.18933  Biso   1.000  H
  C36      1.0000 0.53752  0.43270  0.10283  Biso   1.000  C
  H44      1.0000 0.67669  0.50535  0.13534  Biso   1.000  H
  C37      1.0000 0.85735  0.39914  0.31523  Biso   1.000  C
  C38      1.0000 0.88521  0.24649  0.34535  Biso   1.000  C
  C39      1.0000 0.54176  0.14262  0.31523  Biso   1.000  C
  C40      1.0000 0.36126  0.11477  0.34535  Biso   1.000  C
  C41      1.0000 0.59353  0.46141  0.06544  Biso   1.000  C
  H45      1.0000 0.45063  0.38729  0.10332  Biso   1.000  H
  C42      1.0000 0.85636  0.36541  0.27634  Biso   1.000  C
  H46      1.0000 0.85067  0.46937  0.31934  Biso   1.000  H
  H47      1.0000 0.88963  0.22132  0.37233  Biso   1.000  H
  H48      1.0000 0.95869  0.26837  0.33134  Biso   1.000  H
  H49      1.0000 0.81969  0.18137  0.33134  Biso   1.000  H
  C43      1.0000 0.50910  0.14366  0.27634  Biso   1.000  C
  H50      1.0000 0.61869  0.14936  0.31934  Biso   1.000  H
  H51      1.0000 0.33171  0.11036  0.37233  Biso   1.000  H
  H52      1.0000 0.30964  0.04134  0.33134  Biso   1.000  H
  H53      1.0000 0.36168  0.18033  0.33134  Biso   1.000  H
  C44      1.0000 0.53973  0.43711  0.03104  Biso   1.000  C
  H54      1.0000 0.67966  0.50336  0.06532  Biso   1.000  H
  C45      1.0000 0.86985  0.43313  0.24525  Biso   1.000  C
  H55      1.0000 0.84567  0.28636  0.27134  Biso   1.000  H
  C46      1.0000 0.56325  0.13016  0.24525  Biso   1.000  C
  H56      1.0000 0.44064  0.15429  0.27134  Biso   1.000  H
  C47      1.0000 0.41085  0.37544  0.02563  Biso   1.000  C
  C48      1.0000 0.61089  0.47577  0.99623  Biso   1.000  C
  C49      1.0000 0.86204  0.39534  0.20664  Biso   1.000  C
  H57      1.0000 0.88567  0.51331  0.25034  Biso   1.000  H
  C50      1.0000 0.53328  0.13795  0.20664  Biso   1.000  C
  H58      1.0000 0.62769  0.11434  0.25034  Biso   1.000  H
  H59      1.0000 0.37162  0.35330  0.05134  Biso   1.000  H
  H60      1.0000 0.38669  0.30435  0.01033  Biso   1.000  H
  H61      1.0000 0.38864  0.42734  0.01234  Biso   1.000  H
  N5       1.0000 0.56623  0.46089  0.96333  Biso   1.000  N
  H62      1.0000 0.69669  0.51434  0.99833  Biso   1.000  H
  C51      1.0000 0.89129  0.46193  0.17414  Biso   1.000  C
  H63      1.0000 0.83271  0.31136  0.20233  Biso   1.000  H
  C52      1.0000 0.57065  0.10872  0.17414  Biso   1.000  C
  H64      1.0000 0.47870  0.16735  0.20233  Biso   1.000  H
  C53      1.0000 0.64272  0.50198  0.93045  Biso   1.000  C
  C54      1.0000 0.86887  0.40961  0.13623  Biso   1.000  C
  C55      1.0000 0.94570  0.59037  0.17564  Biso   1.000  C
  C56      1.0000 0.54073  0.13112  0.13623  Biso   1.000  C
  C57      1.0000 0.64464  0.05431  0.17564  Biso   1.000  C
  C58      1.0000 0.61523  0.40251  0.90275  Biso   1.000  C
  H65      1.0000 0.63268  0.56234  0.91632  Biso   1.000  H
  H66      1.0000 0.72468  0.53631  0.93934  Biso   1.000  H
  C59      1.0000 0.89515  0.46245  0.10283  Biso   1.000  C
  H67      1.0000 0.82864  0.32329  0.13534  Biso   1.000  H
  H68      1.0000 0.95967  0.62237  0.14935  Biso   1.000  H
  H69      1.0000 0.89265  0.61130  0.18933  Biso   1.000  H
  H70      1.0000 0.02067  0.62332  0.18933  Biso   1.000  H
  C60      1.0000 0.56728  0.10482  0.10283  Biso   1.000  C
  H71      1.0000 0.49470  0.17133  0.13534  Biso   1.000  H
  H72      1.0000 0.66265  0.04030  0.14935  Biso   1.000  H
  H73      1.0000 0.71863  0.10733  0.18933  Biso   1.000  H
  H74      1.0000 0.60265  0.97933  0.18933  Biso   1.000  H
  N6       1.0000 0.66670  0.33332  0.91535  Biso   1.000  N
  H75      1.0000 0.64568  0.43434  0.87634  Biso   1.000  H
  H76      1.0000 0.52964  0.35131  0.90134  Biso   1.000  H
  C61      1.0000 0.86787  0.40641  0.06544  Biso   1.000  C
  H77      1.0000 0.93666  0.54937  0.10332  Biso   1.000  H
  C62      1.0000 0.53855  0.13215  0.06544  Biso   1.000  C
  H78      1.0000 0.61266  0.06331  0.10332  Biso   1.000  H
  C63      1.0000 0.78729  0.38470  0.90275  Biso   1.000  C
  C64      1.0000 0.59750  0.21276  0.90275  Biso   1.000  C
  C65      1.0000 0.89732  0.46020  0.03104  Biso   1.000  C
  H79      1.0000 0.82365  0.32035  0.06532  Biso   1.000  H
  C66      1.0000 0.56290  0.10266  0.03104  Biso   1.000  C
  H80      1.0000 0.49668  0.17635  0.06532  Biso   1.000  H
  C67      1.0000 0.85931  0.35737  0.93045  Biso   1.000  C
  H81      1.0000 0.78866  0.35434  0.87634  Biso   1.000  H
  H82      1.0000 0.82163  0.47032  0.90134  Biso   1.000  H
  C68      1.0000 0.49804  0.14072  0.93045  Biso   1.000  C
  H83      1.0000 0.56565  0.21138  0.87634  Biso   1.000  H
  H84      1.0000 0.64868  0.17834  0.90134  Biso   1.000  H
  C69      1.0000 0.86484  0.38911  0.99623  Biso   1.000  C
  C70      1.0000 0.96457  0.58916  0.02563  Biso   1.000  C
  C71      1.0000 0.52422  0.13509  0.99623  Biso   1.000  C
  C72      1.0000 0.62458  0.03546  0.02563  Biso   1.000  C
  N7       1.0000 0.89465  0.43374  0.96333  Biso   1.000  N
  H85      1.0000 0.92967  0.36731  0.91632  Biso   1.000  H
  H86      1.0000 0.81168  0.27529  0.93934  Biso   1.000  H
  N8       1.0000 0.53908  0.10534  0.96333  Biso   1.000  N
  H87      1.0000 0.43767  0.07031  0.91632  Biso   1.000  H
  H88      1.0000 0.46367  0.18837  0.93934  Biso   1.000  H
  H89      1.0000 0.81767  0.30331  0.99833  Biso   1.000  H
  H90      1.0000 0.98168  0.62833  0.05134  Biso   1.000  H
  H91      1.0000 0.91765  0.61337  0.01033  Biso   1.000  H
  H92      1.0000 0.03863  0.61130  0.01234  Biso   1.000  H
  H93      1.0000 0.48566  0.18232  0.99833  Biso   1.000  H
  H94      1.0000 0.64665  0.01834  0.05134  Biso   1.000  H
  H95      1.0000 0.69565  0.08234  0.01033  Biso   1.000  H
  H96      1.0000 0.57269  0.96134  0.01234  Biso   1.000  H
  C73      1.0000 0.52299  0.69874  0.60966  Biso   1.000  C
  C74      1.0000 0.53655  0.76646  0.57857  Biso   1.000  C
  C75      1.0000 0.52405  0.73247  0.64855  Biso   1.000  C
  H97      1.0000 0.51237  0.61969  0.60466  Biso   1.000  H
  C76      1.0000 0.52874  0.72866  0.53997  Biso   1.000  C
  H98      1.0000 0.55229  0.84663  0.58366  Biso   1.000  H
  C77      1.0000 0.53291  0.68144  0.68025  Biso   1.000  C
  H99      1.0000 0.51737  0.80269  0.65267  Biso   1.000  H
  C78      1.0000 0.55792  0.79526  0.50746  Biso   1.000  C
  H100     1.0000 0.49933  0.64468  0.53565  Biso   1.000  H
  C79      1.0000 0.52223  0.72148  0.71808  Biso   1.000  C
  C80      1.0000 0.55195  0.57990  0.67867  Biso   1.000  C
  C81      1.0000 0.53550  0.74293  0.46955  Biso   1.000  C
  C82      1.0000 0.61232  0.92369  0.50896  Biso   1.000  C
  C83      1.0000 0.53414  0.68135  0.75277  Biso   1.000  C
  H101     1.0000 0.50436  0.78566  0.71865  Biso   1.000  H
  H102     1.0000 0.55633  0.55465  0.70568  Biso   1.000  H
  H103     1.0000 0.62532  0.60170  0.66466  Biso   1.000  H
  H104     1.0000 0.48632  0.51469  0.66466  Biso   1.000  H
  C84      1.0000 0.56185  0.79578  0.43616  Biso   1.000  C
  H105     1.0000 0.49538  0.65670  0.46866  Biso   1.000  H
  H106     1.0000 0.62637  0.95569  0.48267  Biso   1.000  H
  H107     1.0000 0.68729  0.95664  0.52268  Biso   1.000  H
  H108     1.0000 0.55939  0.94471  0.52268  Biso   1.000  H
  C85      1.0000 0.52215  0.72598  0.78858  Biso   1.000  C
  H109     1.0000 0.55236  0.61666  0.75366  Biso   1.000  H
  C86      1.0000 0.53450  0.73973  0.39876  Biso   1.000  C
  H110     1.0000 0.60336  0.88270  0.43667  Biso   1.000  H
  C87      1.0000 0.53660  0.69285  0.82387  Biso   1.000  C
  H111     1.0000 0.50137  0.78868  0.78766  Biso   1.000  H
  C88      1.0000 0.56402  0.79353  0.36436  Biso   1.000  C
  H112     1.0000 0.49035  0.65368  0.39868  Biso   1.000  H
  C89      1.0000 0.52206  0.75080  0.85727  Biso   1.000  C
  C90      1.0000 0.56743  0.60023  0.83046  Biso   1.000  C
  C91      1.0000 0.53154  0.72243  0.32956  Biso   1.000  C
  C92      1.0000 0.63126  0.92248  0.35895  Biso   1.000  C
  N9       1.0000 0.55072  0.73878  0.89087  Biso   1.000  N
  H113     1.0000 0.48838  0.80269  0.85367  Biso   1.000  H
  H114     1.0000 0.57332  0.58967  0.85868  Biso   1.000  H
  H115     1.0000 0.64334  0.62366  0.81766  Biso   1.000  H
  H116     1.0000 0.50634  0.52567  0.81867  Biso   1.000  H
  N10      1.0000 0.56135  0.76706  0.29668  Biso   1.000  N
  H117     1.0000 0.48430  0.63664  0.33166  Biso   1.000  H
  H118     1.0000 0.64831  0.96166  0.38467  Biso   1.000  H
  H119     1.0000 0.58435  0.94670  0.34368  Biso   1.000  H
  H120     1.0000 0.70537  0.94471  0.34566  Biso   1.000  H
  C93      1.0000 0.53457  0.80399  0.92188  Biso   1.000  C
  C94      1.0000 0.52593  0.69069  0.26377  Biso   1.000  C
  C95      1.0000 0.45287  0.71820  0.95188  Biso   1.000  C
  H121     1.0000 0.61034  0.85770  0.93367  Biso   1.000  H
  H122     1.0000 0.49936  0.84966  0.91066  Biso   1.000  H
  C96      1.0000 0.45395  0.71811  0.23607  Biso   1.000  C
  H123     1.0000 0.59629  0.70064  0.24968  Biso   1.000  H
  H124     1.0000 0.47835  0.60870  0.27266  Biso   1.000  H
  N11      1.0000 0.33332  0.66665  0.94017  Biso   1.000  N
  H125     1.0000 0.46333  0.75962  0.97667  Biso   1.000  H
  H126     1.0000 0.47232  0.65567  0.95567  Biso   1.000  H
  N12      1.0000 0.33332  0.66665  0.24867  Biso   1.000  N
  H127     1.0000 0.45536  0.68767  0.20966  Biso   1.000  H
  H128     1.0000 0.48833  0.80365  0.23466  Biso   1.000  H
  C97      1.0000 0.26537  0.54721  0.95188  Biso   1.000  C
  C98      1.0000 0.28178  0.73463  0.95188  Biso   1.000  C
  C99      1.0000 0.26413  0.54608  0.23607  Biso   1.000  C
  C100     1.0000 0.28193  0.73584  0.23607  Biso   1.000  C
  C101     1.0000 0.26944  0.46548  0.92188  Biso   1.000  C
  H129     1.0000 0.29634  0.53666  0.97667  Biso   1.000  H
  H130     1.0000 0.18331  0.52766  0.95567  Biso   1.000  H
  C102     1.0000 0.19601  0.73056  0.92188  Biso   1.000  C
  H131     1.0000 0.24031  0.70367  0.97667  Biso   1.000  H
  H132     1.0000 0.34439  0.81671  0.95567  Biso   1.000  H
  C103     1.0000 0.16474  0.47404  0.26377  Biso   1.000  C
  H133     1.0000 0.23235  0.54470  0.20966  Biso   1.000  H
  H134     1.0000 0.31530  0.51166  0.23466  Biso   1.000  H
  C104     1.0000 0.30934  0.83530  0.26377  Biso   1.000  C
  H135     1.0000 0.31230  0.76767  0.20966  Biso   1.000  H
  H136     1.0000 0.19634  0.68464  0.23466  Biso   1.000  H
  N13      1.0000 0.18803  0.44930  0.89087  Biso   1.000  N
  H137     1.0000 0.24732  0.38963  0.93367  Biso   1.000  H
  H138     1.0000 0.35033  0.50068  0.91066  Biso   1.000  H
  N14      1.0000 0.26119  0.81195  0.89087  Biso   1.000  N
  H139     1.0000 0.14236  0.75270  0.93367  Biso   1.000  H
  H140     1.0000 0.15033  0.64970  0.91066  Biso   1.000  H
  N15      1.0000 0.20570  0.43867  0.29668  Biso   1.000  N
  H141     1.0000 0.10430  0.40364  0.24968  Biso   1.000  H
  H142     1.0000 0.13037  0.52170  0.27266  Biso   1.000  H
  N16      1.0000 0.23297  0.79431  0.29668  Biso   1.000  N
  H143     1.0000 0.29931  0.89567  0.24968  Biso   1.000  H
  H144     1.0000 0.39130  0.86964  0.27266  Biso   1.000  H
  C105     1.0000 0.22870  0.47793  0.85727  Biso   1.000  C
  C106     1.0000 0.24926  0.77130  0.85727  Biso   1.000  C
  C107     1.0000 0.19096  0.46851  0.32956  Biso   1.000  C
  C108     1.0000 0.27752  0.80909  0.32956  Biso   1.000  C
  C109     1.0000 0.15628  0.46340  0.82387  Biso   1.000  C
  H145     1.0000 0.31433  0.51166  0.85367  Biso   1.000  H
  C110     1.0000 0.30714  0.84378  0.82387  Biso   1.000  C
  H146     1.0000 0.19731  0.68568  0.85367  Biso   1.000  H
  C111     1.0000 0.22953  0.43599  0.36436  Biso   1.000  C
  H147     1.0000 0.15229  0.51564  0.33166  Biso   1.000  H
  C112     1.0000 0.20643  0.77043  0.36436  Biso   1.000  C
  H148     1.0000 0.36331  0.84767  0.33166  Biso   1.000  H
  C113     1.0000 0.20379  0.47785  0.78858  Biso   1.000  C
  C114     1.0000 0.03283  0.43253  0.83046  Biso   1.000  C
  C115     1.0000 0.27407  0.79621  0.78858  Biso   1.000  C
  C116     1.0000 0.39978  0.96719  0.83046  Biso   1.000  C
  C117     1.0000 0.20525  0.46548  0.39876  Biso   1.000  C
  C118     1.0000 0.29128  0.36878  0.35895  Biso   1.000  C
  C119     1.0000 0.26023  0.79474  0.39876  Biso   1.000  C
  C120     1.0000 0.07755  0.70877  0.35895  Biso   1.000  C
  C121     1.0000 0.14723  0.46582  0.75277  Biso   1.000  C
  H149     1.0000 0.28732  0.49869  0.78766  Biso   1.000  H
  H150     1.0000 0.01633  0.42665  0.85868  Biso   1.000  H
  H151     1.0000 0.01936  0.49367  0.81867  Biso   1.000  H
  H152     1.0000 0.98038  0.35668  0.81766  Biso   1.000  H
  C122     1.0000 0.31860  0.85277  0.75277  Biso   1.000  C
  H153     1.0000 0.21132  0.71266  0.78766  Biso   1.000  H
  H154     1.0000 0.41032  0.98363  0.85868  Biso   1.000  H
  H155     1.0000 0.47431  0.98069  0.81867  Biso   1.000  H
  H156     1.0000 0.37633  0.01961  0.81766  Biso   1.000  H
  C123     1.0000 0.23390  0.43815  0.43616  Biso   1.000  C
  H157     1.0000 0.16331  0.50967  0.39868  Biso   1.000  H
  H158     1.0000 0.31335  0.35166  0.38467  Biso   1.000  H
  H159     1.0000 0.36235  0.41566  0.34368  Biso   1.000  H
  H160     1.0000 0.23931  0.29466  0.34566  Biso   1.000  H
  C124     1.0000 0.20422  0.76602  0.43616  Biso   1.000  C
  H161     1.0000 0.34636  0.83668  0.39868  Biso   1.000  H
  H162     1.0000 0.03832  0.68663  0.38467  Biso   1.000  H
  H163     1.0000 0.05331  0.63768  0.34368  Biso   1.000  H
  H164     1.0000 0.05534  0.76066  0.34566  Biso   1.000  H
  C125     1.0000 0.19926  0.47776  0.71808  Biso   1.000  C
  H165     1.0000 0.06437  0.44766  0.75366  Biso   1.000  H
  C126     1.0000 0.27853  0.80079  0.71808  Biso   1.000  C
  H166     1.0000 0.38333  0.93563  0.75366  Biso   1.000  H
  C127     1.0000 0.20743  0.46444  0.46955  Biso   1.000  C
  H167     1.0000 0.27928  0.39663  0.43667  Biso   1.000  H
  C128     1.0000 0.25705  0.79258  0.46955  Biso   1.000  C
  H168     1.0000 0.11737  0.72070  0.43667  Biso   1.000  H
  C129     1.0000 0.14851  0.46703  0.68025  Biso   1.000  C
  H169     1.0000 0.28131  0.49566  0.71865  Biso   1.000  H
  C130     1.0000 0.31855  0.85147  0.68025  Biso   1.000  C
  H170     1.0000 0.21431  0.71863  0.71865  Biso   1.000  H
  C131     1.0000 0.23735  0.44204  0.50746  Biso   1.000  C
  H171     1.0000 0.16132  0.50466  0.46866  Biso   1.000  H
  C132     1.0000 0.20471  0.76265  0.50746  Biso   1.000  C
  H172     1.0000 0.34331  0.83867  0.46866  Biso   1.000  H
  C133     1.0000 0.20839  0.47594  0.64855  Biso   1.000  C
  C134     1.0000 0.02796  0.44809  0.67867  Biso   1.000  C
  C135     1.0000 0.26754  0.79154  0.64855  Biso   1.000  C
  C136     1.0000 0.42011  0.97204  0.67867  Biso   1.000  C
  C137     1.0000 0.19991  0.47127  0.53997  Biso   1.000  C
  C138     1.0000 0.31134  0.38764  0.50896  Biso   1.000  C
  C139     1.0000 0.27137  0.80010  0.53997  Biso   1.000  C
  C140     1.0000 0.07636  0.68870  0.50896  Biso   1.000  C
  C141     1.0000 0.17572  0.47698  0.60966  Biso   1.000  C
  H173     1.0000 0.28531  0.48269  0.65267  Biso   1.000  H
  H174     1.0000 0.02830  0.51365  0.66466  Biso   1.000  H
  H175     1.0000 0.99834  0.44368  0.70568  Biso   1.000  H
  H176     1.0000 0.97634  0.37467  0.66466  Biso   1.000  H
  C142     1.0000 0.30119  0.82423  0.60966  Biso   1.000  C
  H177     1.0000 0.19734  0.71465  0.65267  Biso   1.000  H
  H178     1.0000 0.48532  0.97169  0.66466  Biso   1.000  H
  H179     1.0000 0.44531  0.00162  0.70568  Biso   1.000  H
  H180     1.0000 0.39829  0.02367  0.66466  Biso   1.000  H
  C143     1.0000 0.22995  0.46349  0.57857  Biso   1.000  C
  H181     1.0000 0.14533  0.50068  0.53565  Biso   1.000  H
  H182     1.0000 0.32935  0.37363  0.48267  Biso   1.000  H
  H183     1.0000 0.26935  0.31265  0.52268  Biso   1.000  H
  H184     1.0000 0.38533  0.44066  0.52268  Biso   1.000  H
  C144     1.0000 0.23352  0.77009  0.57857  Biso   1.000  C
  H185     1.0000 0.35536  0.85467  0.53565  Biso   1.000  H
  H186     1.0000 0.04432  0.67063  0.48267  Biso   1.000  H
  H187     1.0000 0.04333  0.73065  0.52268  Biso   1.000  H
  H188     1.0000 0.05537  0.61467  0.52268  Biso   1.000  H
  H189     1.0000 0.10738  0.48771  0.60466  Biso   1.000  H
  H190     1.0000 0.38033  0.89264  0.60466  Biso   1.000  H
  H191     1.0000 0.29431  0.44766  0.58366  Biso   1.000  H
  H192     1.0000 0.15329  0.70566  0.58366  Biso   1.000  H
  C145     1.0000 0.83137  0.80736  0.59709  Biso   1.000  C
  C146     1.0000 0.93083  0.87941  0.56939  Biso   1.000  C
  N17      1.0000 0.87240  0.77199  0.63000  Biso   1.000  N
  H193     1.0000 0.77100  0.73696  0.58300  Biso   1.000  H
  H194     1.0000 0.79700  0.85502  0.60601  Biso   1.000  H
  H195     1.0000 0.89898  0.87803  0.54299  Biso   1.000  H
  H196     1.0000 0.98200  0.84499  0.56801  Biso   1.000  H
  N18      1.0000 0.00002  0.99997  0.58199  Biso   1.000  N
  C147     1.0000 0.85758  0.80183  0.66291  Biso   1.000  C
  C148     1.0000 0.94856  0.06916  0.56939  Biso   1.000  C
  C149     1.0000 0.12054  0.05135  0.56939  Biso   1.000  C
  C150     1.0000 0.89623  0.76931  0.69771  Biso   1.000  C
  H197     1.0000 0.81899  0.84897  0.66501  Biso   1.000  H
  C151     1.0000 0.97593  0.16854  0.59709  Biso   1.000  C
  H198     1.0000 0.97900  0.10099  0.54299  Biso   1.000  H
  H199     1.0000 0.86296  0.01796  0.56801  Biso   1.000  H
  C152     1.0000 0.19251  0.02393  0.59709  Biso   1.000  C
  H200     1.0000 0.12206  0.02099  0.54299  Biso   1.000  H
  H201     1.0000 0.15496  0.13697  0.56801  Biso   1.000  H
  C153     1.0000 0.87188  0.79880  0.73209  Biso   1.000  C
  C154     1.0000 0.95790  0.70211  0.69231  Biso   1.000  C
  N19      1.0000 0.89963  0.12754  0.63000  Biso   1.000  N
  H202     1.0000 0.96593  0.22899  0.58300  Biso   1.000  H
  H203     1.0000 0.05800  0.20296  0.60601  Biso   1.000  H
  H204     1.0000 0.14505  0.94203  0.60601  Biso   1.000  H
  N20      1.0000 0.22804  0.10039  0.63000  Biso   1.000  N
  H205     1.0000 0.26299  0.03396  0.58300  Biso   1.000  H
  C155     1.0000 0.90060  0.77147  0.76951  Biso   1.000  C
  H206     1.0000 0.83001  0.84300  0.73200  Biso   1.000  H
  H207     1.0000 0.97997  0.68498  0.71799  Biso   1.000  H
  H208     1.0000 0.90601  0.62799  0.67899  Biso   1.000  H
  H209     1.0000 0.02898  0.74899  0.67700  Biso   1.000  H
  C156     1.0000 0.94410  0.14233  0.66291  Biso   1.000  C
  C157     1.0000 0.19824  0.05576  0.66291  Biso   1.000  C
  C158     1.0000 0.87405  0.79776  0.80291  Biso   1.000  C
  H210     1.0000 0.94598  0.72996  0.77000  Biso   1.000  H
  C159     1.0000 0.87305  0.10376  0.69771  Biso   1.000  C
  H211     1.0000 0.02994  0.18099  0.66501  Biso   1.000  H
  H212     1.0000 0.15100  0.96996  0.66501  Biso   1.000  H
  C160     1.0000 0.23072  0.12685  0.69771  Biso   1.000  C
  C161     1.0000 0.90397  0.77536  0.84079  Biso   1.000  C
  H213     1.0000 0.82802  0.83798  0.80201  Biso   1.000  H
  C162     1.0000 0.92693  0.12806  0.73209  Biso   1.000  C
  C163     1.0000 0.74418  0.04209  0.69231  Biso   1.000  C
  C164     1.0000 0.20112  0.07306  0.73209  Biso   1.000  C
  C165     1.0000 0.29789  0.25580  0.69231  Biso   1.000  C
  C166     1.0000 0.86661  0.80460  0.87329  Biso   1.000  C
  C167     1.0000 0.97796  0.72096  0.84231  Biso   1.000  C
  C168     1.0000 0.87085  0.09935  0.76951  Biso   1.000  C
  H214     1.0000 0.01306  0.17001  0.73200  Biso   1.000  H
  H215     1.0000 0.72001  0.97100  0.67700  Biso   1.000  H
  H216     1.0000 0.70494  0.01995  0.71799  Biso   1.000  H
  H217     1.0000 0.72204  0.09399  0.67899  Biso   1.000  H
  H218     1.0000 0.15697  0.98700  0.73200  Biso   1.000  H
  C169     1.0000 0.22847  0.12910  0.76951  Biso   1.000  C
  H219     1.0000 0.31501  0.29498  0.71799  Biso   1.000  H
  H220     1.0000 0.25101  0.27994  0.67700  Biso   1.000  H
  H221     1.0000 0.37203  0.27795  0.67899  Biso   1.000  H
  C170     1.0000 0.89657  0.79681  0.91189  Biso   1.000  C
  H222     1.0000 0.81203  0.83400  0.86901  Biso   1.000  H
  H223     1.0000 0.99602  0.70704  0.81599  Biso   1.000  H
  H224     1.0000 0.93598  0.64598  0.85600  Biso   1.000  H
  H225     1.0000 0.05196  0.77398  0.85600  Biso   1.000  H
  C171     1.0000 0.92367  0.12590  0.80291  Biso   1.000  C
  H226     1.0000 0.78403  0.05394  0.77000  Biso   1.000  H
  C172     1.0000 0.20220  0.07626  0.80291  Biso   1.000  C
  H227     1.0000 0.26994  0.21593  0.77000  Biso   1.000  H
  C173     1.0000 0.84242  0.81031  0.94299  Biso   1.000  C
  H228     1.0000 0.96101  0.78099  0.91701  Biso   1.000  H
  C174     1.0000 0.87133  0.09598  0.84079  Biso   1.000  C
  H229     1.0000 0.00994  0.17200  0.80201  Biso   1.000  H
  H230     1.0000 0.16200  0.99003  0.80201  Biso   1.000  H
  C175     1.0000 0.22462  0.12858  0.84079  Biso   1.000  C
  C176     1.0000 0.87509  0.80927  0.98191  Biso   1.000  C
  H231     1.0000 0.77401  0.82103  0.93801  Biso   1.000  H
  C177     1.0000 0.93795  0.13334  0.87329  Biso   1.000  C
  C178     1.0000 0.74301  0.02194  0.84231  Biso   1.000  C
  C179     1.0000 0.19536  0.06199  0.87329  Biso   1.000  C
  C180     1.0000 0.27895  0.25702  0.84231  Biso   1.000  C
  H232     1.0000 0.95201  0.81601  0.98599  Biso   1.000  H
  C181     1.0000 0.81520  0.80036  0.01361  Biso   1.000  C
  C182     1.0000 0.90014  0.10341  0.91189  Biso   1.000  C
  H233     1.0000 0.02206  0.18800  0.86901  Biso   1.000  H
  H234     1.0000 0.72199  0.94799  0.85600  Biso   1.000  H
  H235     1.0000 0.71102  0.00395  0.81599  Biso   1.000  H
  H236     1.0000 0.71003  0.06397  0.85600  Biso   1.000  H
  H237     1.0000 0.16603  0.97801  0.86901  Biso   1.000  H
  C183     1.0000 0.20325  0.09978  0.91189  Biso   1.000  C
  H238     1.0000 0.29307  0.28902  0.81599  Biso   1.000  H
  H239     1.0000 0.35399  0.28997  0.85600  Biso   1.000  H
  H240     1.0000 0.22605  0.27795  0.85600  Biso   1.000  H
  C184     1.0000 0.86588  0.81108  0.05140  Biso   1.000  C
  C185     1.0000 0.69458  0.78142  0.01199  Biso   1.000  C
  C186     1.0000 0.96781  0.15755  0.94299  Biso   1.000  C
  H241     1.0000 0.81992  0.03898  0.91701  Biso   1.000  H
  C187     1.0000 0.18961  0.03206  0.94299  Biso   1.000  C
  H242     1.0000 0.21899  0.17996  0.91701  Biso   1.000  H
  C188     1.0000 0.81389  0.79924  0.08609  Biso   1.000  C
  H243     1.0000 0.94801  0.82899  0.05201  Biso   1.000  H
  H244     1.0000 0.64296  0.70799  0.99799  Biso   1.000  H
  H245     1.0000 0.69500  0.84698  0.99799  Biso   1.000  H
  H246     1.0000 0.66504  0.77701  0.03900  Biso   1.000  H
  C189     1.0000 0.93416  0.12486  0.98191  Biso   1.000  C
  H247     1.0000 0.04703  0.22597  0.93801  Biso   1.000  H
  H248     1.0000 0.17900  0.95301  0.93801  Biso   1.000  H
  C190     1.0000 0.19075  0.06579  0.98191  Biso   1.000  C
  C191     1.0000 0.87049  0.81117  0.12190  Biso   1.000  C
  H249     1.0000 0.73099  0.78099  0.08701  Biso   1.000  H
  H250     1.0000 0.86404  0.04797  0.98599  Biso   1.000  H
  C192     1.0000 0.98525  0.18480  0.01361  Biso   1.000  C
  H251     1.0000 0.18403  0.13593  0.98599  Biso   1.000  H
  C193     1.0000 0.19961  0.01476  0.01361  Biso   1.000  C
  C194     1.0000 0.82290  0.79673  0.15720  Biso   1.000  C
  H252     1.0000 0.95402  0.83201  0.12101  Biso   1.000  H
  C195     1.0000 0.94516  0.13412  0.05140  Biso   1.000  C
  C196     1.0000 0.08673  0.30536  0.01199  Biso   1.000  C
  C197     1.0000 0.21858  0.91323  0.01199  Biso   1.000  C
  C198     1.0000 0.18893  0.05481  0.05140  Biso   1.000  C
  C199     1.0000 0.89540  0.81126  0.19059  Biso   1.000  C
  C200     1.0000 0.69950  0.76594  0.16381  Biso   1.000  C
  C201     1.0000 0.98530  0.18610  0.08609  Biso   1.000  C
  H253     1.0000 0.88093  0.05195  0.05201  Biso   1.000  H
  H254     1.0000 0.06499  0.35700  0.99799  Biso   1.000  H
  H255     1.0000 0.15195  0.30502  0.99799  Biso   1.000  H
  H256     1.0000 0.11193  0.33494  0.03900  Biso   1.000  H
  H257     1.0000 0.29202  0.93502  0.99799  Biso   1.000  H
  H258     1.0000 0.15302  0.84801  0.99799  Biso   1.000  H
  H259     1.0000 0.22295  0.88797  0.03900  Biso   1.000  H
  C202     1.0000 0.20077  0.01468  0.08609  Biso   1.000  C
  H260     1.0000 0.17106  0.11898  0.05201  Biso   1.000  H
  N21      1.0000 0.85473  0.78263  0.22419  Biso   1.000  N
  H261     1.0000 0.98103  0.84499  0.18700  Biso   1.000  H
  H262     1.0000 0.68296  0.75997  0.19200  Biso   1.000  H
  H263     1.0000 0.64700  0.69000  0.15101  Biso   1.000  H
  H264     1.0000 0.68599  0.82700  0.15199  Biso   1.000  H
  C203     1.0000 0.94065  0.12945  0.12190  Biso   1.000  C
  H265     1.0000 0.05002  0.26895  0.08701  Biso   1.000  H
  H266     1.0000 0.21898  0.94998  0.08701  Biso   1.000  H
  C204     1.0000 0.18878  0.05930  0.12190  Biso   1.000  C
  C205     1.0000 0.93607  0.79880  0.25520  Biso   1.000  C
  C206     1.0000 0.97384  0.17710  0.15720  Biso   1.000  C
  H267     1.0000 0.87795  0.04599  0.12101  Biso   1.000  H
  C207     1.0000 0.20323  0.02618  0.15720  Biso   1.000  C
  H268     1.0000 0.16800  0.12201  0.12101  Biso   1.000  H
  C208     1.0000 0.93199  0.88053  0.28520  Biso   1.000  C
  H269     1.0000 0.91399  0.72304  0.26699  Biso   1.000  H
  H270     1.0000 0.01703  0.83400  0.24401  Biso   1.000  H
  C209     1.0000 0.91584  0.10454  0.19059  Biso   1.000  C
  C210     1.0000 0.06636  0.30043  0.16381  Biso   1.000  C
  C211     1.0000 0.23410  0.93364  0.16381  Biso   1.000  C
  C212     1.0000 0.18864  0.08404  0.19059  Biso   1.000  C
  H271     1.0000 0.96297  0.86998  0.31000  Biso   1.000  H
  H272     1.0000 0.85001  0.86099  0.28900  Biso   1.000  H
  N22      1.0000 0.00002  0.99997  0.27349  Biso   1.000  N
  N23      1.0000 0.92782  0.14527  0.22419  Biso   1.000  N
  H273     1.0000 0.86393  0.01900  0.18700  Biso   1.000  H
  H274     1.0000 0.07702  0.31695  0.19200  Biso   1.000  H
  H275     1.0000 0.04303  0.35293  0.15101  Biso   1.000  H
  H276     1.0000 0.14101  0.31401  0.15199  Biso   1.000  H
  H277     1.0000 0.24002  0.92300  0.19200  Biso   1.000  H
  H278     1.0000 0.30997  0.95699  0.15101  Biso   1.000  H
  H279     1.0000 0.17296  0.85900  0.15199  Biso   1.000  H
  N24      1.0000 0.21742  0.07210  0.22419  Biso   1.000  N
  H280     1.0000 0.15504  0.13593  0.18700  Biso   1.000  H
  C213     1.0000 0.94848  0.06795  0.28520  Biso   1.000  C
  C214     1.0000 0.11953  0.05143  0.28520  Biso   1.000  C
  C215     1.0000 0.86263  0.06389  0.25520  Biso   1.000  C
  C216     1.0000 0.20120  0.13732  0.25520  Biso   1.000  C
  H281     1.0000 0.90693  0.03699  0.31000  Biso   1.000  H
  H282     1.0000 0.01104  0.14994  0.28900  Biso   1.000  H
  H283     1.0000 0.13902  0.98899  0.28900  Biso   1.000  H
  H284     1.0000 0.12995  0.09295  0.31000  Biso   1.000  H
  H285     1.0000 0.81703  0.98302  0.24401  Biso   1.000  H
  H286     1.0000 0.80894  0.08594  0.26699  Biso   1.000  H
  H287     1.0000 0.27692  0.19094  0.26699  Biso   1.000  H
  H288     1.0000 0.16598  0.18298  0.24401  Biso   1.000  H
  Ne1      1.0000 0.66666  0.33333  0.26058  Biso   1.000  Ne
  He1      1.0000 0.72043  0.27763  0.23747  Biso   1.000  He
  He2      1.0000 0.55663  0.27932  0.23750  Biso   1.000  He
  He3      1.0000 0.00000  0.00000  0.00000  Biso   1.000  He
  Ar1      1.0000 0.66667  0.33335  0.26058  Biso   1.000  Ar
  Ne2      1.0000 0.33333  0.66667  0.59391  Biso   1.000  Ne
  He4      1.0000 0.38713  0.61095  0.57080  Biso   1.000  He
  He5      1.0000 0.22323  0.61261  0.57085  Biso   1.000  He
  He6      1.0000 0.00000  0.00000  0.00000  Biso   1.000  He
  Ar2      1.0000 0.33334  0.66670  0.59398  Biso   1.000  Ar
  Ne3      1.0000 0.99998  0.99998  0.92724  Biso   1.000  Ne
  He7      1.0000 0.05378  0.94428  0.90414  Biso   1.000  He
  He8      1.0000 0.88995  0.94598  0.90415  Biso   1.000  He
  He9      1.0000 0.00000  0.00000  0.00000  Biso   1.000  He
  Ar3      1.0000 0.00001  0.00005  0.92726  Biso   1.000  Ar
