data_image0
_cell_length_a       18.686
_cell_length_b       24.961
_cell_length_c       16.664
_cell_angle_alpha    90
_cell_angle_beta     105.13
_cell_angle_gamma    90

_symmetry_space_group_name_H-M    "P 1"
_symmetry_int_tables_number       1

loop_
  _symmetry_equiv_pos_as_xyz
  'x, y, z'

loop_
  _atom_site_label
  _atom_site_occupancy
  _atom_site_fract_x
  _atom_site_fract_y
  _atom_site_fract_z
  _atom_site_thermal_displace_type
  _atom_site_B_iso_or_equiv
  _atom_site_type_symbol
  O1       1.0000 0.49719  0.37623  0.40407  Biso   1.000  O
  C1       1.0000 0.50764  0.38801  0.32413  Biso   1.000  C
  H1       1.0000 0.53083  0.35539  0.42949  Biso   1.000  H
  C2       1.0000 0.43183  0.39494  0.26258  Biso   1.000  C
  H2       1.0000 0.53294  0.35672  0.30591  Biso   1.000  H
  C3       1.0000 0.55619  0.43716  0.32692  Biso   1.000  C
  O2       1.0000 0.39206  0.43392  0.29497  Biso   1.000  O
  O3       1.0000 0.43926  0.41048  0.18394  Biso   1.000  O
  H3       1.0000 0.40444  0.36008  0.25711  Biso   1.000  H
  C4       1.0000 0.56124  0.44990  0.23871  Biso   1.000  C
  O4       1.0000 0.62888  0.42787  0.37871  Biso   1.000  O
  H4       1.0000 0.53353  0.46829  0.34912  Biso   1.000  H
  C5       1.0000 0.32145  0.41769  0.30660  Biso   1.000  C
  C6       1.0000 0.48200  0.45852  0.18407  Biso   1.000  C
  O5       1.0000 0.60410  0.49770  0.24213  Biso   1.000  O
  H5       1.0000 0.58540  0.41961  0.21652  Biso   1.000  H
  H6       1.0000 0.62964  0.43432  0.42844  Biso   1.000  H
  C7       1.0000 0.25923  0.44241  0.23728  Biso   1.000  C
  C8       1.0000 0.31852  0.43744  0.39220  Biso   1.000  C
  H7       1.0000 0.31748  0.37771  0.30430  Biso   1.000  H
  H8       1.0000 0.45840  0.48900  0.20663  Biso   1.000  H
  C9       1.0000 0.47949  0.46929  0.09399  Biso   1.000  C
  C10      1.0000 0.66617  0.49609  0.20856  Biso   1.000  C
  C11      1.0000 0.25460  0.41781  0.15230  Biso   1.000  C
  O6       1.0000 0.18839  0.43388  0.25481  Biso   1.000  O
  H9       1.0000 0.26822  0.48179  0.23473  Biso   1.000  H
  C12      1.0000 0.24179  0.42679  0.40283  Biso   1.000  C
  O7       1.0000 0.37230  0.41032  0.45542  Biso   1.000  O
  H10      1.0000 0.32860  0.47678  0.39642  Biso   1.000  H
  O8       1.0000 0.40653  0.48508  0.04861  Biso   1.000  O
  H11      1.0000 0.51509  0.49810  0.09082  Biso   1.000  H
  H12      1.0000 0.49421  0.43660  0.06869  Biso   1.000  H
  O9       1.0000 0.65492  0.52798  0.13583  Biso   1.000  O
  H13      1.0000 0.67533  0.45819  0.19457  Biso   1.000  H
  C13      1.0000 0.73355  0.51677  0.27408  Biso   1.000  C
  O10      1.0000 0.24901  0.36108  0.15336  Biso   1.000  O
  H14      1.0000 0.21080  0.43251  0.11127  Biso   1.000  H
  H15      1.0000 0.29929  0.42791  0.13440  Biso   1.000  H
  C14      1.0000 0.18523  0.45491  0.33295  Biso   1.000  C
  O11      1.0000 0.23572  0.44638  0.48134  Biso   1.000  O
  H16      1.0000 0.23203  0.38728  0.39953  Biso   1.000  H
  H17      1.0000 0.41111  0.40591  0.43981  Biso   1.000  H
  H18      1.0000 0.40841  0.51520  0.02679  Biso   1.000  H
  C15      1.0000 0.64075  0.58335  0.14808  Biso   1.000  C
  O12      1.0000 0.74851  0.48424  0.34663  Biso   1.000  O
  H19      1.0000 0.77742  0.51508  0.25034  Biso   1.000  H
  C16      1.0000 0.72151  0.57526  0.29454  Biso   1.000  C
  H20      1.0000 0.21069  0.35131  0.11749  Biso   1.000  H
  O13      1.0000 0.20279  0.51032  0.33898  Biso   1.000  O
  H21      1.0000 0.13444  0.44950  0.34054  Biso   1.000  H
  H22      1.0000 0.22310  0.42122  0.50832  Biso   1.000  H
  C17      1.0000 0.70523  0.60835  0.21472  Biso   1.000  C
  H23      1.0000 0.59381  0.58672  0.16598  Biso   1.000  H
  C18      1.0000 0.63098  0.61019  0.06428  Biso   1.000  C
  H24      1.0000 0.70920  0.46941  0.35042  Biso   1.000  H
  O14      1.0000 0.78605  0.59713  0.35086  Biso   1.000  O
  H25      1.0000 0.67851  0.57770  0.31971  Biso   1.000  H
  C19      1.0000 0.14547  0.54814  0.33873  Biso   1.000  C
  O15      1.0000 0.68475  0.66111  0.23411  Biso   1.000  O
  H26      1.0000 0.75055  0.61019  0.19352  Biso   1.000  H
  O16      1.0000 0.57268  0.58639  0.00162  Biso   1.000  O
  H27      1.0000 0.61990  0.64861  0.06931  Biso   1.000  H
  H28      1.0000 0.67792  0.60759  0.04749  Biso   1.000  H
  H29      1.0000 0.78701  0.58800  0.39959  Biso   1.000  H
  C20      1.0000 0.17155  0.58155  0.41719  Biso   1.000  C
  H30      1.0000 0.09860  0.52891  0.33923  Biso   1.000  H
  C21      1.0000 0.13324  0.58299  0.26090  Biso   1.000  C
  C22      1.0000 0.72350  0.70582  0.21459  Biso   1.000  C
  H31      1.0000 0.58402  0.55459  0.99378  Biso   1.000  H
  O17      1.0000 0.17481  0.54970  0.48936  Biso   1.000  O
  C23      1.0000 0.11832  0.62738  0.41476  Biso   1.000  C
  H32      1.0000 0.22189  0.59621  0.42011  Biso   1.000  H
  O18      1.0000 0.08419  0.62678  0.26445  Biso   1.000  O
  H33      1.0000 0.18190  0.59729  0.25612  Biso   1.000  H
  C24      1.0000 0.09612  0.55190  0.18233  Biso   1.000  C
  O19      1.0000 0.67894  0.73595  0.14776  Biso   1.000  O
  H34      1.0000 0.76902  0.69320  0.19930  Biso   1.000  H
  C25      1.0000 0.74600  0.74088  0.29192  Biso   1.000  C
  H35      1.0000 0.19832  0.52129  0.48669  Biso   1.000  H
  O20      1.0000 0.14354  0.66143  0.48470  Biso   1.000  O
  C26      1.0000 0.10934  0.66011  0.33500  Biso   1.000  C
  H36      1.0000 0.06888  0.61240  0.41569  Biso   1.000  H
  O21      1.0000 0.09057  0.58347  0.10953  Biso   1.000  O
  H37      1.0000 0.12522  0.51921  0.17928  Biso   1.000  H
  H38      1.0000 0.04591  0.54068  0.18481  Biso   1.000  H
  C27      1.0000 0.61053  0.75542  0.16331  Biso   1.000  C
  O22      1.0000 0.79537  0.71299  0.35850  Biso   1.000  O
  H39      1.0000 0.77221  0.77321  0.27831  Biso   1.000  H
  C28      1.0000 0.67673  0.75938  0.31598  Biso   1.000  C
  H40      1.0000 0.10731  0.67101  0.50241  Biso   1.000  H
  O23      1.0000 0.17872  0.68339  0.33718  Biso   1.000  O
  H41      1.0000 0.07223  0.68920  0.33351  Biso   1.000  H
  H42      1.0000 0.05789  0.60711  0.10618  Biso   1.000  H
  C29      1.0000 0.62663  0.78903  0.24238  Biso   1.000  C
  H43      1.0000 0.57992  0.72389  0.17070  Biso   1.000  H
  C30      1.0000 0.56971  0.78543  0.08660  Biso   1.000  C
  H44      1.0000 0.78203  0.68090  0.35844  Biso   1.000  H
  O24      1.0000 0.69466  0.79620  0.38337  Biso   1.000  O
  H45      1.0000 0.64994  0.72782  0.33103  Biso   1.000  H
  C31      1.0000 0.18014  0.73931  0.32077  Biso   1.000  C
  O25      1.0000 0.55803  0.80029  0.26196  Biso   1.000  O
  H46      1.0000 0.65080  0.82340  0.23312  Biso   1.000  H
  O26      1.0000 0.60587  0.83462  0.07777  Biso   1.000  O
  H47      1.0000 0.56662  0.76279  0.03699  Biso   1.000  H
  H48      1.0000 0.51862  0.79300  0.08989  Biso   1.000  H
  H49      1.0000 0.71023  0.77930  0.42819  Biso   1.000  H
  C32      1.0000 0.23610  0.76523  0.39425  Biso   1.000  C
  H50      1.0000 0.12989  0.75502  0.31524  Biso   1.000  H
  C33      1.0000 0.20421  0.74929  0.24114  Biso   1.000  C
  C34      1.0000 0.53191  0.85373  0.25158  Biso   1.000  C
  H51      1.0000 0.57403  0.85750  0.05502  Biso   1.000  H
  O27      1.0000 0.21348  0.75826  0.46903  Biso   1.000  O
  C35      1.0000 0.24147  0.82461  0.37684  Biso   1.000  C
  H52      1.0000 0.28581  0.74821  0.40090  Biso   1.000  H
  O28      1.0000 0.20893  0.80594  0.22877  Biso   1.000  O
  H53      1.0000 0.25422  0.73290  0.24723  Biso   1.000  H
  C36      1.0000 0.15088  0.72681  0.16399  Biso   1.000  C
  C37      1.0000 0.51984  0.87288  0.33469  Biso   1.000  C
  O29      1.0000 0.46506  0.85762  0.18743  Biso   1.000  O
  H54      1.0000 0.57040  0.87681  0.23691  Biso   1.000  H
  H55      1.0000 0.20452  0.72569  0.47494  Biso   1.000  H
  O30      1.0000 0.29403  0.85141  0.44218  Biso   1.000  O
  C38      1.0000 0.26110  0.83214  0.29379  Biso   1.000  C
  H56      1.0000 0.19170  0.84111  0.37181  Biso   1.000  H
  O31      1.0000 0.07743  0.74717  0.15379  Biso   1.000  O
  H57      1.0000 0.16839  0.73631  0.11463  Biso   1.000  H
  H58      1.0000 0.15002  0.68731  0.16791  Biso   1.000  H
  C39      1.0000 0.45727  0.84067  0.35465  Biso   1.000  C
  O32      1.0000 0.58556  0.86992  0.39978  Biso   1.000  O
  H59      1.0000 0.50402  0.91130  0.32810  Biso   1.000  H
  C40      1.0000 0.40427  0.82681  0.20123  Biso   1.000  C
  H60      1.0000 0.33702  0.84079  0.44342  Biso   1.000  H
  O33      1.0000 0.33318  0.81066  0.30231  Biso   1.000  O
  H61      1.0000 0.26149  0.87132  0.28098  Biso   1.000  H
  H62      1.0000 0.07690  0.78022  0.14391  Biso   1.000  H
  C41      1.0000 0.38777  0.84460  0.28229  Biso   1.000  C
  O34      1.0000 0.44151  0.86058  0.42856  Biso   1.000  O
  H63      1.0000 0.47265  0.80229  0.36323  Biso   1.000  H
  H64      1.0000 0.61103  0.84372  0.39170  Biso   1.000  H
  H65      1.0000 0.41802  0.78799  0.20533  Biso   1.000  H
  C42      1.0000 0.33970  0.83558  0.12520  Biso   1.000  C
  H66      1.0000 0.36954  0.88242  0.27663  Biso   1.000  H
  H67      1.0000 0.41659  0.88899  0.41762  Biso   1.000  H
  O35      1.0000 0.31236  0.88899  0.11904  Biso   1.000  O
  H68      1.0000 0.35591  0.82701  0.07460  Biso   1.000  H
  H69      1.0000 0.29911  0.81070  0.12762  Biso   1.000  H
  H70      1.0000 0.34600  0.91022  0.11482  Biso   1.000  H
  O36      1.0000 0.50284  0.37623  0.59597  Biso   1.000  O
  H71      1.0000 0.46921  0.35539  0.57055  Biso   1.000  H
  C43      1.0000 0.49239  0.38801  0.67591  Biso   1.000  C
  C44      1.0000 0.56821  0.39494  0.73746  Biso   1.000  C
  H72      1.0000 0.46715  0.35672  0.69413  Biso   1.000  H
  C45      1.0000 0.44385  0.43716  0.67312  Biso   1.000  C
  O37      1.0000 0.60798  0.43392  0.70507  Biso   1.000  O
  O38      1.0000 0.56077  0.41048  0.81610  Biso   1.000  O
  H73      1.0000 0.59565  0.36008  0.74293  Biso   1.000  H
  O39      1.0000 0.37116  0.42787  0.62133  Biso   1.000  O
  H74      1.0000 0.46651  0.46829  0.65092  Biso   1.000  H
  C46      1.0000 0.43880  0.44990  0.76133  Biso   1.000  C
  C47      1.0000 0.67859  0.41769  0.69344  Biso   1.000  C
  C48      1.0000 0.51804  0.45852  0.81597  Biso   1.000  C
  H75      1.0000 0.37039  0.43432  0.57160  Biso   1.000  H
  O40      1.0000 0.39594  0.49770  0.75791  Biso   1.000  O
  H76      1.0000 0.41464  0.41961  0.78352  Biso   1.000  H
  C49      1.0000 0.68150  0.43744  0.60778  Biso   1.000  C
  H77      1.0000 0.68255  0.37771  0.69574  Biso   1.000  H
  C50      1.0000 0.74080  0.44241  0.76276  Biso   1.000  C
  H78      1.0000 0.54163  0.48900  0.79341  Biso   1.000  H
  C51      1.0000 0.52054  0.46929  0.90605  Biso   1.000  C
  C52      1.0000 0.33385  0.49609  0.79142  Biso   1.000  C
  O41      1.0000 0.62772  0.41032  0.54456  Biso   1.000  O
  C53      1.0000 0.75824  0.42679  0.59721  Biso   1.000  C
  H79      1.0000 0.67143  0.47678  0.60362  Biso   1.000  H
  O42      1.0000 0.81163  0.43388  0.74517  Biso   1.000  O
  H80      1.0000 0.73181  0.48179  0.76531  Biso   1.000  H
  C54      1.0000 0.74549  0.41781  0.84774  Biso   1.000  C
  O43      1.0000 0.59356  0.48508  0.95143  Biso   1.000  O
  H81      1.0000 0.48494  0.49810  0.90922  Biso   1.000  H
  H82      1.0000 0.50583  0.43660  0.93135  Biso   1.000  H
  O44      1.0000 0.34517  0.52798  0.86421  Biso   1.000  O
  H83      1.0000 0.32474  0.45819  0.80540  Biso   1.000  H
  C55      1.0000 0.26648  0.51677  0.72596  Biso   1.000  C
  H84      1.0000 0.58893  0.40591  0.56023  Biso   1.000  H
  O45      1.0000 0.76432  0.44638  0.51870  Biso   1.000  O
  C56      1.0000 0.81481  0.45491  0.66709  Biso   1.000  C
  H85      1.0000 0.76800  0.38728  0.60051  Biso   1.000  H
  O46      1.0000 0.75102  0.36108  0.84668  Biso   1.000  O
  H86      1.0000 0.78922  0.43251  0.88870  Biso   1.000  H
  H87      1.0000 0.70074  0.42791  0.86564  Biso   1.000  H
  H88      1.0000 0.59163  0.51520  0.97325  Biso   1.000  H
  C57      1.0000 0.35927  0.58335  0.85190  Biso   1.000  C
  O47      1.0000 0.25152  0.48424  0.65341  Biso   1.000  O
  H89      1.0000 0.22262  0.51508  0.74970  Biso   1.000  H
  C58      1.0000 0.27853  0.57526  0.70550  Biso   1.000  C
  H90      1.0000 0.77693  0.42122  0.49172  Biso   1.000  H
  O48      1.0000 0.79724  0.51032  0.66106  Biso   1.000  O
  H91      1.0000 0.86565  0.44950  0.65950  Biso   1.000  H
  H92      1.0000 0.78934  0.35131  0.88255  Biso   1.000  H
  C59      1.0000 0.29481  0.60835  0.78532  Biso   1.000  C
  H93      1.0000 0.40621  0.58672  0.83400  Biso   1.000  H
  C60      1.0000 0.36909  0.61019  0.93570  Biso   1.000  C
  H94      1.0000 0.29083  0.46941  0.64962  Biso   1.000  H
  O49      1.0000 0.21399  0.59713  0.64918  Biso   1.000  O
  H95      1.0000 0.32153  0.57770  0.68033  Biso   1.000  H
  C61      1.0000 0.85455  0.54814  0.66124  Biso   1.000  C
  O50      1.0000 0.31528  0.66111  0.76593  Biso   1.000  O
  H96      1.0000 0.24954  0.61019  0.80652  Biso   1.000  H
  O51      1.0000 0.42736  0.58639  0.99842  Biso   1.000  O
  H97      1.0000 0.38013  0.64861  0.93073  Biso   1.000  H
  H98      1.0000 0.32212  0.60759  0.95255  Biso   1.000  H
  H99      1.0000 0.21303  0.58800  0.60045  Biso   1.000  H
  C62      1.0000 0.82854  0.58155  0.58285  Biso   1.000  C
  H100     1.0000 0.90143  0.52891  0.66081  Biso   1.000  H
  C63      1.0000 0.86679  0.58299  0.73914  Biso   1.000  C
  C64      1.0000 0.27653  0.70582  0.78545  Biso   1.000  C
  H101     1.0000 0.41602  0.55459  0.00626  Biso   1.000  H
  O52      1.0000 0.82523  0.54970  0.51068  Biso   1.000  O
  C65      1.0000 0.88175  0.62738  0.58522  Biso   1.000  C
  H102     1.0000 0.77814  0.59621  0.57993  Biso   1.000  H
  O53      1.0000 0.91584  0.62678  0.73559  Biso   1.000  O
  H103     1.0000 0.81813  0.59729  0.74392  Biso   1.000  H
  C66      1.0000 0.90392  0.55190  0.81771  Biso   1.000  C
  O54      1.0000 0.32109  0.73595  0.85227  Biso   1.000  O
  H104     1.0000 0.23102  0.69320  0.80074  Biso   1.000  H
  C67      1.0000 0.25404  0.74088  0.70812  Biso   1.000  C
  H105     1.0000 0.80170  0.52129  0.51329  Biso   1.000  H
  O55      1.0000 0.85650  0.66143  0.51534  Biso   1.000  O
  C68      1.0000 0.89070  0.66011  0.66504  Biso   1.000  C
  H106     1.0000 0.93116  0.61240  0.58435  Biso   1.000  H
  O56      1.0000 0.90946  0.58347  0.89051  Biso   1.000  O
  H107     1.0000 0.87480  0.51921  0.82070  Biso   1.000  H
  H108     1.0000 0.95413  0.54068  0.81522  Biso   1.000  H
  C69      1.0000 0.38949  0.75542  0.83667  Biso   1.000  C
  O57      1.0000 0.20466  0.71299  0.64154  Biso   1.000  O
  H109     1.0000 0.22783  0.77321  0.72173  Biso   1.000  H
  C70      1.0000 0.32329  0.75938  0.68400  Biso   1.000  C
  H110     1.0000 0.89272  0.67101  0.49763  Biso   1.000  H
  O58      1.0000 0.82131  0.68339  0.66286  Biso   1.000  O
  H111     1.0000 0.92781  0.68920  0.66653  Biso   1.000  H
  H112     1.0000 0.94213  0.60711  0.89380  Biso   1.000  H
  C71      1.0000 0.37339  0.78903  0.75760  Biso   1.000  C
  H113     1.0000 0.42011  0.72389  0.82934  Biso   1.000  H
  C72      1.0000 0.43032  0.78543  0.91344  Biso   1.000  C
  H114     1.0000 0.21800  0.68090  0.64160  Biso   1.000  H
  O59      1.0000 0.30536  0.79620  0.61661  Biso   1.000  O
  H115     1.0000 0.35009  0.72782  0.66901  Biso   1.000  H
  C73      1.0000 0.81989  0.73931  0.67927  Biso   1.000  C
  O60      1.0000 0.44200  0.80029  0.73808  Biso   1.000  O
  H116     1.0000 0.34923  0.82340  0.76692  Biso   1.000  H
  O61      1.0000 0.39417  0.83462  0.92227  Biso   1.000  O
  H117     1.0000 0.43341  0.76279  0.96305  Biso   1.000  H
  H118     1.0000 0.48141  0.79300  0.91015  Biso   1.000  H
  H119     1.0000 0.28979  0.77930  0.57179  Biso   1.000  H
  C74      1.0000 0.76393  0.76523  0.60579  Biso   1.000  C
  H120     1.0000 0.87015  0.75502  0.68480  Biso   1.000  H
  C75      1.0000 0.79581  0.74929  0.75884  Biso   1.000  C
  C76      1.0000 0.46813  0.85373  0.74846  Biso   1.000  C
  H121     1.0000 0.42601  0.85750  0.94502  Biso   1.000  H
  O62      1.0000 0.78656  0.75826  0.53101  Biso   1.000  O
  C77      1.0000 0.75857  0.82461  0.62320  Biso   1.000  C
  H122     1.0000 0.71422  0.74821  0.59914  Biso   1.000  H
  O63      1.0000 0.79111  0.80594  0.77127  Biso   1.000  O
  H123     1.0000 0.74582  0.73290  0.75281  Biso   1.000  H
  C78      1.0000 0.84916  0.72681  0.83605  Biso   1.000  C
  O64      1.0000 0.53497  0.85762  0.81261  Biso   1.000  O
  H124     1.0000 0.42964  0.87681  0.76313  Biso   1.000  H
  C79      1.0000 0.48019  0.87288  0.66535  Biso   1.000  C
  H125     1.0000 0.79551  0.72569  0.52510  Biso   1.000  H
  O65      1.0000 0.70599  0.85141  0.55780  Biso   1.000  O
  C80      1.0000 0.73894  0.83214  0.70625  Biso   1.000  C
  H126     1.0000 0.80833  0.84111  0.62823  Biso   1.000  H
  O66      1.0000 0.92260  0.74717  0.84624  Biso   1.000  O
  H127     1.0000 0.83164  0.73631  0.88541  Biso   1.000  H
  H128     1.0000 0.85001  0.68731  0.83213  Biso   1.000  H
  C81      1.0000 0.59576  0.82681  0.79881  Biso   1.000  C
  O67      1.0000 0.41447  0.86992  0.60026  Biso   1.000  O
  H129     1.0000 0.49602  0.91130  0.67194  Biso   1.000  H
  C82      1.0000 0.54282  0.84067  0.64539  Biso   1.000  C
  H130     1.0000 0.66301  0.84079  0.55662  Biso   1.000  H
  O68      1.0000 0.66685  0.81066  0.69773  Biso   1.000  O
  H131     1.0000 0.73853  0.87132  0.71899  Biso   1.000  H
  H132     1.0000 0.92314  0.78022  0.85613  Biso   1.000  H
  C83      1.0000 0.61227  0.84460  0.71775  Biso   1.000  C
  H133     1.0000 0.58202  0.78799  0.79471  Biso   1.000  H
  C84      1.0000 0.66034  0.83558  0.87484  Biso   1.000  C
  H134     1.0000 0.38901  0.84372  0.60834  Biso   1.000  H
  O69      1.0000 0.55853  0.86058  0.57148  Biso   1.000  O
  H135     1.0000 0.52744  0.80229  0.63681  Biso   1.000  H
  H136     1.0000 0.63050  0.88242  0.72341  Biso   1.000  H
  O70      1.0000 0.68767  0.88899  0.88099  Biso   1.000  O
  H137     1.0000 0.64413  0.82701  0.92544  Biso   1.000  H
  H138     1.0000 0.70093  0.81070  0.87242  Biso   1.000  H
  H139     1.0000 0.58344  0.88899  0.58242  Biso   1.000  H
  H140     1.0000 0.65403  0.91022  0.88522  Biso   1.000  H
  O71      1.0000 0.28656  0.25828  0.53101  Biso   1.000  O
  H141     1.0000 0.29551  0.22571  0.52510  Biso   1.000  H
  C85      1.0000 0.26393  0.26521  0.60579  Biso   1.000  C
  C86      1.0000 0.25857  0.32463  0.62320  Biso   1.000  C
  H142     1.0000 0.21422  0.24819  0.59914  Biso   1.000  H
  C87      1.0000 0.31989  0.23929  0.67927  Biso   1.000  C
  O72      1.0000 0.20599  0.35143  0.55780  Biso   1.000  O
  C88      1.0000 0.23894  0.33216  0.70625  Biso   1.000  C
  H143     1.0000 0.30833  0.34109  0.62823  Biso   1.000  H
  O73      1.0000 0.32131  0.18341  0.66286  Biso   1.000  O
  H144     1.0000 0.37009  0.25500  0.68480  Biso   1.000  H
  C89      1.0000 0.29581  0.24927  0.75884  Biso   1.000  C
  H145     1.0000 0.16301  0.34081  0.55662  Biso   1.000  H
  O74      1.0000 0.16685  0.31064  0.69773  Biso   1.000  O
  O75      1.0000 0.29111  0.30596  0.77127  Biso   1.000  O
  H146     1.0000 0.23853  0.37130  0.71899  Biso   1.000  H
  C90      1.0000 0.39070  0.16013  0.66504  Biso   1.000  C
  H147     1.0000 0.24582  0.23288  0.75281  Biso   1.000  H
  C91      1.0000 0.34916  0.22679  0.83605  Biso   1.000  C
  C92      1.0000 0.11221  0.34462  0.71775  Biso   1.000  C
  O76      1.0000 0.41584  0.12676  0.73559  Biso   1.000  O
  H148     1.0000 0.42781  0.18922  0.66653  Biso   1.000  H
  C93      1.0000 0.38170  0.12740  0.58522  Biso   1.000  C
  O77      1.0000 0.42260  0.24719  0.84624  Biso   1.000  O
  H149     1.0000 0.33164  0.23629  0.88541  Biso   1.000  H
  H150     1.0000 0.35001  0.18729  0.83213  Biso   1.000  H
  C94      1.0000 0.04277  0.34065  0.64539  Biso   1.000  C
  H151     1.0000 0.13050  0.38240  0.72341  Biso   1.000  H
  C95      1.0000 0.09576  0.32679  0.79881  Biso   1.000  C
  C96      1.0000 0.36679  0.08297  0.73914  Biso   1.000  C
  O78      1.0000 0.35650  0.16141  0.51534  Biso   1.000  O
  H152     1.0000 0.43110  0.11242  0.58435  Biso   1.000  H
  C97      1.0000 0.32849  0.08153  0.58285  Biso   1.000  C
  H153     1.0000 0.42314  0.28020  0.85613  Biso   1.000  H
  O79      1.0000 0.05853  0.36060  0.57148  Biso   1.000  O
  H154     1.0000 0.02739  0.30231  0.63681  Biso   1.000  H
  C98      1.0000 0.98019  0.37290  0.66535  Biso   1.000  C
  O80      1.0000 0.03497  0.35760  0.81261  Biso   1.000  O
  H155     1.0000 0.08202  0.28801  0.79471  Biso   1.000  H
  C99      1.0000 0.16034  0.33556  0.87484  Biso   1.000  C
  C100     1.0000 0.35455  0.04812  0.66124  Biso   1.000  C
  H156     1.0000 0.31813  0.09731  0.74392  Biso   1.000  H
  C101     1.0000 0.40386  0.05188  0.81771  Biso   1.000  C
  H157     1.0000 0.39272  0.17099  0.49763  Biso   1.000  H
  O81      1.0000 0.32523  0.04968  0.51068  Biso   1.000  O
  H158     1.0000 0.27814  0.09619  0.57993  Biso   1.000  H
  H159     1.0000 0.08339  0.38901  0.58242  Biso   1.000  H
  O82      1.0000 0.91447  0.36994  0.60026  Biso   1.000  O
  C102     1.0000 0.96807  0.35371  0.74846  Biso   1.000  C
  H160     1.0000 0.99602  0.41128  0.67194  Biso   1.000  H
  O83      1.0000 0.18767  0.38901  0.88099  Biso   1.000  O
  H161     1.0000 0.14413  0.32699  0.92544  Biso   1.000  H
  H162     1.0000 0.20093  0.31068  0.87242  Biso   1.000  H
  O84      1.0000 0.29724  0.01030  0.66106  Biso   1.000  O
  H163     1.0000 0.40143  0.02889  0.66081  Biso   1.000  H
  O85      1.0000 0.40946  0.08349  0.89051  Biso   1.000  O
  H164     1.0000 0.37480  0.01919  0.82070  Biso   1.000  H
  H165     1.0000 0.45413  0.04070  0.81522  Biso   1.000  H
  H166     1.0000 0.30170  0.02131  0.51329  Biso   1.000  H
  H167     1.0000 0.88901  0.34370  0.60834  Biso   1.000  H
  O86      1.0000 0.94200  0.30031  0.73808  Biso   1.000  O
  H168     1.0000 0.92964  0.37679  0.76313  Biso   1.000  H
  H169     1.0000 0.15403  0.41020  0.88522  Biso   1.000  H
  C103     1.0000 0.31481  0.95493  0.66709  Biso   1.000  C
  H170     1.0000 0.44213  0.10709  0.89380  Biso   1.000  H
  C104     1.0000 0.87339  0.28901  0.75760  Biso   1.000  C
  O87      1.0000 0.31163  0.93390  0.74517  Biso   1.000  O
  H171     1.0000 0.36559  0.94948  0.65950  Biso   1.000  H
  C105     1.0000 0.25824  0.92677  0.59721  Biso   1.000  C
  C106     1.0000 0.82329  0.25936  0.68400  Biso   1.000  C
  H172     1.0000 0.84923  0.32338  0.76692  Biso   1.000  H
  C107     1.0000 0.88944  0.25544  0.83667  Biso   1.000  C
  C108     1.0000 0.24080  0.94239  0.76276  Biso   1.000  C
  O88      1.0000 0.26432  0.94640  0.51870  Biso   1.000  O
  H173     1.0000 0.26800  0.88730  0.60051  Biso   1.000  H
  C109     1.0000 0.18150  0.93742  0.60778  Biso   1.000  C
  O89      1.0000 0.80536  0.29618  0.61661  Biso   1.000  O
  C110     1.0000 0.75404  0.24086  0.70812  Biso   1.000  C
  H174     1.0000 0.85009  0.22780  0.66901  Biso   1.000  H
  O90      1.0000 0.82109  0.23593  0.85227  Biso   1.000  O
  H175     1.0000 0.92011  0.22391  0.82934  Biso   1.000  H
  C111     1.0000 0.93032  0.28545  0.91344  Biso   1.000  C
  C112     1.0000 0.17859  0.91771  0.69344  Biso   1.000  C
  H176     1.0000 0.23181  0.98181  0.76531  Biso   1.000  H
  C113     1.0000 0.24544  0.91779  0.84774  Biso   1.000  C
  H177     1.0000 0.27693  0.92120  0.49172  Biso   1.000  H
  O91      1.0000 0.12772  0.91030  0.54456  Biso   1.000  O
  H178     1.0000 0.17143  0.97680  0.60362  Biso   1.000  H
  H179     1.0000 0.78979  0.27932  0.57179  Biso   1.000  H
  O92      1.0000 0.70466  0.21301  0.64154  Biso   1.000  O
  C114     1.0000 0.77648  0.20580  0.78545  Biso   1.000  C
  H180     1.0000 0.72783  0.27319  0.72173  Biso   1.000  H
  O93      1.0000 0.89417  0.33460  0.92227  Biso   1.000  O
  H181     1.0000 0.93341  0.26281  0.96305  Biso   1.000  H
  H182     1.0000 0.98141  0.29302  0.91015  Biso   1.000  H
  O94      1.0000 0.10792  0.93394  0.70507  Biso   1.000  O
  H183     1.0000 0.18250  0.87769  0.69574  Biso   1.000  H
  O95      1.0000 0.25102  0.86110  0.84668  Biso   1.000  O
  H184     1.0000 0.28922  0.93249  0.88870  Biso   1.000  H
  H185     1.0000 0.20074  0.92789  0.86564  Biso   1.000  H
  H186     1.0000 0.08893  0.90589  0.56023  Biso   1.000  H
  H187     1.0000 0.71800  0.18088  0.64160  Biso   1.000  H
  O96      1.0000 0.81528  0.16109  0.76593  Biso   1.000  O
  H188     1.0000 0.73102  0.19318  0.80074  Biso   1.000  H
  H189     1.0000 0.92601  0.35752  0.94502  Biso   1.000  H
  C115     1.0000 0.06821  0.89492  0.73746  Biso   1.000  C
  H190     1.0000 0.28934  0.85129  0.88255  Biso   1.000  H
  C116     1.0000 0.79481  0.10833  0.78532  Biso   1.000  C
  C117     1.0000 0.99239  0.88799  0.67591  Biso   1.000  C
  O97      1.0000 0.06077  0.91046  0.81610  Biso   1.000  O
  H191     1.0000 0.09560  0.86010  0.74293  Biso   1.000  H
  C118     1.0000 0.77853  0.07528  0.70550  Biso   1.000  C
  H192     1.0000 0.74949  0.11021  0.80652  Biso   1.000  H
  C119     1.0000 0.85927  0.08337  0.85190  Biso   1.000  C
  H193     1.0000 0.96709  0.85670  0.69413  Biso   1.000  H
  C120     1.0000 0.94385  0.93714  0.67312  Biso   1.000  C
  O98      1.0000 0.00284  0.87621  0.59597  Biso   1.000  O
  C121     1.0000 0.01804  0.95854  0.81597  Biso   1.000  C
  O99      1.0000 0.71399  0.09715  0.64918  Biso   1.000  O
  C122     1.0000 0.76643  0.01679  0.72596  Biso   1.000  C
  H194     1.0000 0.82153  0.07768  0.68033  Biso   1.000  H
  O100     1.0000 0.84512  0.02796  0.86421  Biso   1.000  O
  H195     1.0000 0.90621  0.08670  0.83400  Biso   1.000  H
  C123     1.0000 0.86904  0.11017  0.93570  Biso   1.000  C
  O101     1.0000 0.87111  0.92785  0.62133  Biso   1.000  O
  H196     1.0000 0.96651  0.96831  0.65092  Biso   1.000  H
  C124     1.0000 0.93880  0.94992  0.76133  Biso   1.000  C
  H197     1.0000 0.96921  0.85541  0.57055  Biso   1.000  H
  H198     1.0000 0.04163  0.98898  0.79341  Biso   1.000  H
  C125     1.0000 0.02054  0.96931  0.90605  Biso   1.000  C
  H199     1.0000 0.71303  0.08802  0.60045  Biso   1.000  H
  O102     1.0000 0.75152  0.98426  0.65341  Biso   1.000  O
  C126     1.0000 0.83385  0.99607  0.79142  Biso   1.000  C
  H200     1.0000 0.72262  0.01510  0.74970  Biso   1.000  H
  O103     1.0000 0.92736  0.08637  0.99842  Biso   1.000  O
  H201     1.0000 0.88013  0.14859  0.93073  Biso   1.000  H
  H202     1.0000 0.82212  0.10761  0.95255  Biso   1.000  H
  H203     1.0000 0.87039  0.93430  0.57160  Biso   1.000  H
  O104     1.0000 0.89594  0.99772  0.75791  Biso   1.000  O
  H204     1.0000 0.91464  0.91959  0.78352  Biso   1.000  H
  H205     1.0000 0.98489  0.99812  0.90922  Biso   1.000  H
  O105     1.0000 0.09350  0.98506  0.95143  Biso   1.000  O
  H206     1.0000 0.00583  0.93658  0.93135  Biso   1.000  H
  H207     1.0000 0.79083  0.96939  0.64962  Biso   1.000  H
  H208     1.0000 0.82469  0.95821  0.80540  Biso   1.000  H
  H209     1.0000 0.91607  0.05461  0.00626  Biso   1.000  H
  H210     1.0000 0.09163  0.01518  0.97325  Biso   1.000  H
  O106     1.0000 0.71348  0.25828  0.46903  Biso   1.000  O
  C127     1.0000 0.73610  0.26521  0.39425  Biso   1.000  C
  H211     1.0000 0.70452  0.22571  0.47494  Biso   1.000  H
  C128     1.0000 0.68020  0.23929  0.32077  Biso   1.000  C
  C129     1.0000 0.74147  0.32463  0.37684  Biso   1.000  C
  H212     1.0000 0.78581  0.24819  0.40090  Biso   1.000  H
  C130     1.0000 0.70421  0.24927  0.24114  Biso   1.000  C
  O107     1.0000 0.67872  0.18341  0.33718  Biso   1.000  O
  H213     1.0000 0.62994  0.25500  0.31524  Biso   1.000  H
  C131     1.0000 0.76110  0.33216  0.29379  Biso   1.000  C
  O108     1.0000 0.79408  0.35143  0.44218  Biso   1.000  O
  H214     1.0000 0.69170  0.34109  0.37181  Biso   1.000  H
  C132     1.0000 0.65088  0.22679  0.16399  Biso   1.000  C
  O109     1.0000 0.70893  0.30596  0.22877  Biso   1.000  O
  H215     1.0000 0.75422  0.23288  0.24723  Biso   1.000  H
  C133     1.0000 0.60939  0.16013  0.33500  Biso   1.000  C
  O110     1.0000 0.83318  0.31064  0.30231  Biso   1.000  O
  H216     1.0000 0.76154  0.37130  0.28098  Biso   1.000  H
  H217     1.0000 0.83702  0.34081  0.44342  Biso   1.000  H
  O111     1.0000 0.57743  0.24719  0.15379  Biso   1.000  O
  H218     1.0000 0.66845  0.23629  0.11463  Biso   1.000  H
  H219     1.0000 0.65002  0.18729  0.16791  Biso   1.000  H
  O112     1.0000 0.58419  0.12676  0.26445  Biso   1.000  O
  H220     1.0000 0.57223  0.18922  0.33351  Biso   1.000  H
  C134     1.0000 0.61832  0.12740  0.41476  Biso   1.000  C
  C135     1.0000 0.88782  0.34462  0.28229  Biso   1.000  C
  H221     1.0000 0.57690  0.28020  0.14391  Biso   1.000  H
  C136     1.0000 0.63324  0.08297  0.26090  Biso   1.000  C
  O113     1.0000 0.64354  0.16141  0.48470  Biso   1.000  O
  H222     1.0000 0.56893  0.11242  0.41569  Biso   1.000  H
  C137     1.0000 0.67155  0.08153  0.41719  Biso   1.000  C
  C138     1.0000 0.95727  0.34065  0.35465  Biso   1.000  C
  H223     1.0000 0.86954  0.38240  0.27663  Biso   1.000  H
  C139     1.0000 0.90427  0.32679  0.20123  Biso   1.000  C
  C140     1.0000 0.64553  0.04812  0.33873  Biso   1.000  C
  H224     1.0000 0.68190  0.09731  0.25612  Biso   1.000  H
  C141     1.0000 0.59617  0.05188  0.18233  Biso   1.000  C
  H225     1.0000 0.60731  0.17099  0.50241  Biso   1.000  H
  O114     1.0000 0.67486  0.04968  0.48936  Biso   1.000  O
  H226     1.0000 0.72194  0.09619  0.42011  Biso   1.000  H
  O115     1.0000 0.94151  0.36060  0.42856  Biso   1.000  O
  H227     1.0000 0.97265  0.30231  0.36323  Biso   1.000  H
  C142     1.0000 0.01984  0.37290  0.33469  Biso   1.000  C
  O116     1.0000 0.96506  0.35760  0.18743  Biso   1.000  O
  H228     1.0000 0.91802  0.28801  0.20533  Biso   1.000  H
  C143     1.0000 0.83970  0.33556  0.12520  Biso   1.000  C
  O117     1.0000 0.70279  0.01030  0.33898  Biso   1.000  O
  H229     1.0000 0.59860  0.02889  0.33923  Biso   1.000  H
  O118     1.0000 0.59057  0.08349  0.10953  Biso   1.000  O
  H230     1.0000 0.62522  0.01919  0.17928  Biso   1.000  H
  H231     1.0000 0.54591  0.04070  0.18481  Biso   1.000  H
  H232     1.0000 0.69832  0.02131  0.48669  Biso   1.000  H
  H233     1.0000 0.91665  0.38901  0.41762  Biso   1.000  H
  O119     1.0000 0.08556  0.36994  0.39978  Biso   1.000  O
  C144     1.0000 0.03196  0.35371  0.25158  Biso   1.000  C
  H234     1.0000 0.00402  0.41128  0.32810  Biso   1.000  H
  O120     1.0000 0.81236  0.38901  0.11904  Biso   1.000  O
  H235     1.0000 0.85591  0.32699  0.07460  Biso   1.000  H
  H236     1.0000 0.79911  0.31068  0.12762  Biso   1.000  H
  C145     1.0000 0.68528  0.95493  0.33295  Biso   1.000  C
  H237     1.0000 0.55789  0.10709  0.10618  Biso   1.000  H
  H238     1.0000 0.11103  0.34370  0.39170  Biso   1.000  H
  O121     1.0000 0.05803  0.30031  0.26196  Biso   1.000  O
  H239     1.0000 0.07045  0.37679  0.23691  Biso   1.000  H
  H240     1.0000 0.84600  0.41020  0.11482  Biso   1.000  H
  O122     1.0000 0.68839  0.93390  0.25481  Biso   1.000  O
  H241     1.0000 0.63444  0.94948  0.34054  Biso   1.000  H
  C146     1.0000 0.74179  0.92677  0.40283  Biso   1.000  C
  C147     1.0000 0.12668  0.28901  0.24238  Biso   1.000  C
  C148     1.0000 0.75929  0.94239  0.23728  Biso   1.000  C
  O123     1.0000 0.73572  0.94640  0.48134  Biso   1.000  O
  H242     1.0000 0.73203  0.88730  0.39953  Biso   1.000  H
  C149     1.0000 0.81852  0.93742  0.39220  Biso   1.000  C
  C150     1.0000 0.17673  0.25936  0.31598  Biso   1.000  C
  H243     1.0000 0.15080  0.32338  0.23312  Biso   1.000  H
  C151     1.0000 0.11058  0.25544  0.16331  Biso   1.000  C
  C152     1.0000 0.82150  0.91771  0.30660  Biso   1.000  C
  H244     1.0000 0.76822  0.98181  0.23473  Biso   1.000  H
  C153     1.0000 0.75460  0.91779  0.15230  Biso   1.000  C
  H245     1.0000 0.72310  0.92120  0.50832  Biso   1.000  H
  O124     1.0000 0.87235  0.91030  0.45542  Biso   1.000  O
  H246     1.0000 0.82860  0.97680  0.39642  Biso   1.000  H
  O125     1.0000 0.19466  0.29618  0.38337  Biso   1.000  O
  C154     1.0000 0.24605  0.24086  0.29192  Biso   1.000  C
  H247     1.0000 0.14994  0.22780  0.33103  Biso   1.000  H
  O126     1.0000 0.17894  0.23593  0.14776  Biso   1.000  O
  H248     1.0000 0.07992  0.22391  0.17070  Biso   1.000  H
  C155     1.0000 0.06977  0.28545  0.08660  Biso   1.000  C
  O127     1.0000 0.89211  0.93394  0.29497  Biso   1.000  O
  H249     1.0000 0.81754  0.87769  0.30430  Biso   1.000  H
  O128     1.0000 0.74901  0.86110  0.15336  Biso   1.000  O
  H250     1.0000 0.71080  0.93249  0.11127  Biso   1.000  H
  H251     1.0000 0.79929  0.92789  0.13440  Biso   1.000  H
  H252     1.0000 0.91111  0.90589  0.43981  Biso   1.000  H
  H253     1.0000 0.21023  0.27932  0.42819  Biso   1.000  H
  O129     1.0000 0.29537  0.21301  0.35850  Biso   1.000  O
  C156     1.0000 0.22356  0.20580  0.21459  Biso   1.000  C
  H254     1.0000 0.27221  0.27319  0.27831  Biso   1.000  H
  O130     1.0000 0.10587  0.33460  0.07777  Biso   1.000  O
  H255     1.0000 0.06662  0.26281  0.03699  Biso   1.000  H
  H256     1.0000 0.01862  0.29302  0.08989  Biso   1.000  H
  C157     1.0000 0.93183  0.89492  0.26258  Biso   1.000  C
  H257     1.0000 0.71069  0.85129  0.11749  Biso   1.000  H
  H258     1.0000 0.28203  0.18088  0.35844  Biso   1.000  H
  O131     1.0000 0.18475  0.16109  0.23411  Biso   1.000  O
  H259     1.0000 0.26902  0.19318  0.19930  Biso   1.000  H
  H260     1.0000 0.07403  0.35752  0.05502  Biso   1.000  H
  O132     1.0000 0.93926  0.91046  0.18394  Biso   1.000  O
  H261     1.0000 0.90444  0.86010  0.25711  Biso   1.000  H
  C158     1.0000 0.00764  0.88799  0.32413  Biso   1.000  C
  C159     1.0000 0.20528  0.10833  0.21472  Biso   1.000  C
  C160     1.0000 0.98200  0.95854  0.18407  Biso   1.000  C
  O133     1.0000 0.99719  0.87621  0.40407  Biso   1.000  O
  H262     1.0000 0.03294  0.85670  0.30591  Biso   1.000  H
  C161     1.0000 0.05619  0.93714  0.32692  Biso   1.000  C
  C162     1.0000 0.22156  0.07528  0.29454  Biso   1.000  C
  H263     1.0000 0.25055  0.11021  0.19352  Biso   1.000  H
  C163     1.0000 0.14075  0.08337  0.14808  Biso   1.000  C
  H264     1.0000 0.95840  0.98898  0.20663  Biso   1.000  H
  C164     1.0000 0.97949  0.96931  0.09399  Biso   1.000  C
  C165     1.0000 0.06129  0.94992  0.23871  Biso   1.000  C
  H265     1.0000 0.03083  0.85541  0.42949  Biso   1.000  H
  O134     1.0000 0.12893  0.92785  0.37871  Biso   1.000  O
  H266     1.0000 0.03353  0.96831  0.34912  Biso   1.000  H
  O135     1.0000 0.28605  0.09715  0.35086  Biso   1.000  O
  C166     1.0000 0.23360  0.01679  0.27408  Biso   1.000  C
  H267     1.0000 0.17851  0.07768  0.31971  Biso   1.000  H
  O136     1.0000 0.15492  0.02796  0.13583  Biso   1.000  O
  H268     1.0000 0.09381  0.08670  0.16598  Biso   1.000  H
  C167     1.0000 0.13098  0.11017  0.06428  Biso   1.000  C
  O137     1.0000 0.90653  0.98506  0.04861  Biso   1.000  O
  H269     1.0000 0.99421  0.93658  0.06869  Biso   1.000  H
  H270     1.0000 0.01515  0.99812  0.09082  Biso   1.000  H
  O138     1.0000 0.10410  0.99772  0.24213  Biso   1.000  O
  H271     1.0000 0.08545  0.91959  0.21652  Biso   1.000  H
  H272     1.0000 0.12964  0.93430  0.42844  Biso   1.000  H
  H273     1.0000 0.28701  0.08802  0.39959  Biso   1.000  H
  O139     1.0000 0.24851  0.98426  0.34663  Biso   1.000  O
  C168     1.0000 0.16617  0.99607  0.20856  Biso   1.000  C
  H274     1.0000 0.27742  0.01510  0.25034  Biso   1.000  H
  O140     1.0000 0.07268  0.08637  0.00162  Biso   1.000  O
  H275     1.0000 0.11990  0.14859  0.06931  Biso   1.000  H
  H276     1.0000 0.17792  0.10761  0.04749  Biso   1.000  H
  H277     1.0000 0.90841  0.01518  0.02679  Biso   1.000  H
  H278     1.0000 0.20926  0.96939  0.35042  Biso   1.000  H
  H279     1.0000 0.17533  0.95821  0.19457  Biso   1.000  H
  H280     1.0000 0.08396  0.05461  0.99378  Biso   1.000  H
  Ne1      1.0000 0.41483  0.62954  0.27355  Biso   1.000  Ne
  He1      1.0000 0.45479  0.62862  0.39062  Biso   1.000  He
  He2      1.0000 0.38741  0.63511  0.17845  Biso   1.000  He
  Ar1      1.0000 0.44626  0.62915  0.36861  Biso   1.000  Ar
  Ne2      1.0000 0.08520  0.12954  0.72648  Biso   1.000  Ne
  He3      1.0000 0.11124  0.13516  0.81828  Biso   1.000  He
  He4      1.0000 0.02789  0.12601  0.55056  Biso   1.000  He
  Ar2      1.0000 0.02508  0.12854  0.55597  Biso   1.000  Ar
  Ne3      1.0000 0.91484  0.12954  0.27355  Biso   1.000  Ne
  He5      1.0000 0.95483  0.12865  0.39061  Biso   1.000  He
  He6      1.0000 0.88747  0.13512  0.17845  Biso   1.000  He
  Ar3      1.0000 0.94300  0.12963  0.36041  Biso   1.000  Ar
  Ne4      1.0000 0.58521  0.62954  0.72648  Biso   1.000  Ne
  He7      1.0000 0.66526  0.65837  0.93746  Biso   1.000  He
  He8      1.0000 0.57615  0.63643  0.73117  Biso   1.000  He
  Ar4      1.0000 0.58493  0.63105  0.72532  Biso   1.000  Ar
