data_image0
_cell_length_a       10.755
_cell_length_b       18.195
_cell_length_c       20.074
_cell_angle_alpha    101
_cell_angle_beta     99.21
_cell_angle_gamma    104.67

_symmetry_space_group_name_H-M    "P 1"
_symmetry_int_tables_number       1

loop_
  _symmetry_equiv_pos_as_xyz
  'x, y, z'

loop_
  _atom_site_label
  _atom_site_occupancy
  _atom_site_fract_x
  _atom_site_fract_y
  _atom_site_fract_z
  _atom_site_thermal_displace_type
  _atom_site_B_iso_or_equiv
  _atom_site_type_symbol
  C1       1.0000 0.39829  0.33543  0.36042  Biso   1.000  C
  C2       1.0000 0.41209  0.29611  0.41290  Biso   1.000  C
  H1       1.0000 0.31534  0.33370  0.33701  Biso   1.000  H
  C3       1.0000 0.50956  0.37657  0.34398  Biso   1.000  C
  N1       1.0000 0.52776  0.29423  0.44640  Biso   1.000  N
  C4       1.0000 0.28986  0.25262  0.43090  Biso   1.000  C
  H2       1.0000 0.50382  0.40420  0.30970  Biso   1.000  H
  C5       1.0000 0.62953  0.37660  0.37888  Biso   1.000  C
  C6       1.0000 0.63604  0.33450  0.42929  Biso   1.000  C
  O1       1.0000 0.18444  0.26109  0.40760  Biso   1.000  O
  N2       1.0000 0.30260  0.20602  0.47251  Biso   1.000  N
  H3       1.0000 0.70638  0.40472  0.36890  Biso   1.000  H
  C7       1.0000 0.76816  0.33477  0.46778  Biso   1.000  C
  H4       1.0000 0.38074  0.20593  0.49051  Biso   1.000  H
  C8       1.0000 0.19182  0.15460  0.48978  Biso   1.000  C
  O2       1.0000 0.86846  0.37951  0.46018  Biso   1.000  O
  N3       1.0000 0.77010  0.28682  0.50882  Biso   1.000  N
  C9       1.0000 0.21581  0.15052  0.56380  Biso   1.000  C
  H5       1.0000 0.11520  0.17292  0.47969  Biso   1.000  H
  H6       1.0000 0.17208  0.10241  0.46029  Biso   1.000  H
  H7       1.0000 0.69743  0.25949  0.51548  Biso   1.000  H
  C10      1.0000 0.89413  0.27961  0.54278  Biso   1.000  C
  C11      1.0000 0.10522  0.08960  0.57852  Biso   1.000  C
  H8       1.0000 0.29768  0.13792  0.57550  Biso   1.000  H
  H9       1.0000 0.22497  0.20132  0.59319  Biso   1.000  H
  H10      1.0000 0.92976  0.25089  0.50871  Biso   1.000  H
  H11      1.0000 0.95586  0.33150  0.56141  Biso   1.000  H
  C12      1.0000 0.88108  0.23867  0.60078  Biso   1.000  C
  H12      1.0000 0.09039  0.04020  0.54528  Biso   1.000  H
  H13      1.0000 0.02527  0.10520  0.57051  Biso   1.000  H
  C13      1.0000 0.12807  0.07668  0.64989  Biso   1.000  C
  H14      1.0000 0.82147  0.18620  0.58169  Biso   1.000  H
  H15      1.0000 0.96652  0.23388  0.62008  Biso   1.000  H
  C14      1.0000 0.83035  0.28028  0.65920  Biso   1.000  C
  C15      1.0000 0.12250  0.00221  0.65930  Biso   1.000  C
  C16      1.0000 0.15078  0.13782  0.70762  Biso   1.000  C
  H16      1.0000 0.73916  0.27668  0.64141  Biso   1.000  H
  H17      1.0000 0.88006  0.33530  0.67199  Biso   1.000  H
  C17      1.0000 0.83779  0.25029  0.72338  Biso   1.000  C
  C18      1.0000 0.14129  0.99158  0.72531  Biso   1.000  C
  H18      1.0000 0.10628  0.96030  0.62122  Biso   1.000  H
  H19      1.0000 0.15406  0.18768  0.70190  Biso   1.000  H
  C19      1.0000 0.16875  0.12488  0.77389  Biso   1.000  C
  C20      1.0000 0.82074  0.17017  0.71959  Biso   1.000  C
  C21      1.0000 0.85957  0.30012  0.78861  Biso   1.000  C
  C22      1.0000 0.16419  0.05220  0.78320  Biso   1.000  C
  O3       1.0000 0.13754  0.91961  0.73972  Biso   1.000  O
  O4       1.0000 0.18915  0.18150  0.83319  Biso   1.000  O
  H20      1.0000 0.80548  0.13532  0.67678  Biso   1.000  H
  C23      1.0000 0.82686  0.14391  0.77930  Biso   1.000  C
  C24      1.0000 0.86138  0.27180  0.84682  Biso   1.000  C
  H21      1.0000 0.87310  0.35342  0.79262  Biso   1.000  H
  H22      1.0000 0.17635  0.04352  0.82762  Biso   1.000  H
  C25      1.0000 0.10197  0.85341  0.68510  Biso   1.000  C
  C26      1.0000 0.19016  0.25770  0.82721  Biso   1.000  C
  O5       1.0000 0.81514  0.06782  0.78258  Biso   1.000  O
  C27      1.0000 0.84548  0.19388  0.84401  Biso   1.000  C
  O6       1.0000 0.87822  0.32159  0.90960  Biso   1.000  O
  C28      1.0000 0.10782  0.78581  0.71449  Biso   1.000  C
  H23      1.0000 0.01348  0.84521  0.65899  Biso   1.000  H
  H24      1.0000 0.16191  0.85990  0.65389  Biso   1.000  H
  H25      1.0000 0.26653  0.28121  0.81009  Biso   1.000  H
  H26      1.0000 0.11163  0.25571  0.79470  Biso   1.000  H
  C29      1.0000 0.19514  0.30449  0.89691  Biso   1.000  C
  C30      1.0000 0.80761  0.01198  0.72011  Biso   1.000  C
  H27      1.0000 0.84709  0.17519  0.88401  Biso   1.000  H
  C31      1.0000 0.86327  0.28830  0.96921  Biso   1.000  C
  C32      1.0000 0.91311  0.40422  0.91532  Biso   1.000  C
  O7       1.0000 0.23952  0.79897  0.75210  Biso   1.000  O
  H28      1.0000 0.08232  0.73848  0.67740  Biso   1.000  H
  H29      1.0000 0.04727  0.77918  0.74539  Biso   1.000  H
  O8       1.0000 0.31662  0.31707  0.94159  Biso   1.000  O
  H30      1.0000 0.12467  0.27717  0.91589  Biso   1.000  H
  H31      1.0000 0.18202  0.35450  0.89301  Biso   1.000  H
  H32      1.0000 0.72445  0.00200  0.68791  Biso   1.000  H
  H33      1.0000 0.87836  0.03200  0.69790  Biso   1.000  H
  C33      1.0000 0.81882  0.93927  0.73868  Biso   1.000  C
  H34      1.0000 0.92873  0.26089  0.97680  Biso   1.000  H
  H35      1.0000 0.77697  0.25038  0.95912  Biso   1.000  H
  C34      1.0000 0.87761  0.34650  0.03178  Biso   1.000  C
  C35      1.0000 0.92966  0.44298  0.98830  Biso   1.000  C
  H36      1.0000 0.84433  0.41721  0.88650  Biso   1.000  H
  H37      1.0000 0.99435  0.42117  0.89998  Biso   1.000  H
  C36      1.0000 0.26478  0.73448  0.76728  Biso   1.000  C
  C37      1.0000 0.32183  0.35940  0.00911  Biso   1.000  C
  O9       1.0000 0.71266  0.90811  0.76942  Biso   1.000  O
  H38      1.0000 0.90191  0.94987  0.77129  Biso   1.000  H
  H39      1.0000 0.81756  0.90130  0.69738  Biso   1.000  H
  O10      1.0000 0.77377  0.38130  0.02149  Biso   1.000  O
  H40      1.0000 0.96227  0.38605  0.04182  Biso   1.000  H
  H41      1.0000 0.87276  0.32231  0.07080  Biso   1.000  H
  H42      1.0000 0.95637  0.49941  0.99459  Biso   1.000  H
  H43      1.0000 0.99688  0.42902  0.01732  Biso   1.000  H
  O11      1.0000 0.80609  0.41784  0.00692  Biso   1.000  O
  C38      1.0000 0.39468  0.75409  0.81171  Biso   1.000  C
  H44      1.0000 0.19905  0.71007  0.79048  Biso   1.000  H
  H45      1.0000 0.25949  0.69721  0.72458  Biso   1.000  H
  H46      1.0000 0.31465  0.41112  0.00708  Biso   1.000  H
  H47      1.0000 0.24723  0.33294  0.02580  Biso   1.000  H
  C39      1.0000 0.44161  0.36721  0.05712  Biso   1.000  C
  C40      1.0000 0.72138  0.83841  0.78840  Biso   1.000  C
  C41      1.0000 0.77291  0.45163  0.06648  Biso   1.000  C
  C42      1.0000 0.79613  0.43751  0.08573  Biso   1.000  C
  O12      1.0000 0.49297  0.79069  0.78320  Biso   1.000  O
  H48      1.0000 0.41077  0.70658  0.82102  Biso   1.000  H
  H49      1.0000 0.39700  0.78799  0.85582  Biso   1.000  H
  O13      1.0000 0.55074  0.40472  0.04089  Biso   1.000  O
  H50      1.0000 0.44618  0.31533  0.05998  Biso   1.000  H
  H51      1.0000 0.43803  0.39472  0.10279  Biso   1.000  H
  H52      1.0000 0.71267  0.79848  0.74679  Biso   1.000  H
  H53      1.0000 0.80760  0.84799  0.81769  Biso   1.000  H
  C43      1.0000 0.62036  0.80947  0.82539  Biso   1.000  C
  C44      1.0000 0.66181  0.43606  0.09602  Biso   1.000  C
  H54      1.0000 0.76985  0.49126  0.04052  Biso   1.000  H
  H55      1.0000 0.85257  0.47134  0.10289  Biso   1.000  H
  C45      1.0000 0.66588  0.40054  0.08619  Biso   1.000  C
  H56      1.0000 0.81731  0.49363  0.10383  Biso   1.000  H
  H57      1.0000 0.85621  0.41782  0.11371  Biso   1.000  H
  H58      1.0000 0.62892  0.84919  0.86710  Biso   1.000  H
  H59      1.0000 0.63297  0.76332  0.83948  Biso   1.000  H
  H60      1.0000 0.65683  0.48373  0.12521  Biso   1.000  H
  H61      1.0000 0.66707  0.39881  0.12443  Biso   1.000  H
  H62      1.0000 0.65590  0.41825  0.13322  Biso   1.000  H
  H63      1.0000 0.65861  0.34522  0.07959  Biso   1.000  H
  C46      1.0000 0.60171  0.66461  0.63959  Biso   1.000  C
  C47      1.0000 0.58791  0.70392  0.58710  Biso   1.000  C
  C48      1.0000 0.49041  0.62341  0.65602  Biso   1.000  C
  H64      1.0000 0.68473  0.66628  0.66299  Biso   1.000  H
  N4       1.0000 0.47234  0.70581  0.55360  Biso   1.000  N
  C49      1.0000 0.71014  0.74742  0.56910  Biso   1.000  C
  C50      1.0000 0.37053  0.62338  0.62112  Biso   1.000  C
  H65      1.0000 0.49616  0.59578  0.69030  Biso   1.000  H
  C51      1.0000 0.36403  0.66548  0.57072  Biso   1.000  C
  O14      1.0000 0.81563  0.73889  0.59241  Biso   1.000  O
  N5       1.0000 0.69740  0.79402  0.52749  Biso   1.000  N
  H66      1.0000 0.29362  0.59531  0.63111  Biso   1.000  H
  C52      1.0000 0.23182  0.66521  0.53223  Biso   1.000  C
  H67      1.0000 0.61926  0.79411  0.50949  Biso   1.000  H
  C53      1.0000 0.80816  0.84538  0.51022  Biso   1.000  C
  N6       1.0000 0.22990  0.71322  0.49118  Biso   1.000  N
  O15      1.0000 0.13154  0.62052  0.53982  Biso   1.000  O
  C54      1.0000 0.78419  0.84951  0.43620  Biso   1.000  C
  H68      1.0000 0.88480  0.82711  0.52031  Biso   1.000  H
  H69      1.0000 0.82792  0.89763  0.53972  Biso   1.000  H
  C55      1.0000 0.10587  0.72043  0.45722  Biso   1.000  C
  H70      1.0000 0.30261  0.74047  0.48447  Biso   1.000  H
  C56      1.0000 0.89476  0.91038  0.42148  Biso   1.000  C
  H71      1.0000 0.70232  0.86211  0.42450  Biso   1.000  H
  H72      1.0000 0.77503  0.79872  0.40682  Biso   1.000  H
  C57      1.0000 0.11889  0.76131  0.39922  Biso   1.000  C
  H73      1.0000 0.07022  0.74909  0.49129  Biso   1.000  H
  H74      1.0000 0.04412  0.66848  0.43860  Biso   1.000  H
  C58      1.0000 0.87191  0.92330  0.35012  Biso   1.000  C
  H75      1.0000 0.90958  0.95978  0.45472  Biso   1.000  H
  H76      1.0000 0.97471  0.89478  0.42949  Biso   1.000  H
  C59      1.0000 0.16962  0.71970  0.34081  Biso   1.000  C
  H77      1.0000 0.17851  0.81378  0.41831  Biso   1.000  H
  H78      1.0000 0.03355  0.76610  0.37992  Biso   1.000  H
  C60      1.0000 0.84922  0.86221  0.29238  Biso   1.000  C
  C61      1.0000 0.87750  0.99782  0.34070  Biso   1.000  C
  C62      1.0000 0.16218  0.74969  0.27662  Biso   1.000  C
  H79      1.0000 0.26081  0.72330  0.35860  Biso   1.000  H
  H80      1.0000 0.11991  0.66468  0.32801  Biso   1.000  H
  C63      1.0000 0.83123  0.87510  0.22611  Biso   1.000  C
  H81      1.0000 0.84591  0.81230  0.29810  Biso   1.000  H
  C64      1.0000 0.85869  0.00840  0.27470  Biso   1.000  C
  H82      1.0000 0.89370  0.03968  0.37878  Biso   1.000  H
  C65      1.0000 0.14043  0.69991  0.21139  Biso   1.000  C
  C66      1.0000 0.17923  0.82981  0.28042  Biso   1.000  C
  O16      1.0000 0.81092  0.81848  0.16681  Biso   1.000  O
  C67      1.0000 0.83579  0.94778  0.21680  Biso   1.000  C
  O17      1.0000 0.86246  0.08043  0.26029  Biso   1.000  O
  C68      1.0000 0.13859  0.72818  0.15319  Biso   1.000  C
  H83      1.0000 0.12690  0.64661  0.20739  Biso   1.000  H
  C69      1.0000 0.17311  0.85607  0.22070  Biso   1.000  C
  H84      1.0000 0.19450  0.86470  0.32317  Biso   1.000  H
  C70      1.0000 0.80981  0.74228  0.17280  Biso   1.000  C
  H85      1.0000 0.82375  0.95652  0.17238  Biso   1.000  H
  C71      1.0000 0.89803  0.14662  0.31490  Biso   1.000  C
  O18      1.0000 0.12184  0.67839  0.09040  Biso   1.000  O
  C72      1.0000 0.15450  0.80610  0.15600  Biso   1.000  C
  O19      1.0000 0.18495  0.93222  0.21743  Biso   1.000  O
  C73      1.0000 0.80493  0.69549  0.10310  Biso   1.000  C
  H86      1.0000 0.73347  0.71883  0.18991  Biso   1.000  H
  H87      1.0000 0.88837  0.74433  0.20531  Biso   1.000  H
  C74      1.0000 0.89218  0.21422  0.28551  Biso   1.000  C
  H88      1.0000 0.98652  0.15482  0.34102  Biso   1.000  H
  H89      1.0000 0.83809  0.14014  0.34611  Biso   1.000  H
  C75      1.0000 0.08689  0.59582  0.08468  Biso   1.000  C
  C76      1.0000 0.13671  0.71168  0.03079  Biso   1.000  C
  H90      1.0000 0.15288  0.82479  0.11600  Biso   1.000  H
  C77      1.0000 0.19237  0.98800  0.27990  Biso   1.000  C
  O20      1.0000 0.68344  0.68291  0.05841  Biso   1.000  O
  H91      1.0000 0.87530  0.72281  0.08411  Biso   1.000  H
  H92      1.0000 0.81795  0.64548  0.10700  Biso   1.000  H
  O21      1.0000 0.76055  0.20101  0.24791  Biso   1.000  O
  H93      1.0000 0.91765  0.26149  0.32260  Biso   1.000  H
  H94      1.0000 0.95271  0.22080  0.25462  Biso   1.000  H
  C78      1.0000 0.07031  0.55700  0.01170  Biso   1.000  C
  H95      1.0000 0.15567  0.58283  0.11350  Biso   1.000  H
  H96      1.0000 0.00560  0.57880  0.09997  Biso   1.000  H
  H97      1.0000 0.07133  0.73909  0.02320  Biso   1.000  H
  H98      1.0000 0.22301  0.74960  0.04088  Biso   1.000  H
  C79      1.0000 0.12237  0.65348  0.96822  Biso   1.000  C
  H99      1.0000 0.27562  0.99797  0.31209  Biso   1.000  H
  H100     1.0000 0.12162  0.96798  0.30211  Biso   1.000  H
  C80      1.0000 0.18122  0.06070  0.26128  Biso   1.000  C
  C81      1.0000 0.67824  0.64057  0.99090  Biso   1.000  C
  C82      1.0000 0.73519  0.26550  0.23272  Biso   1.000  C
  H101     1.0000 0.04363  0.50063  0.00541  Biso   1.000  H
  H102     1.0000 0.00309  0.57095  0.98268  Biso   1.000  H
  O22      1.0000 0.19389  0.58214  0.99308  Biso   1.000  O
  O23      1.0000 0.22620  0.61868  0.97852  Biso   1.000  O
  H103     1.0000 0.03783  0.61398  0.95818  Biso   1.000  H
  H104     1.0000 0.12721  0.67766  0.92921  Biso   1.000  H
  O24      1.0000 0.28743  0.09193  0.23059  Biso   1.000  O
  H105     1.0000 0.09806  0.05011  0.22871  Biso   1.000  H
  H106     1.0000 0.18242  0.09872  0.30258  Biso   1.000  H
  C83      1.0000 0.55837  0.63276  0.94289  Biso   1.000  C
  H107     1.0000 0.68531  0.58885  0.99287  Biso   1.000  H
  H108     1.0000 0.75277  0.66710  0.97420  Biso   1.000  H
  C84      1.0000 0.60529  0.24589  0.18830  Biso   1.000  C
  H109     1.0000 0.80093  0.28991  0.20952  Biso   1.000  H
  H110     1.0000 0.74051  0.30283  0.27542  Biso   1.000  H
  C85      1.0000 0.22707  0.54839  0.93347  Biso   1.000  C
  C86      1.0000 0.20385  0.56247  0.91428  Biso   1.000  C
  C87      1.0000 0.27862  0.16163  0.21160  Biso   1.000  C
  O25      1.0000 0.44933  0.59526  0.95912  Biso   1.000  O
  H111     1.0000 0.55380  0.68469  0.93997  Biso   1.000  H
  H112     1.0000 0.56204  0.60525  0.89722  Biso   1.000  H
  O26      1.0000 0.50701  0.20929  0.21680  Biso   1.000  O
  H113     1.0000 0.58921  0.29340  0.17899  Biso   1.000  H
  H114     1.0000 0.60297  0.21198  0.14419  Biso   1.000  H
  C88      1.0000 0.33819  0.56398  0.90398  Biso   1.000  C
  H115     1.0000 0.23024  0.50878  0.95948  Biso   1.000  H
  H116     1.0000 0.14743  0.52870  0.89711  Biso   1.000  H
  C89      1.0000 0.33412  0.59950  0.91381  Biso   1.000  C
  H117     1.0000 0.18267  0.50634  0.89618  Biso   1.000  H
  H118     1.0000 0.14377  0.58216  0.88629  Biso   1.000  H
  H119     1.0000 0.28730  0.20150  0.25321  Biso   1.000  H
  H120     1.0000 0.19238  0.15199  0.18232  Biso   1.000  H
  C90      1.0000 0.37962  0.19051  0.17462  Biso   1.000  C
  H121     1.0000 0.34315  0.51625  0.87480  Biso   1.000  H
  H122     1.0000 0.33290  0.60117  0.87558  Biso   1.000  H
  H123     1.0000 0.34410  0.58179  0.86679  Biso   1.000  H
  H124     1.0000 0.34136  0.65476  0.92042  Biso   1.000  H
  H125     1.0000 0.37106  0.15079  0.13290  Biso   1.000  H
  H126     1.0000 0.36703  0.23672  0.16052  Biso   1.000  H
  Ne1      1.0000 0.53762  0.18513  0.74669  Biso   1.000  Ne
  He1      1.0000 0.51840  0.24310  0.84231  Biso   1.000  He
  He2      1.0000 0.50596  0.23402  0.77827  Biso   1.000  He
  He3      1.0000 0.47958  0.11988  0.73006  Biso   1.000  He
  Ar1      1.0000 0.51234  0.19343  0.76264  Biso   1.000  Ar
  Ne2      1.0000 0.46239  0.81487  0.25331  Biso   1.000  Ne
  He4      1.0000 0.47298  0.96105  0.45353  Biso   1.000  He
  He5      1.0000 0.49358  0.78366  0.23397  Biso   1.000  He
  He6      1.0000 0.48464  0.76163  0.16597  Biso   1.000  He
  Ar2      1.0000 0.49245  0.81265  0.24443  Biso   1.000  Ar
