data_image0
_cell_length_a       10.711
_cell_length_b       11.869
_cell_length_c       24.406
_cell_angle_alpha    94.36
_cell_angle_beta     102.61
_cell_angle_gamma    103.35

_symmetry_space_group_name_H-M    "P 1"
_symmetry_int_tables_number       1

loop_
  _symmetry_equiv_pos_as_xyz
  'x, y, z'

loop_
  _atom_site_label
  _atom_site_occupancy
  _atom_site_fract_x
  _atom_site_fract_y
  _atom_site_fract_z
  _atom_site_thermal_displace_type
  _atom_site_B_iso_or_equiv
  _atom_site_type_symbol
  C1       1.0000 0.51544  0.36339  0.46244  Biso   1.000  C
  C2       1.0000 0.60231  0.36889  0.42855  Biso   1.000  C
  C3       1.0000 0.55035  0.33198  0.51611  Biso   1.000  C
  H1       1.0000 0.43428  0.38041  0.44969  Biso   1.000  H
  H2       1.0000 0.58040  0.38916  0.39229  Biso   1.000  H
  C4       1.0000 0.72303  0.34413  0.44842  Biso   1.000  C
  N1       1.0000 0.66539  0.30607  0.53624  Biso   1.000  N
  C5       1.0000 0.45752  0.32830  0.55475  Biso   1.000  C
  H3       1.0000 0.78413  0.34862  0.42630  Biso   1.000  H
  C6       1.0000 0.74969  0.31206  0.50256  Biso   1.000  C
  N2       1.0000 0.50127  0.29633  0.60546  Biso   1.000  N
  O1       1.0000 0.35190  0.35413  0.53971  Biso   1.000  O
  C7       1.0000 0.87906  0.28378  0.52569  Biso   1.000  C
  H4       1.0000 0.57751  0.28120  0.61279  Biso   1.000  H
  C8       1.0000 0.42621  0.28588  0.64876  Biso   1.000  C
  N3       1.0000 0.88609  0.23120  0.57229  Biso   1.000  N
  O2       1.0000 0.97024  0.30943  0.50209  Biso   1.000  O
  C9       1.0000 0.51068  0.34619  0.70628  Biso   1.000  C
  H5       1.0000 0.35191  0.31999  0.63799  Biso   1.000  H
  H6       1.0000 0.39144  0.20383  0.65109  Biso   1.000  H
  H7       1.0000 0.81747  0.21548  0.58601  Biso   1.000  H
  C10      1.0000 0.00480  0.19903  0.60114  Biso   1.000  C
  C11      1.0000 0.52952  0.27969  0.75077  Biso   1.000  C
  C12      1.0000 0.56450  0.46529  0.71493  Biso   1.000  C
  H8       1.0000 0.97930  0.12396  0.61440  Biso   1.000  H
  C13      1.0000 0.08640  0.28920  0.65104  Biso   1.000  C
  H9       1.0000 0.05833  0.19076  0.57449  Biso   1.000  H
  C14      1.0000 0.60034  0.33577  0.80423  Biso   1.000  C
  H10      1.0000 0.49509  0.19911  0.74458  Biso   1.000  H
  H11      1.0000 0.55323  0.50863  0.68481  Biso   1.000  H
  C15      1.0000 0.63597  0.52107  0.76890  Biso   1.000  C
  C16      1.0000 0.11707  0.25672  0.70463  Biso   1.000  C
  C17      1.0000 0.13137  0.40437  0.64223  Biso   1.000  C
  O3       1.0000 0.62357  0.28197  0.85176  Biso   1.000  O
  C18      1.0000 0.65363  0.45720  0.81380  Biso   1.000  C
  O4       1.0000 0.68702  0.63932  0.77411  Biso   1.000  O
  H12      1.0000 0.08599  0.17982  0.71061  Biso   1.000  H
  C19      1.0000 0.19513  0.34031  0.74950  Biso   1.000  C
  H13      1.0000 0.11178  0.42579  0.60610  Biso   1.000  H
  C20      1.0000 0.20565  0.48711  0.68781  Biso   1.000  C
  C21      1.0000 0.58919  0.15639  0.84443  Biso   1.000  C
  H14      1.0000 0.70020  0.49422  0.84990  Biso   1.000  H
  C22      1.0000 0.73369  0.69987  0.83096  Biso   1.000  C
  O5       1.0000 0.22238  0.30122  0.80109  Biso   1.000  O
  C23      1.0000 0.23958  0.45597  0.74183  Biso   1.000  C
  O6       1.0000 0.24232  0.59906  0.67578  Biso   1.000  O
  C24      1.0000 0.62507  0.11703  0.90133  Biso   1.000  C
  H15      1.0000 0.49516  0.12627  0.82778  Biso   1.000  H
  H16      1.0000 0.63688  0.12741  0.81931  Biso   1.000  H
  H17      1.0000 0.66392  0.68361  0.85091  Biso   1.000  H
  H18      1.0000 0.80796  0.67367  0.85130  Biso   1.000  H
  C25      1.0000 0.77565  0.82889  0.82812  Biso   1.000  C
  C26      1.0000 0.31790  0.37996  0.84659  Biso   1.000  C
  H19      1.0000 0.29098  0.51148  0.77212  Biso   1.000  H
  C27      1.0000 0.31638  0.68737  0.72238  Biso   1.000  C
  O7       1.0000 0.76342  0.15747  0.92403  Biso   1.000  O
  H20      1.0000 0.59880  0.03238  0.89768  Biso   1.000  H
  H21      1.0000 0.57882  0.14761  0.92662  Biso   1.000  H
  O8       1.0000 0.90523  0.85600  0.81868  Biso   1.000  O
  H22      1.0000 0.77561  0.87253  0.86341  Biso   1.000  H
  H23      1.0000 0.71456  0.85013  0.79762  Biso   1.000  H
  H24      1.0000 0.39709  0.41358  0.83439  Biso   1.000  H
  H25      1.0000 0.28190  0.44291  0.85858  Biso   1.000  H
  C28      1.0000 0.35028  0.31182  0.89455  Biso   1.000  C
  C29      1.0000 0.33602  0.80463  0.70192  Biso   1.000  C
  H26      1.0000 0.26900  0.68600  0.75208  Biso   1.000  H
  H27      1.0000 0.40160  0.67249  0.73789  Biso   1.000  H
  C30      1.0000 0.80713  0.09820  0.96996  Biso   1.000  C
  C31      1.0000 0.95817  0.97964  0.82397  Biso   1.000  C
  O9       1.0000 0.24225  0.28420  0.91980  Biso   1.000  O
  H28      1.0000 0.42814  0.35742  0.92251  Biso   1.000  H
  H29      1.0000 0.36927  0.24053  0.88061  Biso   1.000  H
  O10      1.0000 0.21158  0.83262  0.68625  Biso   1.000  O
  H30      1.0000 0.37472  0.80326  0.66951  Biso   1.000  H
  H31      1.0000 0.39599  0.86364  0.73170  Biso   1.000  H
  H32      1.0000 0.74865  0.09489  0.99542  Biso   1.000  H
  H33      1.0000 0.80380  0.01878  0.95568  Biso   1.000  H
  C32      1.0000 0.94440  0.15890  0.00147  Biso   1.000  C
  H34      1.0000 0.90534  0.01197  0.79478  Biso   1.000  H
  H35      1.0000 0.95609  0.01594  0.86062  Biso   1.000  H
  C33      1.0000 0.09765  0.00390  0.81804  Biso   1.000  C
  C34      1.0000 0.26110  0.20659  0.96102  Biso   1.000  C
  C35      1.0000 0.22556  0.95558  0.69315  Biso   1.000  C
  H36      1.0000 0.96870  0.12262  0.03520  Biso   1.000  H
  H37      1.0000 0.94914  0.23994  0.01342  Biso   1.000  H
  O11      1.0000 0.03501  0.15350  0.96699  Biso   1.000  O
  O12      1.0000 0.09902  0.97026  0.76115  Biso   1.000  O
  H38      1.0000 0.14671  0.96082  0.84312  Biso   1.000  H
  H39      1.0000 0.14008  0.08663  0.82888  Biso   1.000  H
  H40      1.0000 0.24585  0.12793  0.94229  Biso   1.000  H
  H41      1.0000 0.35131  0.23057  0.98402  Biso   1.000  H
  C36      1.0000 0.16684  0.20921  0.99766  Biso   1.000  C
  H42      1.0000 0.30678  0.99472  0.68371  Biso   1.000  H
  H43      1.0000 0.15250  0.97319  0.66710  Biso   1.000  H
  C37      1.0000 0.22866  0.00207  0.75242  Biso   1.000  C
  H44      1.0000 0.17239  0.28956  0.01122  Biso   1.000  H
  H45      1.0000 0.19085  0.16973  0.03020  Biso   1.000  H
  H46      1.0000 0.28768  0.97023  0.77932  Biso   1.000  H
  H47      1.0000 0.26140  0.08647  0.75831  Biso   1.000  H
  C38      1.0000 0.48463  0.63661  0.53755  Biso   1.000  C
  C39      1.0000 0.44974  0.66804  0.48392  Biso   1.000  C
  H48      1.0000 0.56569  0.61959  0.55030  Biso   1.000  H
  C40      1.0000 0.39768  0.63112  0.57148  Biso   1.000  C
  C41      1.0000 0.54254  0.67170  0.44524  Biso   1.000  C
  N4       1.0000 0.33458  0.69393  0.46375  Biso   1.000  N
  C42      1.0000 0.27694  0.65588  0.55157  Biso   1.000  C
  H49      1.0000 0.41955  0.61076  0.60770  Biso   1.000  H
  N5       1.0000 0.49870  0.70367  0.39453  Biso   1.000  N
  O13      1.0000 0.64807  0.64587  0.46028  Biso   1.000  O
  C43      1.0000 0.25028  0.68787  0.49747  Biso   1.000  C
  H50      1.0000 0.21593  0.65139  0.57369  Biso   1.000  H
  C44      1.0000 0.57376  0.71412  0.35124  Biso   1.000  C
  H51      1.0000 0.42246  0.71881  0.38720  Biso   1.000  H
  C45      1.0000 0.12093  0.71624  0.47434  Biso   1.000  C
  C46      1.0000 0.48928  0.65382  0.29371  Biso   1.000  C
  H52      1.0000 0.64806  0.68002  0.36200  Biso   1.000  H
  H53      1.0000 0.60863  0.79618  0.34891  Biso   1.000  H
  N6       1.0000 0.11388  0.76881  0.42770  Biso   1.000  N
  O14      1.0000 0.02982  0.69058  0.49790  Biso   1.000  O
  C47      1.0000 0.43547  0.53472  0.28506  Biso   1.000  C
  C48      1.0000 0.47054  0.72031  0.24922  Biso   1.000  C
  H54      1.0000 0.18252  0.78453  0.41402  Biso   1.000  H
  C49      1.0000 0.99517  0.80098  0.39885  Biso   1.000  C
  C50      1.0000 0.36401  0.47886  0.23114  Biso   1.000  C
  H55      1.0000 0.44683  0.49138  0.31518  Biso   1.000  H
  C51      1.0000 0.39963  0.66424  0.19576  Biso   1.000  C
  H56      1.0000 0.50488  0.80090  0.25541  Biso   1.000  H
  H57      1.0000 0.02064  0.87596  0.38559  Biso   1.000  H
  C52      1.0000 0.91357  0.71081  0.34895  Biso   1.000  C
  H58      1.0000 0.94171  0.80916  0.42550  Biso   1.000  H
  O15      1.0000 0.31305  0.36069  0.22588  Biso   1.000  O
  C53      1.0000 0.34643  0.54281  0.18619  Biso   1.000  C
  O16      1.0000 0.37640  0.71804  0.14823  Biso   1.000  O
  C54      1.0000 0.88290  0.74329  0.29536  Biso   1.000  C
  C55      1.0000 0.86860  0.59564  0.35776  Biso   1.000  C
  C56      1.0000 0.26628  0.30014  0.16903  Biso   1.000  C
  H59      1.0000 0.29977  0.50579  0.15009  Biso   1.000  H
  C57      1.0000 0.41078  0.84362  0.15556  Biso   1.000  C
  H60      1.0000 0.91398  0.82019  0.28939  Biso   1.000  H
  C58      1.0000 0.80493  0.65970  0.25050  Biso   1.000  C
  C59      1.0000 0.79432  0.51289  0.31218  Biso   1.000  C
  H61      1.0000 0.88819  0.57422  0.39390  Biso   1.000  H
  H62      1.0000 0.33607  0.31640  0.14912  Biso   1.000  H
  H63      1.0000 0.19201  0.32633  0.14870  Biso   1.000  H
  C60      1.0000 0.22432  0.17111  0.17187  Biso   1.000  C
  C61      1.0000 0.37490  0.88298  0.09866  Biso   1.000  C
  H64      1.0000 0.50481  0.87374  0.17221  Biso   1.000  H
  H65      1.0000 0.36309  0.87260  0.18068  Biso   1.000  H
  C62      1.0000 0.76039  0.54397  0.25821  Biso   1.000  C
  O17      1.0000 0.77762  0.69880  0.19894  Biso   1.000  O
  O18      1.0000 0.75773  0.40086  0.32421  Biso   1.000  O
  O19      1.0000 0.09486  0.14402  0.18136  Biso   1.000  O
  H66      1.0000 0.22436  0.12748  0.13658  Biso   1.000  H
  H67      1.0000 0.28552  0.14989  0.20241  Biso   1.000  H
  O20      1.0000 0.23656  0.84247  0.07600  Biso   1.000  O
  H68      1.0000 0.40117  0.96763  0.10231  Biso   1.000  H
  H69      1.0000 0.42118  0.85241  0.07342  Biso   1.000  H
  H70      1.0000 0.70901  0.48854  0.22792  Biso   1.000  H
  C63      1.0000 0.68214  0.61996  0.15340  Biso   1.000  C
  C64      1.0000 0.68359  0.31264  0.27761  Biso   1.000  C
  C65      1.0000 0.04180  0.02037  0.17602  Biso   1.000  C
  C66      1.0000 0.19293  0.90180  0.03004  Biso   1.000  C
  C67      1.0000 0.64969  0.68819  0.10544  Biso   1.000  C
  H71      1.0000 0.60288  0.58642  0.16560  Biso   1.000  H
  H72      1.0000 0.71806  0.55709  0.14141  Biso   1.000  H
  C68      1.0000 0.66395  0.19538  0.29807  Biso   1.000  C
  H73      1.0000 0.73097  0.31401  0.24791  Biso   1.000  H
  H74      1.0000 0.59837  0.32751  0.26210  Biso   1.000  H
  C69      1.0000 0.90232  0.99611  0.18195  Biso   1.000  C
  H75      1.0000 0.09463  0.98803  0.20521  Biso   1.000  H
  H76      1.0000 0.04390  0.98408  0.13942  Biso   1.000  H
  H77      1.0000 0.25144  0.90513  0.00462  Biso   1.000  H
  H78      1.0000 0.19617  0.98123  0.04431  Biso   1.000  H
  C70      1.0000 0.05557  0.84110  0.99852  Biso   1.000  C
  O21      1.0000 0.75782  0.71581  0.08019  Biso   1.000  O
  H79      1.0000 0.57192  0.64258  0.07748  Biso   1.000  H
  H80      1.0000 0.63070  0.75947  0.11938  Biso   1.000  H
  O22      1.0000 0.78839  0.16738  0.31374  Biso   1.000  O
  H81      1.0000 0.62534  0.19667  0.33052  Biso   1.000  H
  H82      1.0000 0.60398  0.13637  0.26829  Biso   1.000  H
  H83      1.0000 0.85989  0.91338  0.17111  Biso   1.000  H
  O23      1.0000 0.90105  0.02974  0.23885  Biso   1.000  O
  H84      1.0000 0.85328  0.03920  0.15691  Biso   1.000  H
  O24      1.0000 0.96496  0.84650  0.03300  Biso   1.000  O
  H85      1.0000 0.03127  0.87739  0.96480  Biso   1.000  H
  H86      1.0000 0.05095  0.76007  0.98661  Biso   1.000  H
  C71      1.0000 0.73887  0.79342  0.03897  Biso   1.000  C
  C72      1.0000 0.77441  0.04443  0.30684  Biso   1.000  C
  C73      1.0000 0.77130  0.99793  0.24757  Biso   1.000  C
  C74      1.0000 0.83325  0.79081  0.00237  Biso   1.000  C
  H87      1.0000 0.75421  0.87208  0.05770  Biso   1.000  H
  H88      1.0000 0.64866  0.76936  0.01601  Biso   1.000  H
  H89      1.0000 0.69319  0.00529  0.31629  Biso   1.000  H
  H90      1.0000 0.84747  0.02682  0.33289  Biso   1.000  H
  H91      1.0000 0.73856  0.91353  0.24168  Biso   1.000  H
  H92      1.0000 0.71232  0.02979  0.22071  Biso   1.000  H
  H93      1.0000 0.82758  0.71037  0.98882  Biso   1.000  H
  H94      1.0000 0.80921  0.83027  0.96979  Biso   1.000  H
  Ne1      1.0000 0.09966  0.56091  0.26563  Biso   1.000  Ne
  He1      1.0000 0.99885  0.41130  0.20732  Biso   1.000  He
  He2      1.0000 0.17471  0.79994  0.24803  Biso   1.000  He
  He3      1.0000 0.02937  0.36409  0.27104  Biso   1.000  He
  Ar1      1.0000 0.10128  0.56790  0.27549  Biso   1.000  Ar
  Ne2      1.0000 0.90034  0.43909  0.73437  Biso   1.000  Ne
  He4      1.0000 0.94357  0.62594  0.70873  Biso   1.000  He
  He5      1.0000 0.89714  0.21015  0.79510  Biso   1.000  He
  He6      1.0000 0.98370  0.60278  0.75456  Biso   1.000  He
  Ar2      1.0000 0.90475  0.43760  0.73374  Biso   1.000  Ar
