data_image0
_cell_length_a       9.517
_cell_length_b       15.584
_cell_length_c       23.617
_cell_angle_alpha    90.73
_cell_angle_beta     90.94
_cell_angle_gamma    90.75

_symmetry_space_group_name_H-M    "P 1"
_symmetry_int_tables_number       1

loop_
  _symmetry_equiv_pos_as_xyz
  'x, y, z'

loop_
  _atom_site_label
  _atom_site_occupancy
  _atom_site_fract_x
  _atom_site_fract_y
  _atom_site_fract_z
  _atom_site_thermal_displace_type
  _atom_site_B_iso_or_equiv
  _atom_site_type_symbol
  C1       1.0000 0.62475  0.37036  0.50390  Biso   1.000  C
  N1       1.0000 0.51370  0.30386  0.50314  Biso   1.000  N
  H1       1.0000 0.70465  0.35132  0.52770  Biso   1.000  H
  H2       1.0000 0.58803  0.42383  0.52088  Biso   1.000  H
  C2       1.0000 0.67559  0.38845  0.44490  Biso   1.000  C
  C3       1.0000 0.56854  0.21611  0.50513  Biso   1.000  C
  C4       1.0000 0.40598  0.32010  0.54579  Biso   1.000  C
  H3       1.0000 0.75899  0.42713  0.44698  Biso   1.000  H
  H4       1.0000 0.70308  0.33418  0.42610  Biso   1.000  H
  N2       1.0000 0.56322  0.42869  0.41221  Biso   1.000  N
  C5       1.0000 0.47847  0.15547  0.46943  Biso   1.000  C
  H5       1.0000 0.57047  0.19629  0.54481  Biso   1.000  H
  H6       1.0000 0.66600  0.21590  0.49111  Biso   1.000  H
  H7       1.0000 0.45092  0.34619  0.58009  Biso   1.000  H
  H8       1.0000 0.36185  0.26500  0.55671  Biso   1.000  H
  C6       1.0000 0.29422  0.37940  0.52317  Biso   1.000  C
  C7       1.0000 0.59829  0.44146  0.35334  Biso   1.000  C
  H9       1.0000 0.48609  0.39480  0.41200  Biso   1.000  H
  N3       1.0000 0.49106  0.17895  0.41013  Biso   1.000  N
  H10      1.0000 0.50987  0.09570  0.47472  Biso   1.000  H
  H11      1.0000 0.37930  0.15910  0.48099  Biso   1.000  H
  H12      1.0000 0.23348  0.39830  0.55438  Biso   1.000  H
  H13      1.0000 0.33910  0.43093  0.50678  Biso   1.000  H
  N4       1.0000 0.20942  0.33427  0.47963  Biso   1.000  N
  H14      1.0000 0.62795  0.38607  0.33670  Biso   1.000  H
  H15      1.0000 0.67863  0.48217  0.35152  Biso   1.000  H
  C8       1.0000 0.47730  0.47556  0.31861  Biso   1.000  C
  C9       1.0000 0.38641  0.14203  0.37303  Biso   1.000  C
  H16      1.0000 0.48504  0.23538  0.40819  Biso   1.000  H
  C10      1.0000 0.11036  0.38948  0.45121  Biso   1.000  C
  H17      1.0000 0.26807  0.31642  0.45342  Biso   1.000  H
  C11      1.0000 0.46986  0.45889  0.26072  Biso   1.000  C
  C12      1.0000 0.37344  0.52577  0.34258  Biso   1.000  C
  C13      1.0000 0.39978  0.16953  0.31264  Biso   1.000  C
  H18      1.0000 0.29254  0.15821  0.38671  Biso   1.000  H
  H19      1.0000 0.39258  0.07872  0.37452  Biso   1.000  H
  H20      1.0000 0.16005  0.44198  0.43881  Biso   1.000  H
  H21      1.0000 0.03734  0.40701  0.47832  Biso   1.000  H
  C14      1.0000 0.04085  0.34581  0.40056  Biso   1.000  C
  C15      1.0000 0.36239  0.49044  0.22667  Biso   1.000  C
  H22      1.0000 0.54031  0.42481  0.24390  Biso   1.000  H
  C16      1.0000 0.26613  0.55842  0.30929  Biso   1.000  C
  H23      1.0000 0.37625  0.53771  0.38210  Biso   1.000  H
  C17      1.0000 0.28723  0.15742  0.27478  Biso   1.000  C
  C18      1.0000 0.52260  0.20706  0.29261  Biso   1.000  C
  C19      1.0000 0.00443  0.39327  0.35338  Biso   1.000  C
  C20      1.0000 0.00983  0.25825  0.39967  Biso   1.000  C
  C21      1.0000 0.35859  0.47137  0.16403  Biso   1.000  C
  C22      1.0000 0.26068  0.54080  0.25187  Biso   1.000  C
  H24      1.0000 0.19631  0.59301  0.32598  Biso   1.000  H
  C23      1.0000 0.29459  0.18115  0.21849  Biso   1.000  C
  H25      1.0000 0.20264  0.13208  0.28791  Biso   1.000  H
  C24      1.0000 0.53086  0.23253  0.23683  Biso   1.000  C
  H26      1.0000 0.60144  0.21518  0.31738  Biso   1.000  H
  C25      1.0000 0.93802  0.35620  0.30586  Biso   1.000  C
  H27      1.0000 0.02547  0.45301  0.35351  Biso   1.000  H
  C26      1.0000 0.94459  0.22056  0.35283  Biso   1.000  C
  H28      1.0000 0.03351  0.22429  0.43152  Biso   1.000  H
  N5       1.0000 0.21821  0.47136  0.14090  Biso   1.000  N
  H29      1.0000 0.41589  0.51501  0.14442  Biso   1.000  H
  H30      1.0000 0.40080  0.41463  0.15691  Biso   1.000  H
  H31      1.0000 0.18659  0.56333  0.22929  Biso   1.000  H
  C27      1.0000 0.41833  0.21955  0.19982  Biso   1.000  C
  C28      1.0000 0.17134  0.16299  0.17915  Biso   1.000  C
  H32      1.0000 0.61454  0.25910  0.22379  Biso   1.000  H
  C29      1.0000 0.89858  0.41281  0.25695  Biso   1.000  C
  C30      1.0000 0.90832  0.26874  0.30616  Biso   1.000  C
  H33      1.0000 0.92449  0.16068  0.35262  Biso   1.000  H
  C31      1.0000 0.20715  0.45202  0.08051  Biso   1.000  C
  H34      1.0000 0.16704  0.43193  0.15890  Biso   1.000  H
  H35      1.0000 0.42523  0.23683  0.16149  Biso   1.000  H
  H36      1.0000 0.17849  0.10378  0.16390  Biso   1.000  H
  H37      1.0000 0.08362  0.16618  0.20100  Biso   1.000  H
  N6       1.0000 0.16219  0.22131  0.13265  Biso   1.000  N
  N7       1.0000 0.86961  0.36616  0.20485  Biso   1.000  N
  H38      1.0000 0.81438  0.44593  0.26711  Biso   1.000  H
  H39      1.0000 0.97623  0.45433  0.25068  Biso   1.000  H
  H40      1.0000 0.86294  0.24200  0.27431  Biso   1.000  H
  C32      1.0000 0.05424  0.43949  0.06340  Biso   1.000  C
  H41      1.0000 0.25988  0.39922  0.07179  Biso   1.000  H
  H42      1.0000 0.24879  0.49972  0.05891  Biso   1.000  H
  C33      1.0000 0.03424  0.20953  0.09834  Biso   1.000  C
  H43      1.0000 0.15908  0.27428  0.14709  Biso   1.000  H
  C34      1.0000 0.82562  0.42172  0.15852  Biso   1.000  C
  H44      1.0000 0.95504  0.34227  0.19439  Biso   1.000  H
  N8       1.0000 0.99277  0.36429  0.09008  Biso   1.000  N
  H45      1.0000 0.00105  0.49098  0.07450  Biso   1.000  H
  H46      1.0000 0.04651  0.43270  0.02168  Biso   1.000  H
  H47      1.0000 0.03890  0.15519  0.07619  Biso   1.000  H
  C35      1.0000 0.01930  0.28441  0.05857  Biso   1.000  C
  H48      1.0000 0.95164  0.20617  0.12320  Biso   1.000  H
  C36      1.0000 0.84346  0.37467  0.10270  Biso   1.000  C
  H49      1.0000 0.88332  0.47500  0.15920  Biso   1.000  H
  H50      1.0000 0.72601  0.43753  0.16310  Biso   1.000  H
  H51      1.0000 0.10651  0.29111  0.03672  Biso   1.000  H
  H52      1.0000 0.94072  0.27272  0.03151  Biso   1.000  H
  H53      1.0000 0.79712  0.31753  0.10440  Biso   1.000  H
  H54      1.0000 0.79731  0.40731  0.07200  Biso   1.000  H
  C37      1.0000 0.37540  0.62966  0.49611  Biso   1.000  C
  N9       1.0000 0.48645  0.69610  0.49687  Biso   1.000  N
  H55      1.0000 0.29550  0.64870  0.47231  Biso   1.000  H
  H56      1.0000 0.41202  0.57619  0.47908  Biso   1.000  H
  C38      1.0000 0.32456  0.61157  0.55510  Biso   1.000  C
  C39      1.0000 0.59406  0.67992  0.45418  Biso   1.000  C
  C40      1.0000 0.43161  0.78391  0.49488  Biso   1.000  C
  H57      1.0000 0.24116  0.57289  0.55299  Biso   1.000  H
  H58      1.0000 0.29707  0.66578  0.57391  Biso   1.000  H
  N10      1.0000 0.43683  0.57133  0.58780  Biso   1.000  N
  H59      1.0000 0.54913  0.65377  0.41992  Biso   1.000  H
  H60      1.0000 0.63830  0.73502  0.44329  Biso   1.000  H
  C41      1.0000 0.70583  0.62062  0.47684  Biso   1.000  C
  H61      1.0000 0.42969  0.80373  0.45520  Biso   1.000  H
  H62      1.0000 0.33405  0.78412  0.50890  Biso   1.000  H
  C42      1.0000 0.52158  0.84455  0.53058  Biso   1.000  C
  C43      1.0000 0.40186  0.55856  0.64667  Biso   1.000  C
  H63      1.0000 0.51406  0.60522  0.58801  Biso   1.000  H
  H64      1.0000 0.76667  0.60172  0.44558  Biso   1.000  H
  H65      1.0000 0.66094  0.56909  0.49318  Biso   1.000  H
  N11      1.0000 0.79063  0.66575  0.52037  Biso   1.000  N
  H66      1.0000 0.49017  0.90432  0.52529  Biso   1.000  H
  H67      1.0000 0.62074  0.84092  0.51902  Biso   1.000  H
  N12      1.0000 0.50909  0.82107  0.58983  Biso   1.000  N
  H68      1.0000 0.37220  0.61389  0.66331  Biso   1.000  H
  H69      1.0000 0.32141  0.51778  0.64849  Biso   1.000  H
  C44      1.0000 0.52285  0.52446  0.68140  Biso   1.000  C
  C45      1.0000 0.88979  0.61055  0.54879  Biso   1.000  C
  H70      1.0000 0.73208  0.68360  0.54659  Biso   1.000  H
  C46      1.0000 0.61374  0.85793  0.62697  Biso   1.000  C
  H71      1.0000 0.51510  0.76457  0.59178  Biso   1.000  H
  C47      1.0000 0.62661  0.47426  0.65742  Biso   1.000  C
  C48      1.0000 0.53030  0.54113  0.73929  Biso   1.000  C
  H72      1.0000 0.84010  0.55797  0.56120  Biso   1.000  H
  H73      1.0000 0.96281  0.59301  0.52169  Biso   1.000  H
  C49      1.0000 0.95930  0.65415  0.59945  Biso   1.000  C
  H74      1.0000 0.70761  0.84181  0.61329  Biso   1.000  H
  H75      1.0000 0.60747  0.92131  0.62549  Biso   1.000  H
  C50      1.0000 0.60026  0.83043  0.68737  Biso   1.000  C
  H76      1.0000 0.62391  0.46231  0.61791  Biso   1.000  H
  C51      1.0000 0.73392  0.44160  0.69067  Biso   1.000  C
  C52      1.0000 0.63776  0.50952  0.77334  Biso   1.000  C
  H77      1.0000 0.45973  0.57521  0.75610  Biso   1.000  H
  C53      1.0000 0.99032  0.74170  0.60033  Biso   1.000  C
  C54      1.0000 0.99562  0.60676  0.64662  Biso   1.000  C
  C55      1.0000 0.47744  0.79296  0.70740  Biso   1.000  C
  C56      1.0000 0.71292  0.84253  0.72523  Biso   1.000  C
  H78      1.0000 0.80384  0.40701  0.67398  Biso   1.000  H
  C57      1.0000 0.73947  0.45922  0.74814  Biso   1.000  C
  C58      1.0000 0.64156  0.52859  0.83598  Biso   1.000  C
  H79      1.0000 0.96664  0.77573  0.56849  Biso   1.000  H
  C59      1.0000 0.05545  0.77946  0.64718  Biso   1.000  C
  H80      1.0000 0.97468  0.54701  0.64650  Biso   1.000  H
  C60      1.0000 0.06202  0.64382  0.69414  Biso   1.000  C
  H81      1.0000 0.39871  0.78477  0.68258  Biso   1.000  H
  C61      1.0000 0.46929  0.76749  0.76318  Biso   1.000  C
  C62      1.0000 0.70546  0.81887  0.78147  Biso   1.000  C
  H82      1.0000 0.79751  0.86788  0.71210  Biso   1.000  H
  H83      1.0000 0.81356  0.43669  0.77072  Biso   1.000  H
  H84      1.0000 0.58426  0.48501  0.85559  Biso   1.000  H
  H85      1.0000 0.59936  0.58539  0.84309  Biso   1.000  H
  N13      1.0000 0.78183  0.52866  0.85906  Biso   1.000  N
  H86      1.0000 0.07555  0.83927  0.64739  Biso   1.000  H
  C63      1.0000 0.09184  0.73128  0.69385  Biso   1.000  C
  C64      1.0000 0.10157  0.58715  0.74306  Biso   1.000  C
  H87      1.0000 0.38561  0.74092  0.77622  Biso   1.000  H
  C65      1.0000 0.58183  0.78047  0.80019  Biso   1.000  C
  C66      1.0000 0.82881  0.83703  0.82086  Biso   1.000  C
  C67      1.0000 0.79300  0.54800  0.91945  Biso   1.000  C
  H88      1.0000 0.83312  0.56809  0.84110  Biso   1.000  H
  H89      1.0000 0.13721  0.75803  0.72570  Biso   1.000  H
  H90      1.0000 0.18577  0.55409  0.73290  Biso   1.000  H
  H91      1.0000 0.02381  0.54569  0.74929  Biso   1.000  H
  N14      1.0000 0.13044  0.63387  0.79515  Biso   1.000  N
  H92      1.0000 0.57493  0.76319  0.83852  Biso   1.000  H
  H93      1.0000 0.82156  0.89618  0.83611  Biso   1.000  H
  H94      1.0000 0.91653  0.83378  0.79901  Biso   1.000  H
  N15      1.0000 0.83786  0.77865  0.86736  Biso   1.000  N
  H95      1.0000 0.74027  0.60080  0.92822  Biso   1.000  H
  H96      1.0000 0.75136  0.50030  0.94110  Biso   1.000  H
  C68      1.0000 0.94591  0.56053  0.93656  Biso   1.000  C
  C69      1.0000 0.17442  0.57830  0.84144  Biso   1.000  C
  H97      1.0000 0.04511  0.65769  0.80561  Biso   1.000  H
  C70      1.0000 0.96591  0.79049  0.90167  Biso   1.000  C
  H98      1.0000 0.84107  0.72568  0.85292  Biso   1.000  H
  H99      1.0000 0.99910  0.50898  0.92551  Biso   1.000  H
  H100     1.0000 0.95353  0.56732  0.97828  Biso   1.000  H
  N16      1.0000 0.00738  0.63573  0.90992  Biso   1.000  N
  H101     1.0000 0.11672  0.52502  0.84081  Biso   1.000  H
  H102     1.0000 0.27404  0.56249  0.83691  Biso   1.000  H
  C71      1.0000 0.15669  0.62528  0.89726  Biso   1.000  C
  H103     1.0000 0.96115  0.84483  0.92382  Biso   1.000  H
  C72      1.0000 0.98074  0.71554  0.94143  Biso   1.000  C
  H104     1.0000 0.04851  0.79379  0.87681  Biso   1.000  H
  H105     1.0000 0.20303  0.68249  0.89561  Biso   1.000  H
  H106     1.0000 0.20274  0.59271  0.92801  Biso   1.000  H
  H107     1.0000 0.89354  0.70891  0.96329  Biso   1.000  H
  H108     1.0000 0.05943  0.72731  0.96850  Biso   1.000  H
  C73      1.0000 0.97875  0.71332  0.39040  Biso   1.000  C
  N17      1.0000 0.99047  0.71956  0.32907  Biso   1.000  N
  H109     1.0000 0.87976  0.72143  0.40128  Biso   1.000  H
  C74      1.0000 0.07070  0.78045  0.41975  Biso   1.000  C
  H110     1.0000 0.00764  0.65548  0.40259  Biso   1.000  H
  C75      1.0000 0.88816  0.66793  0.29777  Biso   1.000  C
  H111     1.0000 0.98210  0.77183  0.32069  Biso   1.000  H
  N18      1.0000 0.01618  0.86716  0.41051  Biso   1.000  N
  H112     1.0000 0.07465  0.76900  0.46091  Biso   1.000  H
  H113     1.0000 0.16733  0.77701  0.40509  Biso   1.000  H
  C76      1.0000 0.89995  0.67612  0.23454  Biso   1.000  C
  H114     1.0000 0.79274  0.68509  0.30908  Biso   1.000  H
  H115     1.0000 0.90009  0.60697  0.30798  Biso   1.000  H
  C77      1.0000 0.90975  0.89204  0.45193  Biso   1.000  C
  C78      1.0000 0.12742  0.93191  0.40399  Biso   1.000  C
  C79      1.0000 0.78572  0.65349  0.19982  Biso   1.000  C
  C80      1.0000 0.02319  0.70367  0.20943  Biso   1.000  C
  H116     1.0000 0.95576  0.92481  0.48349  Biso   1.000  H
  H117     1.0000 0.86619  0.83979  0.46782  Biso   1.000  H
  C81      1.0000 0.79644  0.94650  0.42500  Biso   1.000  C
  H118     1.0000 0.20721  0.91920  0.42978  Biso   1.000  H
  H119     1.0000 0.09134  0.98923  0.41428  Biso   1.000  H
  C82      1.0000 0.17750  0.93258  0.34343  Biso   1.000  C
  C83      1.0000 0.79327  0.65638  0.14099  Biso   1.000  C
  H120     1.0000 0.70039  0.63560  0.21659  Biso   1.000  H
  C84      1.0000 0.03201  0.70708  0.15081  Biso   1.000  C
  H121     1.0000 0.10202  0.72029  0.23238  Biso   1.000  H
  H122     1.0000 0.73189  0.96749  0.45439  Biso   1.000  H
  H123     1.0000 0.83985  0.99678  0.40662  Biso   1.000  H
  N19      1.0000 0.71861  0.89473  0.38316  Biso   1.000  N
  H124     1.0000 0.26069  0.97102  0.34038  Biso   1.000  H
  H125     1.0000 0.20487  0.87401  0.33161  Biso   1.000  H
  N20      1.0000 0.06412  0.96266  0.30667  Biso   1.000  N
  C85      1.0000 0.66733  0.62796  0.10546  Biso   1.000  C
  C86      1.0000 0.91801  0.68357  0.11693  Biso   1.000  C
  H126     1.0000 0.11684  0.72568  0.13400  Biso   1.000  H
  C87      1.0000 0.61839  0.94154  0.34894  Biso   1.000  C
  H127     1.0000 0.78115  0.87028  0.36050  Biso   1.000  H
  H128     1.0000 0.98813  0.93100  0.31518  Biso   1.000  H
  C88      1.0000 0.09008  0.94834  0.24729  Biso   1.000  C
  H129     1.0000 0.67509  0.56598  0.09652  Biso   1.000  H
  H130     1.0000 0.58119  0.63610  0.12769  Biso   1.000  H
  N21      1.0000 0.65475  0.67462  0.05332  Biso   1.000  N
  H131     1.0000 0.92485  0.68612  0.07691  Biso   1.000  H
  C89      1.0000 0.54958  0.88541  0.30383  Biso   1.000  C
  H132     1.0000 0.66724  0.99022  0.33081  Biso   1.000  H
  H133     1.0000 0.54520  0.96533  0.37371  Biso   1.000  H
  C90      1.0000 0.97092  0.97603  0.20956  Biso   1.000  C
  H134     1.0000 0.10687  0.88647  0.24060  Biso   1.000  H
  H135     1.0000 0.17650  0.98023  0.23700  Biso   1.000  H
  C91      1.0000 0.52699  0.65351  0.02075  Biso   1.000  C
  H136     1.0000 0.65104  0.72953  0.06230  Biso   1.000  H
  C92      1.0000 0.50471  0.91905  0.25246  Biso   1.000  C
  C93      1.0000 0.52664  0.79811  0.31289  Biso   1.000  C
  C94      1.0000 0.95841  0.94305  0.15450  Biso   1.000  C
  C95      1.0000 0.87322  0.03625  0.22726  Biso   1.000  C
  H137     1.0000 0.44491  0.65413  0.04599  Biso   1.000  H
  H138     1.0000 0.53420  0.59529  0.00390  Biso   1.000  H
  C96      1.0000 0.50790  0.71895  0.97438  Biso   1.000  C
  C97      1.0000 0.43888  0.86830  0.21074  Biso   1.000  C
  H139     1.0000 0.51936  0.97840  0.24560  Biso   1.000  H
  C98      1.0000 0.46156  0.74706  0.27181  Biso   1.000  C
  H140     1.0000 0.55601  0.77358  0.34771  Biso   1.000  H
  C99      1.0000 0.85460  0.96998  0.11706  Biso   1.000  C
  H141     1.0000 0.02279  0.90091  0.14230  Biso   1.000  H
  C100     1.0000 0.76858  0.06293  0.19037  Biso   1.000  C
  H142     1.0000 0.87849  0.05900  0.26478  Biso   1.000  H
  N22      1.0000 0.48097  0.80470  0.99814  Biso   1.000  N
  H143     1.0000 0.59349  0.72119  0.95121  Biso   1.000  H
  H144     1.0000 0.42811  0.70087  0.94931  Biso   1.000  H
  C101     1.0000 0.39114  0.90765  0.15577  Biso   1.000  C
  C102     1.0000 0.41748  0.78181  0.22116  Biso   1.000  C
  H145     1.0000 0.44711  0.68757  0.27842  Biso   1.000  H
  C103     1.0000 0.84804  0.93466  0.05709  Biso   1.000  C
  C104     1.0000 0.75968  0.03073  0.13569  Biso   1.000  C
  H146     1.0000 0.70229  0.10379  0.20278  Biso   1.000  H
  C105     1.0000 0.33212  0.81854  0.00991  Biso   1.000  C
  C106     1.0000 0.54165  0.87288  0.96341  Biso   1.000  C
  N23      1.0000 0.36538  0.84491  0.11100  Biso   1.000  N
  H147     1.0000 0.30373  0.93980  0.16229  Biso   1.000  H
  H148     1.0000 0.46371  0.94912  0.14340  Biso   1.000  H
  H149     1.0000 0.37208  0.74622  0.19329  Biso   1.000  H
  N24      1.0000 0.70487  0.92973  0.03502  Biso   1.000  N
  H150     1.0000 0.90489  0.97178  0.03248  Biso   1.000  H
  H151     1.0000 0.88911  0.87663  0.05641  Biso   1.000  H
  H152     1.0000 0.68825  0.05019  0.11058  Biso   1.000  H
  C107     1.0000 0.31516  0.88199  0.05794  Biso   1.000  C
  H153     1.0000 0.28700  0.76329  0.01982  Biso   1.000  H
  H154     1.0000 0.28443  0.84033  0.97552  Biso   1.000  H
  C108     1.0000 0.69488  0.88846  0.97925  Biso   1.000  C
  H155     1.0000 0.48860  0.92651  0.96908  Biso   1.000  H
  H156     1.0000 0.53345  0.85630  0.92292  Biso   1.000  H
  H157     1.0000 0.44811  0.82109  0.10372  Biso   1.000  H
  H158     1.0000 0.65513  0.89849  0.05840  Biso   1.000  H
  H159     1.0000 0.36925  0.93510  0.05019  Biso   1.000  H
  H160     1.0000 0.21496  0.89707  0.06128  Biso   1.000  H
  H161     1.0000 0.74500  0.83322  0.97980  Biso   1.000  H
  H162     1.0000 0.73939  0.92558  0.95079  Biso   1.000  H
  C109     1.0000 0.02130  0.28670  0.60961  Biso   1.000  C
  C110     1.0000 0.92945  0.21957  0.58026  Biso   1.000  C
  H163     1.0000 0.12029  0.27859  0.59868  Biso   1.000  H
  N25      1.0000 0.00968  0.28046  0.67089  Biso   1.000  N
  H164     1.0000 0.99241  0.34447  0.59741  Biso   1.000  H
  N26      1.0000 0.98398  0.13286  0.58949  Biso   1.000  N
  H165     1.0000 0.92540  0.23102  0.53909  Biso   1.000  H
  H166     1.0000 0.83282  0.22301  0.59491  Biso   1.000  H
  C111     1.0000 0.11189  0.33209  0.70223  Biso   1.000  C
  H167     1.0000 0.01805  0.22819  0.67932  Biso   1.000  H
  C112     1.0000 0.09040  0.10792  0.54807  Biso   1.000  C
  C113     1.0000 0.87273  0.06811  0.59601  Biso   1.000  C
  H168     1.0000 0.20730  0.31493  0.69088  Biso   1.000  H
  H169     1.0000 0.10006  0.39298  0.69198  Biso   1.000  H
  C114     1.0000 0.10010  0.32384  0.76546  Biso   1.000  C
  H170     1.0000 0.04429  0.07522  0.51652  Biso   1.000  H
  H171     1.0000 0.13396  0.16023  0.53219  Biso   1.000  H
  C115     1.0000 0.20371  0.05352  0.57501  Biso   1.000  C
  H172     1.0000 0.79294  0.08083  0.57018  Biso   1.000  H
  H173     1.0000 0.90881  0.01079  0.58568  Biso   1.000  H
  C116     1.0000 0.82265  0.06744  0.65658  Biso   1.000  C
  C117     1.0000 0.21432  0.34647  0.80019  Biso   1.000  C
  C118     1.0000 0.97696  0.29629  0.79058  Biso   1.000  C
  H174     1.0000 0.26816  0.03253  0.54562  Biso   1.000  H
  H175     1.0000 0.16030  0.00318  0.59339  Biso   1.000  H
  N27      1.0000 0.28155  0.10529  0.61685  Biso   1.000  N
  H176     1.0000 0.73936  0.02900  0.65958  Biso   1.000  H
  H177     1.0000 0.79517  0.12601  0.66839  Biso   1.000  H
  N28      1.0000 0.93604  0.03736  0.69334  Biso   1.000  N
  C119     1.0000 0.20688  0.34364  0.85902  Biso   1.000  C
  H178     1.0000 0.29977  0.36443  0.78342  Biso   1.000  H
  H179     1.0000 0.89813  0.27973  0.76758  Biso   1.000  H
  C120     1.0000 0.96814  0.29288  0.84915  Biso   1.000  C
  C121     1.0000 0.38176  0.05848  0.65103  Biso   1.000  C
  H180     1.0000 0.21900  0.12968  0.63951  Biso   1.000  H
  H181     1.0000 0.01202  0.06902  0.68478  Biso   1.000  H
  C122     1.0000 0.90997  0.05162  0.75272  Biso   1.000  C
  C123     1.0000 0.08213  0.31639  0.88303  Biso   1.000  C
  C124     1.0000 0.33272  0.37206  0.89455  Biso   1.000  C
  H182     1.0000 0.88321  0.27428  0.86601  Biso   1.000  H
  H183     1.0000 0.33291  0.00980  0.66920  Biso   1.000  H
  H184     1.0000 0.45495  0.03470  0.62630  Biso   1.000  H
  C125     1.0000 0.45047  0.11455  0.69618  Biso   1.000  C
  C126     1.0000 0.02923  0.02399  0.79045  Biso   1.000  C
  H185     1.0000 0.89318  0.11348  0.75941  Biso   1.000  H
  H186     1.0000 0.82365  0.01980  0.76301  Biso   1.000  H
  H187     1.0000 0.07520  0.31390  0.92310  Biso   1.000  H
  H188     1.0000 0.32506  0.43397  0.90349  Biso   1.000  H
  H189     1.0000 0.41896  0.36393  0.87232  Biso   1.000  H
  N29      1.0000 0.34529  0.32541  0.94669  Biso   1.000  N
  C127     1.0000 0.47351  0.20184  0.68707  Biso   1.000  C
  C128     1.0000 0.49544  0.08091  0.74755  Biso   1.000  C
  C129     1.0000 0.04174  0.05697  0.84551  Biso   1.000  C
  C130     1.0000 0.12693  0.96377  0.77275  Biso   1.000  C
  C131     1.0000 0.47316  0.34652  0.97925  Biso   1.000  C
  H190     1.0000 0.34901  0.27049  0.93771  Biso   1.000  H
  H191     1.0000 0.44414  0.22638  0.65230  Biso   1.000  H
  C132     1.0000 0.53848  0.25296  0.72815  Biso   1.000  C
  C133     1.0000 0.56117  0.13165  0.78922  Biso   1.000  C
  H192     1.0000 0.48079  0.02162  0.75441  Biso   1.000  H
  C134     1.0000 0.14555  0.02998  0.88290  Biso   1.000  C
  H193     1.0000 0.97736  0.09911  0.85771  Biso   1.000  H
  H194     1.0000 0.12155  0.94102  0.73518  Biso   1.000  H
  C135     1.0000 0.23147  0.93709  0.80964  Biso   1.000  C
  C136     1.0000 0.49225  0.28107  0.02563  Biso   1.000  C
  H195     1.0000 0.55524  0.34589  0.95401  Biso   1.000  H
  H196     1.0000 0.46596  0.40473  0.99611  Biso   1.000  H
  H197     1.0000 0.55304  0.31239  0.72159  Biso   1.000  H
  C137     1.0000 0.58267  0.21821  0.77880  Biso   1.000  C
  C138     1.0000 0.60901  0.09230  0.84420  Biso   1.000  C
  C139     1.0000 0.15211  0.06536  0.94292  Biso   1.000  C
  C140     1.0000 0.24037  0.96929  0.86431  Biso   1.000  C
  H198     1.0000 0.29775  0.89623  0.79718  Biso   1.000  H
  N30      1.0000 0.51907  0.19532  0.00187  Biso   1.000  N
  H199     1.0000 0.40666  0.27883  0.04880  Biso   1.000  H
  H200     1.0000 0.57204  0.29908  0.05070  Biso   1.000  H
  H201     1.0000 0.62807  0.25380  0.80671  Biso   1.000  H
  H202     1.0000 0.69642  0.06022  0.83772  Biso   1.000  H
  H203     1.0000 0.53644  0.05090  0.85660  Biso   1.000  H
  N31      1.0000 0.63477  0.15511  0.88900  Biso   1.000  N
  H204     1.0000 0.09516  0.02817  0.96748  Biso   1.000  H
  H205     1.0000 0.11104  0.12339  0.94359  Biso   1.000  H
  N32      1.0000 0.29518  0.07029  0.96498  Biso   1.000  N
  H206     1.0000 0.31190  0.94983  0.88938  Biso   1.000  H
  C141     1.0000 0.66803  0.18148  0.99010  Biso   1.000  C
  C142     1.0000 0.45850  0.12708  0.03660  Biso   1.000  C
  C143     1.0000 0.68489  0.11803  0.94207  Biso   1.000  C
  H207     1.0000 0.55204  0.17893  0.89629  Biso   1.000  H
  H208     1.0000 0.34502  0.10153  0.94160  Biso   1.000  H
  C144     1.0000 0.30516  0.11156  0.02076  Biso   1.000  C
  H209     1.0000 0.71315  0.23673  0.98019  Biso   1.000  H
  H210     1.0000 0.71572  0.15970  0.02449  Biso   1.000  H
  H211     1.0000 0.51155  0.07351  0.03088  Biso   1.000  H
  H212     1.0000 0.46670  0.14372  0.07709  Biso   1.000  H
  H213     1.0000 0.63079  0.06492  0.94982  Biso   1.000  H
  H214     1.0000 0.78509  0.10289  0.93868  Biso   1.000  H
  H215     1.0000 0.25515  0.16680  0.02021  Biso   1.000  H
  H216     1.0000 0.26066  0.07438  0.04922  Biso   1.000  H
