data_image0
_cell_length_a       14.645
_cell_length_b       14.645
_cell_length_c       25.53
_cell_angle_alpha    90
_cell_angle_beta     90
_cell_angle_gamma    120

_symmetry_space_group_name_H-M    "P 1"
_symmetry_int_tables_number       1

loop_
  _symmetry_equiv_pos_as_xyz
  'x, y, z'

loop_
  _atom_site_label
  _atom_site_occupancy
  _atom_site_fract_x
  _atom_site_fract_y
  _atom_site_fract_z
  _atom_site_thermal_displace_type
  _atom_site_B_iso_or_equiv
  _atom_site_type_symbol
  C1       1.0000 0.50228  0.66341  0.56941  Biso   1.000  C
  C2       1.0000 0.38791  0.61058  0.58727  Biso   1.000  C
  N1       1.0000 0.53861  0.58654  0.57109  Biso   1.000  N
  H1       1.0000 0.50828  0.68990  0.53400  Biso   1.000  H
  H2       1.0000 0.54577  0.72255  0.59217  Biso   1.000  H
  N2       1.0000 0.33339  0.66664  0.56992  Biso   1.000  N
  H3       1.0000 0.35063  0.53915  0.57372  Biso   1.000  H
  H4       1.0000 0.38569  0.60641  0.62519  Biso   1.000  H
  C3       1.0000 0.65190  0.63518  0.55922  Biso   1.000  C
  H5       1.0000 0.50381  0.53647  0.54704  Biso   1.000  H
  C4       1.0000 0.22267  0.61208  0.58727  Biso   1.000  C
  C5       1.0000 0.38942  0.77734  0.58727  Biso   1.000  C
  C6       1.0000 0.68674  0.69653  0.50940  Biso   1.000  C
  H6       1.0000 0.67006  0.57999  0.55781  Biso   1.000  H
  H7       1.0000 0.69143  0.68186  0.58790  Biso   1.000  H
  C7       1.0000 0.16109  0.49768  0.56941  Biso   1.000  C
  H8       1.0000 0.18853  0.64938  0.57372  Biso   1.000  H
  H9       1.0000 0.22070  0.61429  0.62519  Biso   1.000  H
  H10      1.0000 0.46091  0.81148  0.57372  Biso   1.000  H
  H11      1.0000 0.39358  0.77924  0.62519  Biso   1.000  H
  C8       1.0000 0.33659  0.83884  0.56941  Biso   1.000  C
  O1       1.0000 0.65863  0.63881  0.46338  Biso   1.000  O
  C9       1.0000 0.73794  0.79974  0.49843  Biso   1.000  C
  N3       1.0000 0.04798  0.46141  0.57109  Biso   1.000  N
  H12      1.0000 0.18159  0.49168  0.53400  Biso   1.000  H
  H13      1.0000 0.17672  0.45423  0.59217  Biso   1.000  H
  N4       1.0000 0.41342  0.95207  0.57109  Biso   1.000  N
  H14      1.0000 0.31013  0.81842  0.53400  Biso   1.000  H
  H15      1.0000 0.27744  0.82323  0.59217  Biso   1.000  H
  C10      1.0000 0.69546  0.71095  0.42272  Biso   1.000  C
  C11      1.0000 0.74387  0.80928  0.44258  Biso   1.000  C
  H16      1.0000 0.76453  0.85469  0.52256  Biso   1.000  H
  C12      1.0000 0.98327  0.34811  0.55922  Biso   1.000  C
  H17      1.0000 0.03270  0.49626  0.54704  Biso   1.000  H
  C13      1.0000 0.36476  0.01672  0.55922  Biso   1.000  C
  H18      1.0000 0.46361  0.96736  0.54704  Biso   1.000  H
  C14      1.0000 0.67088  0.66767  0.36819  Biso   1.000  C
  H19      1.0000 0.77530  0.87188  0.42354  Biso   1.000  H
  C15      1.0000 0.00975  0.31326  0.50940  Biso   1.000  C
  H20      1.0000 0.90995  0.32997  0.55781  Biso   1.000  H
  H21      1.0000 0.99042  0.30860  0.58790  Biso   1.000  H
  C16      1.0000 0.30351  0.99023  0.50940  Biso   1.000  C
  H22      1.0000 0.42000  0.09005  0.55781  Biso   1.000  H
  H23      1.0000 0.31822  0.00954  0.58790  Biso   1.000  H
  N5       1.0000 0.55966  0.61484  0.35264  Biso   1.000  N
  H24      1.0000 0.71068  0.72515  0.34399  Biso   1.000  H
  H25      1.0000 0.69581  0.61784  0.36432  Biso   1.000  H
  O2       1.0000 0.98015  0.34132  0.46338  Biso   1.000  O
  C17      1.0000 0.06180  0.26208  0.49843  Biso   1.000  C
  O3       1.0000 0.36115  0.01987  0.46338  Biso   1.000  O
  C18      1.0000 0.20027  0.93819  0.49843  Biso   1.000  C
  C19      1.0000 0.50996  0.67823  0.36263  Biso   1.000  C
  H26      1.0000 0.52618  0.55594  0.36945  Biso   1.000  H
  C20      1.0000 0.01548  0.30450  0.42272  Biso   1.000  C
  C21      1.0000 0.06547  0.25617  0.44258  Biso   1.000  C
  H27      1.0000 0.09013  0.23543  0.52256  Biso   1.000  H
  C22      1.0000 0.28903  0.98447  0.42272  Biso   1.000  C
  C23      1.0000 0.19067  0.93456  0.44258  Biso   1.000  C
  H28      1.0000 0.14531  0.90980  0.52256  Biso   1.000  H
  C24      1.0000 0.39899  0.62304  0.34027  Biso   1.000  C
  H29      1.0000 0.55120  0.74707  0.34649  Biso   1.000  H
  H30      1.0000 0.50739  0.68825  0.40004  Biso   1.000  H
  C25      1.0000 0.99682  0.32918  0.36819  Biso   1.000  C
  H31      1.0000 0.09651  0.22471  0.42354  Biso   1.000  H
  C26      1.0000 0.33241  0.00324  0.36819  Biso   1.000  C
  H32      1.0000 0.12816  0.90350  0.42354  Biso   1.000  H
  N6       1.0000 0.33339  0.66664  0.35817  Biso   1.000  N
  H33      1.0000 0.40351  0.62730  0.30235  Biso   1.000  H
  H34      1.0000 0.36461  0.54908  0.34982  Biso   1.000  H
  N7       1.0000 0.05521  0.44036  0.35264  Biso   1.000  N
  H35      1.0000 0.01443  0.28929  0.34399  Biso   1.000  H
  H36      1.0000 0.92205  0.30419  0.36432  Biso   1.000  H
  N8       1.0000 0.38514  0.94481  0.35264  Biso   1.000  N
  H37      1.0000 0.27490  0.98558  0.34399  Biso   1.000  H
  H38      1.0000 0.38218  0.07790  0.36432  Biso   1.000  H
  C27      1.0000 0.22401  0.60096  0.34027  Biso   1.000  C
  C28      1.0000 0.37701  0.77600  0.34027  Biso   1.000  C
  C29      1.0000 0.16826  0.49003  0.36263  Biso   1.000  C
  H39      1.0000 0.02976  0.47386  0.36945  Biso   1.000  H
  C30      1.0000 0.32178  0.83175  0.36263  Biso   1.000  C
  H40      1.0000 0.44406  0.97020  0.36945  Biso   1.000  H
  H41      1.0000 0.22374  0.59647  0.30235  Biso   1.000  H
  H42      1.0000 0.18449  0.63542  0.34982  Biso   1.000  H
  H43      1.0000 0.37276  0.77624  0.30235  Biso   1.000  H
  H44      1.0000 0.45091  0.81550  0.34982  Biso   1.000  H
  H45      1.0000 0.19585  0.44879  0.34649  Biso   1.000  H
  H46      1.0000 0.18090  0.49263  0.40004  Biso   1.000  H
  H47      1.0000 0.25295  0.80415  0.34649  Biso   1.000  H
  H48      1.0000 0.31179  0.81913  0.40004  Biso   1.000  H
  N9       1.0000 0.46143  0.41347  0.42891  Biso   1.000  N
  C31      1.0000 0.34806  0.36482  0.44078  Biso   1.000  C
  C32      1.0000 0.49769  0.33659  0.43059  Biso   1.000  C
  H49      1.0000 0.49623  0.46354  0.45296  Biso   1.000  H
  H50      1.0000 0.32998  0.42001  0.44219  Biso   1.000  H
  H51      1.0000 0.30861  0.31814  0.41210  Biso   1.000  H
  C33      1.0000 0.31330  0.30348  0.49060  Biso   1.000  C
  C34      1.0000 0.61212  0.38942  0.41273  Biso   1.000  C
  H52      1.0000 0.49168  0.31010  0.46600  Biso   1.000  H
  H53      1.0000 0.45420  0.27746  0.40783  Biso   1.000  H
  C35      1.0000 0.26210  0.20027  0.50157  Biso   1.000  C
  O4       1.0000 0.34133  0.36119  0.53662  Biso   1.000  O
  N10      1.0000 0.66665  0.33336  0.43008  Biso   1.000  N
  H54      1.0000 0.64941  0.46086  0.42628  Biso   1.000  H
  H55      1.0000 0.61435  0.39360  0.37481  Biso   1.000  H
  H56      1.0000 0.23544  0.14531  0.47744  Biso   1.000  H
  C36      1.0000 0.25613  0.19065  0.55742  Biso   1.000  C
  C37      1.0000 0.30447  0.28897  0.57728  Biso   1.000  C
  C38      1.0000 0.77737  0.38792  0.41273  Biso   1.000  C
  C39      1.0000 0.61055  0.22266  0.41273  Biso   1.000  C
  H57      1.0000 0.22466  0.12812  0.57646  Biso   1.000  H
  C40      1.0000 0.32916  0.33234  0.63181  Biso   1.000  C
  H58      1.0000 0.81146  0.35055  0.42628  Biso   1.000  H
  H59      1.0000 0.77927  0.38571  0.37481  Biso   1.000  H
  C41      1.0000 0.83883  0.50225  0.43059  Biso   1.000  C
  H60      1.0000 0.53912  0.18852  0.42628  Biso   1.000  H
  H61      1.0000 0.60642  0.22069  0.37481  Biso   1.000  H
  C42      1.0000 0.66344  0.16116  0.43059  Biso   1.000  C
  H62      1.0000 0.28929  0.27486  0.65601  Biso   1.000  H
  H63      1.0000 0.30419  0.38209  0.63568  Biso   1.000  H
  N11      1.0000 0.44038  0.38516  0.64736  Biso   1.000  N
  H64      1.0000 0.81841  0.50824  0.46600  Biso   1.000  H
  H65      1.0000 0.82324  0.54577  0.40783  Biso   1.000  H
  N12      1.0000 0.95206  0.53860  0.42891  Biso   1.000  N
  H66      1.0000 0.68984  0.18158  0.46600  Biso   1.000  H
  H67      1.0000 0.72253  0.17677  0.40783  Biso   1.000  H
  N13      1.0000 0.58655  0.04794  0.42891  Biso   1.000  N
  H68      1.0000 0.47386  0.44406  0.63055  Biso   1.000  H
  C43      1.0000 0.49001  0.32177  0.63737  Biso   1.000  C
  H69      1.0000 0.96734  0.50375  0.45296  Biso   1.000  H
  C44      1.0000 0.01670  0.65190  0.44078  Biso   1.000  C
  H70      1.0000 0.53643  0.03264  0.45296  Biso   1.000  H
  C45      1.0000 0.63521  0.98328  0.44078  Biso   1.000  C
  H71      1.0000 0.44883  0.25294  0.65351  Biso   1.000  H
  H72      1.0000 0.49265  0.31176  0.59996  Biso   1.000  H
  C46      1.0000 0.60098  0.37696  0.65973  Biso   1.000  C
  C47      1.0000 0.99018  0.68667  0.49060  Biso   1.000  C
  H73      1.0000 0.09009  0.67003  0.44219  Biso   1.000  H
  H74      1.0000 0.00954  0.69140  0.41210  Biso   1.000  H
  C48      1.0000 0.69646  0.00978  0.49060  Biso   1.000  C
  H75      1.0000 0.57997  0.90996  0.44219  Biso   1.000  H
  H76      1.0000 0.68188  0.99046  0.41210  Biso   1.000  H
  H77      1.0000 0.59653  0.37271  0.69765  Biso   1.000  H
  H78      1.0000 0.63536  0.45092  0.65018  Biso   1.000  H
  N14      1.0000 0.66665  0.33336  0.64183  Biso   1.000  N
  C49      1.0000 0.93823  0.73792  0.50157  Biso   1.000  C
  O5       1.0000 0.01981  0.65868  0.53662  Biso   1.000  O
  C50      1.0000 0.79970  0.06182  0.50157  Biso   1.000  C
  O6       1.0000 0.63889  0.98013  0.53662  Biso   1.000  O
  C51      1.0000 0.77596  0.39904  0.65973  Biso   1.000  C
  C52      1.0000 0.62303  0.22400  0.65973  Biso   1.000  C
  H79      1.0000 0.90984  0.76457  0.47744  Biso   1.000  H
  C53      1.0000 0.93457  0.74383  0.55742  Biso   1.000  C
  C54      1.0000 0.98449  0.69550  0.57728  Biso   1.000  C
  H80      1.0000 0.85469  0.09012  0.47744  Biso   1.000  H
  C55      1.0000 0.80930  0.06544  0.55742  Biso   1.000  C
  C56      1.0000 0.71101  0.01553  0.57728  Biso   1.000  C
  C57      1.0000 0.83170  0.50998  0.63737  Biso   1.000  C
  H81      1.0000 0.77623  0.40353  0.69765  Biso   1.000  H
  H82      1.0000 0.81555  0.36458  0.65018  Biso   1.000  H
  C58      1.0000 0.67826  0.16826  0.63737  Biso   1.000  C
  H83      1.0000 0.62728  0.22377  0.69765  Biso   1.000  H
  H84      1.0000 0.54902  0.18442  0.65018  Biso   1.000  H
  H85      1.0000 0.90345  0.77529  0.57646  Biso   1.000  H
  C59      1.0000 0.00322  0.67082  0.63181  Biso   1.000  C
  H86      1.0000 0.87181  0.09651  0.57646  Biso   1.000  H
  C60      1.0000 0.66769  0.99677  0.63181  Biso   1.000  C
  N15      1.0000 0.94483  0.55965  0.64736  Biso   1.000  N
  H87      1.0000 0.80411  0.55121  0.65351  Biso   1.000  H
  H88      1.0000 0.81914  0.50737  0.59996  Biso   1.000  H
  N16      1.0000 0.61483  0.05519  0.64736  Biso   1.000  N
  H89      1.0000 0.74702  0.19585  0.65351  Biso   1.000  H
  H90      1.0000 0.68825  0.18087  0.59996  Biso   1.000  H
  H91      1.0000 0.98550  0.71064  0.65601  Biso   1.000  H
  H92      1.0000 0.07792  0.69582  0.63568  Biso   1.000  H
  H93      1.0000 0.72514  0.01443  0.65601  Biso   1.000  H
  H94      1.0000 0.61793  0.92210  0.63568  Biso   1.000  H
  H95      1.0000 0.97021  0.52614  0.63055  Biso   1.000  H
  H96      1.0000 0.55597  0.02980  0.63055  Biso   1.000  H
  N17      1.0000 0.72185  0.77372  0.68598  Biso   1.000  N
  C61      1.0000 0.66343  0.66246  0.70153  Biso   1.000  C
  H97      1.0000 0.69644  0.80715  0.70278  Biso   1.000  H
  C62      1.0000 0.83494  0.82331  0.69597  Biso   1.000  C
  C63      1.0000 0.68220  0.63786  0.75605  Biso   1.000  C
  H98      1.0000 0.68114  0.62265  0.67732  Biso   1.000  H
  H99      1.0000 0.58876  0.63755  0.69765  Biso   1.000  H
  H100     1.0000 0.86257  0.78215  0.67983  Biso   1.000  H
  H101     1.0000 0.84755  0.82599  0.73337  Biso   1.000  H
  C64      1.0000 0.89072  0.93433  0.67360  Biso   1.000  C
  C65      1.0000 0.73208  0.58945  0.77591  Biso   1.000  C
  O7       1.0000 0.64687  0.67469  0.79671  Biso   1.000  O
  H102     1.0000 0.89045  0.92983  0.63568  Biso   1.000  H
  H103     1.0000 0.85110  0.96870  0.68316  Biso   1.000  H
  N18      1.0000 0.00004  0.00000  0.69150  Biso   1.000  N
  C66      1.0000 0.72845  0.59545  0.83177  Biso   1.000  C
  H104     1.0000 0.76319  0.55799  0.75687  Biso   1.000  H
  C67      1.0000 0.67647  0.64662  0.84273  Biso   1.000  C
  C68      1.0000 0.06571  0.95640  0.67360  Biso   1.000  C
  C69      1.0000 0.04368  0.10929  0.67360  Biso   1.000  C
  H105     1.0000 0.75685  0.56880  0.85590  Biso   1.000  H
  C70      1.0000 0.64995  0.68139  0.89256  Biso   1.000  C
  H106     1.0000 0.07012  0.96058  0.63568  Biso   1.000  H
  H107     1.0000 0.03128  0.88237  0.68316  Biso   1.000  H
  C71      1.0000 0.17667  0.01159  0.69597  Biso   1.000  C
  C72      1.0000 0.98839  0.16503  0.69597  Biso   1.000  C
  H108     1.0000 0.03943  0.10952  0.63568  Biso   1.000  H
  H109     1.0000 0.11762  0.14887  0.68316  Biso   1.000  H
  N19      1.0000 0.71459  0.79469  0.90443  Biso   1.000  N
  H110     1.0000 0.57660  0.66333  0.89115  Biso   1.000  H
  H111     1.0000 0.65714  0.64196  0.92123  Biso   1.000  H
  N20      1.0000 0.22626  0.94812  0.68598  Biso   1.000  N
  H112     1.0000 0.21792  0.08043  0.67983  Biso   1.000  H
  H113     1.0000 0.17403  0.02161  0.73337  Biso   1.000  H
  H114     1.0000 0.91955  0.13743  0.67983  Biso   1.000  H
  H115     1.0000 0.97846  0.15241  0.73337  Biso   1.000  H
  N21      1.0000 0.05186  0.27817  0.68598  Biso   1.000  N
  C73      1.0000 0.82781  0.83104  0.90274  Biso   1.000  C
  H116     1.0000 0.69930  0.82954  0.88038  Biso   1.000  H
  H117     1.0000 0.19283  0.88930  0.70278  Biso   1.000  H
  C74      1.0000 0.33748  0.00095  0.70153  Biso   1.000  C
  C75      1.0000 0.99895  0.33652  0.70153  Biso   1.000  C
  H118     1.0000 0.11071  0.30356  0.70278  Biso   1.000  H
  C76      1.0000 0.88931  0.94544  0.92060  Biso   1.000  C
  H119     1.0000 0.84823  0.82505  0.86733  Biso   1.000  H
  H120     1.0000 0.84344  0.78759  0.92550  Biso   1.000  H
  H121     1.0000 0.36246  0.95120  0.69765  Biso   1.000  H
  C77      1.0000 0.36217  0.04432  0.75605  Biso   1.000  C
  H122     1.0000 0.37739  0.05851  0.67732  Biso   1.000  H
  C78      1.0000 0.95567  0.31783  0.75605  Biso   1.000  C
  H123     1.0000 0.94150  0.31886  0.67732  Biso   1.000  H
  H124     1.0000 0.04882  0.41127  0.69765  Biso   1.000  H
  H125     1.0000 0.85518  0.98274  0.90705  Biso   1.000  H
  H126     1.0000 0.88741  0.94765  0.95852  Biso   1.000  H
  N22      1.0000 0.00004  0.00000  0.90325  Biso   1.000  N
  O8       1.0000 0.32535  0.97217  0.79671  Biso   1.000  O
  C79      1.0000 0.41051  0.14264  0.77591  Biso   1.000  C
  C80      1.0000 0.85738  0.26792  0.77591  Biso   1.000  C
  O9       1.0000 0.02782  0.35316  0.79671  Biso   1.000  O
  C81      1.0000 0.05456  0.94395  0.92060  Biso   1.000  C
  C82      1.0000 0.05603  0.11063  0.92060  Biso   1.000  C
  C83      1.0000 0.35342  0.02981  0.84273  Biso   1.000  C
  C84      1.0000 0.40461  0.13302  0.83177  Biso   1.000  C
  H127     1.0000 0.44198  0.20516  0.75687  Biso   1.000  H
  C85      1.0000 0.86691  0.27155  0.83177  Biso   1.000  C
  H128     1.0000 0.79476  0.23678  0.75687  Biso   1.000  H
  C86      1.0000 0.97016  0.32359  0.84273  Biso   1.000  C
  H129     1.0000 0.01723  0.87243  0.90705  Biso   1.000  H
  H130     1.0000 0.05233  0.93977  0.95852  Biso   1.000  H
  C87      1.0000 0.16899  0.99677  0.90274  Biso   1.000  C
  H131     1.0000 0.12752  0.14477  0.90705  Biso   1.000  H
  H132     1.0000 0.06022  0.11260  0.95852  Biso   1.000  H
  C88      1.0000 0.00324  0.17220  0.90274  Biso   1.000  C
  C89      1.0000 0.31862  0.96854  0.89256  Biso   1.000  C
  H133     1.0000 0.43124  0.18805  0.85590  Biso   1.000  H
  H134     1.0000 0.81196  0.24317  0.85590  Biso   1.000  H
  C90      1.0000 0.03148  0.35008  0.89256  Biso   1.000  C
  N23      1.0000 0.20525  0.91990  0.90443  Biso   1.000  N
  H135     1.0000 0.17489  0.02319  0.86733  Biso   1.000  H
  H136     1.0000 0.21238  0.05583  0.92550  Biso   1.000  H
  H137     1.0000 0.97681  0.15170  0.86733  Biso   1.000  H
  H138     1.0000 0.94409  0.15659  0.92550  Biso   1.000  H
  N24      1.0000 0.08006  0.28543  0.90443  Biso   1.000  N
  H139     1.0000 0.33666  0.91327  0.89115  Biso   1.000  H
  H140     1.0000 0.35810  0.01514  0.92123  Biso   1.000  H
  H141     1.0000 0.98487  0.34291  0.92123  Biso   1.000  H
  H142     1.0000 0.08671  0.42341  0.89115  Biso   1.000  H
  H143     1.0000 0.17042  0.86975  0.88038  Biso   1.000  H
  H144     1.0000 0.13028  0.30064  0.88038  Biso   1.000  H
  C91      1.0000 0.44398  0.72120  0.74606  Biso   1.000  C
  N25      1.0000 0.33329  0.66672  0.76342  Biso   1.000  N
  H145     1.0000 0.47811  0.68391  0.75962  Biso   1.000  H
  H146     1.0000 0.44594  0.71900  0.70815  Biso   1.000  H
  C92      1.0000 0.50555  0.83561  0.76392  Biso   1.000  C
  C93      1.0000 0.27726  0.55602  0.74606  Biso   1.000  C
  C94      1.0000 0.27877  0.72278  0.74606  Biso   1.000  C
  H147     1.0000 0.48506  0.84160  0.79933  Biso   1.000  H
  H148     1.0000 0.48996  0.87913  0.74117  Biso   1.000  H
  N26      1.0000 0.61870  0.87196  0.76224  Biso   1.000  N
  C95      1.0000 0.33005  0.49444  0.76392  Biso   1.000  C
  H149     1.0000 0.20577  0.52188  0.75962  Biso   1.000  H
  H150     1.0000 0.27307  0.55405  0.70815  Biso   1.000  H
  H151     1.0000 0.31606  0.79422  0.75962  Biso   1.000  H
  H152     1.0000 0.28099  0.72696  0.70815  Biso   1.000  H
  C96      1.0000 0.16441  0.66995  0.76392  Biso   1.000  C
  H153     1.0000 0.63399  0.83711  0.78629  Biso   1.000  H
  C97      1.0000 0.68341  0.98526  0.77411  Biso   1.000  C
  N27      1.0000 0.25326  0.38130  0.76224  Biso   1.000  N
  H154     1.0000 0.35655  0.51494  0.79933  Biso   1.000  H
  H155     1.0000 0.38920  0.51006  0.74117  Biso   1.000  H
  H156     1.0000 0.15840  0.64346  0.79933  Biso   1.000  H
  H157     1.0000 0.12091  0.61082  0.74117  Biso   1.000  H
  N28      1.0000 0.12804  0.74675  0.76224  Biso   1.000  N
  H158     1.0000 0.75680  0.00339  0.77552  Biso   1.000  H
  H159     1.0000 0.67626  0.02476  0.74544  Biso   1.000  H
  C98      1.0000 0.65689  0.02003  0.82393  Biso   1.000  C
  H160     1.0000 0.20308  0.36600  0.78629  Biso   1.000  H
  C99      1.0000 0.30192  0.31665  0.77411  Biso   1.000  C
  H161     1.0000 0.16287  0.79690  0.78629  Biso   1.000  H
  C100     1.0000 0.01474  0.69810  0.77411  Biso   1.000  C
  O10      1.0000 0.68653  0.99204  0.86996  Biso   1.000  O
  C101     1.0000 0.60488  0.07128  0.83490  Biso   1.000  C
  H162     1.0000 0.24665  0.24324  0.77552  Biso   1.000  H
  H163     1.0000 0.34849  0.32374  0.74544  Biso   1.000  H
  C102     1.0000 0.36317  0.34314  0.82393  Biso   1.000  C
  H164     1.0000 0.99663  0.75337  0.77552  Biso   1.000  H
  H165     1.0000 0.97526  0.65150  0.74544  Biso   1.000  H
  C103     1.0000 0.97994  0.63684  0.82393  Biso   1.000  C
  C104     1.0000 0.65109  0.02878  0.91061  Biso   1.000  C
  H166     1.0000 0.57651  0.09785  0.81077  Biso   1.000  H
  C105     1.0000 0.60121  0.07719  0.89076  Biso   1.000  C
  C106     1.0000 0.46638  0.39510  0.83490  Biso   1.000  C
  O11      1.0000 0.30553  0.31349  0.86996  Biso   1.000  O
  O12      1.0000 0.00801  0.69448  0.86996  Biso   1.000  O
  C107     1.0000 0.92875  0.53363  0.83490  Biso   1.000  C
  C108     1.0000 0.66993  0.00418  0.96514  Biso   1.000  C
  H167     1.0000 0.57017  0.10865  0.90979  Biso   1.000  H
  H168     1.0000 0.52133  0.42348  0.81077  Biso   1.000  H
  C109     1.0000 0.47601  0.39880  0.89076  Biso   1.000  C
  C110     1.0000 0.37762  0.34881  0.91061  Biso   1.000  C
  C111     1.0000 0.97119  0.62233  0.91061  Biso   1.000  C
  H169     1.0000 0.90212  0.47860  0.81077  Biso   1.000  H
  C112     1.0000 0.92278  0.52401  0.89076  Biso   1.000  C
  N29      1.0000 0.61148  0.89301  0.98069  Biso   1.000  N
  H170     1.0000 0.65222  0.04400  0.98935  Biso   1.000  H
  H171     1.0000 0.74459  0.02910  0.96902  Biso   1.000  H
  H172     1.0000 0.53853  0.42987  0.90979  Biso   1.000  H
  C113     1.0000 0.33434  0.33013  0.96514  Biso   1.000  C
  C114     1.0000 0.99581  0.66570  0.96514  Biso   1.000  C
  H173     1.0000 0.89138  0.46149  0.90979  Biso   1.000  H
  C115     1.0000 0.49842  0.84334  0.97070  Biso   1.000  C
  H174     1.0000 0.63692  0.85950  0.96389  Biso   1.000  H
  H175     1.0000 0.39179  0.34779  0.98935  Biso   1.000  H
  H176     1.0000 0.28454  0.25538  0.96902  Biso   1.000  H
  N30      1.0000 0.28150  0.38847  0.98069  Biso   1.000  N
  N31      1.0000 0.10703  0.71852  0.98069  Biso   1.000  N
  H177     1.0000 0.95600  0.60822  0.98935  Biso   1.000  H
  H178     1.0000 0.97083  0.71545  0.96902  Biso   1.000  H
  C116     1.0000 0.44264  0.73232  0.99307  Biso   1.000  C
  H179     1.0000 0.47079  0.88450  0.98684  Biso   1.000  H
  H180     1.0000 0.48578  0.84074  0.93329  Biso   1.000  H
  H181     1.0000 0.22258  0.36309  0.96389  Biso   1.000  H
  C117     1.0000 0.34490  0.50162  0.97070  Biso   1.000  C
  C118     1.0000 0.15668  0.65505  0.97070  Biso   1.000  C
  H182     1.0000 0.14050  0.77742  0.96389  Biso   1.000  H
  N32      1.0000 0.33329  0.66672  0.97517  Biso   1.000  N
  H183     1.0000 0.48219  0.69795  0.98351  Biso   1.000  H
  H184     1.0000 0.44290  0.73682  0.03098  Biso   1.000  H
  H185     1.0000 0.41374  0.52921  0.98684  Biso   1.000  H
  H186     1.0000 0.35490  0.51423  0.93329  Biso   1.000  H
  C119     1.0000 0.28967  0.55736  0.99307  Biso   1.000  C
  C120     1.0000 0.26769  0.71032  0.99307  Biso   1.000  C
  H187     1.0000 0.11548  0.58630  0.98684  Biso   1.000  H
  H188     1.0000 0.15930  0.64512  0.93329  Biso   1.000  H
  H189     1.0000 0.21574  0.51778  0.98351  Biso   1.000  H
  H190     1.0000 0.29393  0.55713  0.03098  Biso   1.000  H
  H191     1.0000 0.30208  0.78428  0.98351  Biso   1.000  H
  H192     1.0000 0.26317  0.70607  0.03098  Biso   1.000  H
  C121     1.0000 0.69812  0.68336  0.22589  Biso   1.000  C
  N33      1.0000 0.74677  0.61871  0.23776  Biso   1.000  N
  H193     1.0000 0.75339  0.75676  0.22448  Biso   1.000  H
  H194     1.0000 0.65155  0.67626  0.25456  Biso   1.000  H
  C122     1.0000 0.63687  0.65687  0.17607  Biso   1.000  C
  C123     1.0000 0.66992  0.50556  0.23608  Biso   1.000  C
  H195     1.0000 0.79689  0.63400  0.21371  Biso   1.000  H
  C124     1.0000 0.53366  0.60491  0.16510  Biso   1.000  C
  O13      1.0000 0.69450  0.68651  0.13004  Biso   1.000  O
  C125     1.0000 0.72278  0.44398  0.25394  Biso   1.000  C
  H196     1.0000 0.64349  0.48506  0.20067  Biso   1.000  H
  H197     1.0000 0.61083  0.48995  0.25883  Biso   1.000  H
  H198     1.0000 0.47863  0.57652  0.18923  Biso   1.000  H
  C126     1.0000 0.52402  0.60120  0.10924  Biso   1.000  C
  C127     1.0000 0.62231  0.65111  0.08939  Biso   1.000  C
  N34      1.0000 0.66668  0.33328  0.23658  Biso   1.000  N
  H199     1.0000 0.79420  0.47812  0.24038  Biso   1.000  H
  H200     1.0000 0.72690  0.44595  0.29185  Biso   1.000  H
  H201     1.0000 0.46151  0.57014  0.09021  Biso   1.000  H
  C128     1.0000 0.66570  0.66988  0.03486  Biso   1.000  C
  C129     1.0000 0.55599  0.27880  0.25394  Biso   1.000  C
  C130     1.0000 0.72120  0.27722  0.25394  Biso   1.000  C
  H202     1.0000 0.60818  0.65221  0.01065  Biso   1.000  H
  H203     1.0000 0.71550  0.74462  0.03098  Biso   1.000  H
  N35      1.0000 0.71849  0.61145  0.01931  Biso   1.000  N
  C131     1.0000 0.49449  0.16439  0.23608  Biso   1.000  C
  H204     1.0000 0.52186  0.31609  0.24038  Biso   1.000  H
  H205     1.0000 0.55409  0.28101  0.29185  Biso   1.000  H
  H206     1.0000 0.68391  0.20579  0.24038  Biso   1.000  H
  H207     1.0000 0.71897  0.27304  0.29185  Biso   1.000  H
  C132     1.0000 0.83563  0.33005  0.23608  Biso   1.000  C
  C133     1.0000 0.65507  0.49839  0.02930  Biso   1.000  C
  H208     1.0000 0.77739  0.63692  0.03611  Biso   1.000  H
  N36      1.0000 0.38126  0.12805  0.23776  Biso   1.000  N
  H209     1.0000 0.51491  0.15840  0.20067  Biso   1.000  H
  H210     1.0000 0.51008  0.12087  0.25883  Biso   1.000  H
  H211     1.0000 0.84164  0.35654  0.20067  Biso   1.000  H
  H212     1.0000 0.87913  0.38918  0.25883  Biso   1.000  H
  N37      1.0000 0.87193  0.25325  0.23776  Biso   1.000  N
  C134     1.0000 0.71029  0.44264  0.00693  Biso   1.000  C
  H213     1.0000 0.58630  0.47079  0.01316  Biso   1.000  H
  H214     1.0000 0.64507  0.48577  0.06671  Biso   1.000  H
  H215     1.0000 0.36598  0.16290  0.21371  Biso   1.000  H
  C135     1.0000 0.31662  0.01474  0.22589  Biso   1.000  C
  H216     1.0000 0.83709  0.20311  0.21371  Biso   1.000  H
  C136     1.0000 0.98530  0.30190  0.22589  Biso   1.000  C
  N38      1.0000 0.66668  0.33328  0.02483  Biso   1.000  N
  H217     1.0000 0.78430  0.48222  0.01649  Biso   1.000  H
  H218     1.0000 0.70604  0.44288  0.96902  Biso   1.000  H
  H219     1.0000 0.24323  0.99661  0.22448  Biso   1.000  H
  H220     1.0000 0.32378  0.97524  0.25456  Biso   1.000  H
  C137     1.0000 0.34308  0.97997  0.17607  Biso   1.000  C
  H221     1.0000 0.00334  0.24663  0.22448  Biso   1.000  H
  H222     1.0000 0.02471  0.34850  0.25456  Biso   1.000  H
  C138     1.0000 0.02003  0.36316  0.17607  Biso   1.000  C
  C139     1.0000 0.55740  0.26768  0.00693  Biso   1.000  C
  C140     1.0000 0.73234  0.28968  0.00693  Biso   1.000  C
  O14      1.0000 0.31351  0.00796  0.13004  Biso   1.000  O
  C141     1.0000 0.39516  0.92872  0.16510  Biso   1.000  C
  O15      1.0000 0.99203  0.30553  0.13004  Biso   1.000  O
  C142     1.0000 0.07122  0.46637  0.16510  Biso   1.000  C
  C143     1.0000 0.50162  0.15667  0.02930  Biso   1.000  C
  H223     1.0000 0.51778  0.30206  0.01649  Biso   1.000  H
  H224     1.0000 0.55713  0.26319  0.96902  Biso   1.000  H
  C144     1.0000 0.84335  0.34495  0.02930  Biso   1.000  C
  H225     1.0000 0.69796  0.21572  0.01649  Biso   1.000  H
  H226     1.0000 0.73679  0.29394  0.96902  Biso   1.000  H
  C145     1.0000 0.34881  0.97122  0.08939  Biso   1.000  C
  H227     1.0000 0.42346  0.90215  0.18923  Biso   1.000  H
  C146     1.0000 0.39876  0.92281  0.10924  Biso   1.000  C
  C147     1.0000 0.02885  0.37767  0.08939  Biso   1.000  C
  H228     1.0000 0.09792  0.52141  0.18923  Biso   1.000  H
  C148     1.0000 0.07719  0.47599  0.10924  Biso   1.000  C
  N39      1.0000 0.38849  0.10699  0.01931  Biso   1.000  N
  H229     1.0000 0.52925  0.11551  0.01316  Biso   1.000  H
  H230     1.0000 0.51419  0.15927  0.06671  Biso   1.000  H
  N40      1.0000 0.89294  0.28148  0.01931  Biso   1.000  N
  H231     1.0000 0.88449  0.41371  0.01316  Biso   1.000  H
  H232     1.0000 0.84067  0.35489  0.06671  Biso   1.000  H
  C149     1.0000 0.33011  0.99582  0.03486  Biso   1.000  C
  H233     1.0000 0.42980  0.89135  0.09021  Biso   1.000  H
  C150     1.0000 0.00416  0.33431  0.03486  Biso   1.000  C
  H234     1.0000 0.10866  0.53852  0.09021  Biso   1.000  H
  H235     1.0000 0.36312  0.14050  0.03611  Biso   1.000  H
  H236     1.0000 0.85946  0.22258  0.03611  Biso   1.000  H
  H237     1.0000 0.34775  0.95600  0.01065  Biso   1.000  H
  H238     1.0000 0.25540  0.97083  0.03098  Biso   1.000  H
  H239     1.0000 0.04403  0.39179  0.01065  Biso   1.000  H
  H240     1.0000 0.02913  0.28456  0.03098  Biso   1.000  H
  C151     1.0000 0.00098  0.66349  0.29847  Biso   1.000  C
  C152     1.0000 0.04433  0.68218  0.24395  Biso   1.000  C
  H241     1.0000 0.05850  0.68115  0.32268  Biso   1.000  H
  H242     1.0000 0.95118  0.58874  0.30235  Biso   1.000  H
  N41      1.0000 0.94815  0.72184  0.31402  Biso   1.000  N
  C153     1.0000 0.14262  0.73209  0.22409  Biso   1.000  C
  O16      1.0000 0.97218  0.64685  0.20329  Biso   1.000  O
  C154     1.0000 0.01162  0.83498  0.30403  Biso   1.000  C
  H243     1.0000 0.88930  0.69645  0.29722  Biso   1.000  H
  C155     1.0000 0.13302  0.72846  0.16823  Biso   1.000  C
  H244     1.0000 0.20517  0.76323  0.24313  Biso   1.000  H
  C156     1.0000 0.02978  0.67642  0.15727  Biso   1.000  C
  H245     1.0000 0.08038  0.86258  0.32017  Biso   1.000  H
  H246     1.0000 0.02157  0.84752  0.26663  Biso   1.000  H
  C157     1.0000 0.95639  0.89072  0.32640  Biso   1.000  C
  H247     1.0000 0.18805  0.75684  0.14410  Biso   1.000  H
  C158     1.0000 0.96853  0.64993  0.10744  Biso   1.000  C
  H248     1.0000 0.96064  0.89049  0.36432  Biso   1.000  H
  H249     1.0000 0.88238  0.85114  0.31684  Biso   1.000  H
  N42      1.0000 1.00000  0.99993  0.30850  Biso   1.000  N
  H250     1.0000 0.01513  0.65710  0.07877  Biso   1.000  H
  N43      1.0000 0.91987  0.71458  0.09557  Biso   1.000  N
  H251     1.0000 0.91329  0.57660  0.10885  Biso   1.000  H
  C159     1.0000 0.93430  0.04361  0.32640  Biso   1.000  C
  C160     1.0000 0.10935  0.06568  0.32640  Biso   1.000  C
  C161     1.0000 0.99676  0.82780  0.09726  Biso   1.000  C
  H252     1.0000 0.86979  0.69936  0.11962  Biso   1.000  H
  C162     1.0000 0.82333  0.98841  0.30403  Biso   1.000  C
  H253     1.0000 0.92978  0.03935  0.36432  Biso   1.000  H
  H254     1.0000 0.96872  0.11764  0.31684  Biso   1.000  H
  C163     1.0000 0.16503  0.17662  0.30403  Biso   1.000  C
  H255     1.0000 0.10962  0.07018  0.36432  Biso   1.000  H
  H256     1.0000 0.14884  0.03131  0.31684  Biso   1.000  H
  H257     1.0000 0.02316  0.84823  0.13267  Biso   1.000  H
  H258     1.0000 0.05585  0.84342  0.07450  Biso   1.000  H
  C164     1.0000 0.94387  0.88930  0.07940  Biso   1.000  C
  H259     1.0000 0.78215  0.91958  0.32017  Biso   1.000  H
  H260     1.0000 0.82597  0.97840  0.26663  Biso   1.000  H
  N44      1.0000 0.77367  0.05189  0.31402  Biso   1.000  N
  N45      1.0000 0.27808  0.22629  0.31402  Biso   1.000  N
  H261     1.0000 0.13750  0.21786  0.32017  Biso   1.000  H
  H262     1.0000 0.15246  0.17402  0.26663  Biso   1.000  H
  N46      1.0000 1.00000  0.99993  0.09675  Biso   1.000  N
  H263     1.0000 0.87248  0.85524  0.09295  Biso   1.000  H
  H264     1.0000 0.93978  0.88741  0.04148  Biso   1.000  H
  C165     1.0000 0.66252  0.99906  0.29847  Biso   1.000  C
  H265     1.0000 0.80718  0.11070  0.29722  Biso   1.000  H
  C166     1.0000 0.33658  0.33754  0.29847  Biso   1.000  C
  H266     1.0000 0.30363  0.19286  0.29722  Biso   1.000  H
  C167     1.0000 0.94538  0.05606  0.07940  Biso   1.000  C
  C168     1.0000 0.11069  0.05457  0.07940  Biso   1.000  C
  C169     1.0000 0.63783  0.95569  0.24395  Biso   1.000  C
  H267     1.0000 0.62261  0.94150  0.32268  Biso   1.000  H
  H268     1.0000 0.63748  0.04881  0.30235  Biso   1.000  H
  C170     1.0000 0.31788  0.36214  0.24395  Biso   1.000  C
  H269     1.0000 0.31893  0.37736  0.32268  Biso   1.000  H
  H270     1.0000 0.41124  0.36246  0.30235  Biso   1.000  H
  H271     1.0000 0.98273  0.12750  0.09295  Biso   1.000  H
  H272     1.0000 0.94767  0.06024  0.04148  Biso   1.000  H
  C171     1.0000 0.83108  0.00324  0.09726  Biso   1.000  C
  H273     1.0000 0.14476  0.01727  0.09295  Biso   1.000  H
  H274     1.0000 0.11266  0.05236  0.04148  Biso   1.000  H
  C172     1.0000 0.17226  0.16897  0.09726  Biso   1.000  C
  C173     1.0000 0.58949  0.85737  0.22409  Biso   1.000  C
  O17      1.0000 0.67472  0.02784  0.20329  Biso   1.000  O
  C174     1.0000 0.26793  0.41056  0.22409  Biso   1.000  C
  O18      1.0000 0.35320  0.32532  0.20329  Biso   1.000  O
  H275     1.0000 0.82505  0.97682  0.13267  Biso   1.000  H
  H276     1.0000 0.78756  0.94418  0.07450  Biso   1.000  H
  N47      1.0000 0.79475  0.08011  0.09557  Biso   1.000  N
  H277     1.0000 0.15177  0.17496  0.13267  Biso   1.000  H
  H278     1.0000 0.15657  0.21242  0.07450  Biso   1.000  H
  N48      1.0000 0.28542  0.20532  0.09557  Biso   1.000  N
  C175     1.0000 0.59546  0.86699  0.16823  Biso   1.000  C
  H279     1.0000 0.55802  0.79485  0.24313  Biso   1.000  H
  C176     1.0000 0.64666  0.97020  0.15727  Biso   1.000  C
  C177     1.0000 0.27149  0.40456  0.16823  Biso   1.000  C
  H280     1.0000 0.23688  0.44202  0.24313  Biso   1.000  H
  C178     1.0000 0.32361  0.35339  0.15727  Biso   1.000  C
  H281     1.0000 0.82952  0.13026  0.11962  Biso   1.000  H
  C179     1.0000 0.68139  0.03146  0.10744  Biso   1.000  C
  H282     1.0000 0.30063  0.17047  0.11962  Biso   1.000  H
  C180     1.0000 0.35006  0.31862  0.10744  Biso   1.000  C
  H283     1.0000 0.56876  0.81196  0.14410  Biso   1.000  H
  H284     1.0000 0.24323  0.43121  0.14410  Biso   1.000  H
  H285     1.0000 0.64197  0.98487  0.07877  Biso   1.000  H
  H286     1.0000 0.66327  0.08674  0.10885  Biso   1.000  H
  H287     1.0000 0.42341  0.33668  0.10885  Biso   1.000  H
  H288     1.0000 0.34287  0.35804  0.07877  Biso   1.000  H
  Ne1      1.0000 0.66667  0.33333  0.13166  Biso   1.000  Ne
  He1      1.0000 0.57625  0.30668  0.13071  Biso   1.000  He
  He2      1.0000 0.62588  0.27664  0.13071  Biso   1.000  He
  He3      1.0000 0.71011  0.41059  0.13071  Biso   1.000  He
  Ar1      1.0000 0.57639  0.30691  0.13071  Biso   1.000  Ar
  Ne2      1.0000 0.66667  0.33333  0.53500  Biso   1.000  Ne
  He4      1.0000 0.69814  0.30170  0.53596  Biso   1.000  He
  He5      1.0000 0.64657  0.27077  0.53596  Biso   1.000  He
  He6      1.0000 0.70825  0.38944  0.53596  Biso   1.000  He
  Ar2      1.0000 0.66667  0.33333  0.53596  Biso   1.000  Ar
  Ne3      1.0000 0.33334  0.66667  0.46500  Biso   1.000  Ne
  He7      1.0000 0.24253  0.66521  0.46404  Biso   1.000  He
  He8      1.0000 0.35004  0.72712  0.46404  Biso   1.000  He
  He9      1.0000 0.26403  0.62825  0.46404  Biso   1.000  He
  Ar3      1.0000 0.30737  0.70150  0.46403  Biso   1.000  Ar
  Ne4      1.0000 0.00001  0.00000  0.20167  Biso   1.000  Ne
  He10     1.0000 0.03152  0.96835  0.20262  Biso   1.000  He
  He11     1.0000 0.97989  0.93738  0.20262  Biso   1.000  He
  He12     1.0000 0.04163  0.05602  0.20263  Biso   1.000  He
  Ar4      1.0000 0.00001  0.00000  0.20262  Biso   1.000  Ar
  Ne5      1.0000 1.00000  0.00000  0.79833  Biso   1.000  Ne
  He13     1.0000 0.01497  0.05935  0.79738  Biso   1.000  He
  He14     1.0000 0.97752  0.03683  0.79737  Biso   1.000  He
  He15     1.0000 0.06841  0.04393  0.79738  Biso   1.000  He
  Ar5      1.0000 0.01497  0.05936  0.79737  Biso   1.000  Ar
  Ne6      1.0000 0.33334  0.66667  0.86834  Biso   1.000  Ne
  He16     1.0000 0.36479  0.63506  0.86929  Biso   1.000  He
  He17     1.0000 0.31323  0.60413  0.86929  Biso   1.000  He
  He18     1.0000 0.37490  0.72281  0.86929  Biso   1.000  He
  Ar6      1.0000 0.33334  0.66667  0.86929  Biso   1.000  Ar
