data_image0
_cell_length_a       13.782
_cell_length_b       19.442
_cell_length_c       21.953
_cell_angle_alpha    88.24
_cell_angle_beta     76.49
_cell_angle_gamma    86.79

_symmetry_space_group_name_H-M    "P 1"
_symmetry_int_tables_number       1

loop_
  _symmetry_equiv_pos_as_xyz
  'x, y, z'

loop_
  _atom_site_label
  _atom_site_occupancy
  _atom_site_fract_x
  _atom_site_fract_y
  _atom_site_fract_z
  _atom_site_thermal_displace_type
  _atom_site_B_iso_or_equiv
  _atom_site_type_symbol
  C1       1.0000 0.51890  0.58801  0.43529  Biso   1.000  C
  C2       1.0000 0.63234  0.59340  0.41866  Biso   1.000  C
  C3       1.0000 0.46853  0.63761  0.48740  Biso   1.000  C
  H1       1.0000 0.50281  0.54118  0.44869  Biso   1.000  H
  H2       1.0000 0.49322  0.59849  0.39832  Biso   1.000  H
  C4       1.0000 0.67562  0.54548  0.36730  Biso   1.000  C
  C5       1.0000 0.65557  0.66769  0.39739  Biso   1.000  C
  C6       1.0000 0.67110  0.57680  0.47831  Biso   1.000  C
  C7       1.0000 0.49318  0.71162  0.46509  Biso   1.000  C
  C8       1.0000 0.50924  0.62151  0.54578  Biso   1.000  C
  C9       1.0000 0.36008  0.62932  0.50019  Biso   1.000  C
  C10      1.0000 0.70500  0.50947  0.32331  Biso   1.000  C
  C11      1.0000 0.60743  0.71848  0.44930  Biso   1.000  C
  H3       1.0000 0.72738  0.67198  0.38661  Biso   1.000  H
  H4       1.0000 0.63068  0.67879  0.36032  Biso   1.000  H
  C12      1.0000 0.62152  0.62720  0.52928  Biso   1.000  C
  H5       1.0000 0.65598  0.53000  0.49260  Biso   1.000  H
  H6       1.0000 0.74304  0.58029  0.46889  Biso   1.000  H
  H7       1.0000 0.46162  0.74358  0.49770  Biso   1.000  H
  H8       1.0000 0.46756  0.72282  0.42822  Biso   1.000  H
  H9       1.0000 0.47879  0.65362  0.57848  Biso   1.000  H
  H10      1.0000 0.49287  0.57520  0.56119  Biso   1.000  H
  C13      1.0000 0.27349  0.61792  0.50618  Biso   1.000  C
  C14      1.0000 0.73950  0.47072  0.26708  Biso   1.000  C
  C15      1.0000 0.63234  0.78890  0.42648  Biso   1.000  C
  C16      1.0000 0.64701  0.70011  0.50768  Biso   1.000  C
  H11      1.0000 0.64687  0.61630  0.56682  Biso   1.000  H
  C17      1.0000 0.17009  0.60622  0.51181  Biso   1.000  C
  C18      1.0000 0.70288  0.48939  0.21469  Biso   1.000  C
  C19      1.0000 0.80904  0.41538  0.26258  Biso   1.000  C
  C20      1.0000 0.65533  0.84341  0.40558  Biso   1.000  C
  H12      1.0000 0.71877  0.70401  0.49808  Biso   1.000  H
  H13      1.0000 0.61722  0.73201  0.54081  Biso   1.000  H
  C21      1.0000 0.10902  0.58511  0.56771  Biso   1.000  C
  C22      1.0000 0.12922  0.61672  0.46031  Biso   1.000  C
  C23      1.0000 0.73677  0.45589  0.15842  Biso   1.000  C
  H14      1.0000 0.65453  0.52519  0.21751  Biso   1.000  H
  C24      1.0000 0.84270  0.38058  0.20720  Biso   1.000  C
  H15      1.0000 0.83320  0.40160  0.29749  Biso   1.000  H
  C25      1.0000 0.68479  0.90998  0.37878  Biso   1.000  C
  H16      1.0000 0.13539  0.57741  0.60280  Biso   1.000  H
  C26      1.0000 0.00930  0.57519  0.57202  Biso   1.000  C
  C27      1.0000 0.02917  0.60569  0.46359  Biso   1.000  C
  H17      1.0000 0.16940  0.63149  0.42250  Biso   1.000  H
  C28      1.0000 0.80583  0.40100  0.15491  Biso   1.000  C
  C29      1.0000 0.70129  0.47948  0.10449  Biso   1.000  C
  C30      1.0000 0.91603  0.32198  0.20078  Biso   1.000  C
  C31      1.0000 0.76977  0.93890  0.38820  Biso   1.000  C
  C32      1.0000 0.63187  0.94542  0.34031  Biso   1.000  C
  C33      1.0000 0.96970  0.58529  0.52010  Biso   1.000  C
  C34      1.0000 0.94007  0.55499  0.63171  Biso   1.000  C
  C35      1.0000 0.98939  0.61728  0.40952  Biso   1.000  C
  H18      1.0000 0.82789  0.37737  0.11761  Biso   1.000  H
  C36      1.0000 0.67119  0.50148  0.06058  Biso   1.000  C
  O1       1.0000 0.95262  0.29290  0.15308  Biso   1.000  O
  O2       1.0000 0.93991  0.30490  0.25410  Biso   1.000  O
  H19      1.0000 0.80612  0.91649  0.41439  Biso   1.000  H
  C37      1.0000 0.80108  0.00058  0.35920  Biso   1.000  C
  H20      1.0000 0.57458  0.92701  0.33361  Biso   1.000  H
  C38      1.0000 0.66198  0.00730  0.31159  Biso   1.000  C
  H21      1.0000 0.90250  0.57822  0.52319  Biso   1.000  H
  O3       1.0000 0.98342  0.55150  0.67974  Biso   1.000  O
  O4       1.0000 0.85503  0.54182  0.63588  Biso   1.000  O
  C39      1.0000 0.95872  0.62942  0.36360  Biso   1.000  C
  C40      1.0000 0.63659  0.52758  0.00998  Biso   1.000  C
  C41      1.0000 0.01188  0.24588  0.25302  Biso   1.000  C
  C42      1.0000 0.74783  0.03499  0.32068  Biso   1.000  C
  C43      1.0000 0.89369  0.02898  0.36890  Biso   1.000  C
  C44      1.0000 0.60514  0.04128  0.27148  Biso   1.000  C
  C45      1.0000 0.92128  0.53268  0.74018  Biso   1.000  C
  C46      1.0000 0.92288  0.64498  0.31192  Biso   1.000  C
  C47      1.0000 0.60700  0.55039  0.96650  Biso   1.000  C
  H22      1.0000 0.98498  0.20538  0.24070  Biso   1.000  H
  H23      1.0000 0.02419  0.23852  0.29402  Biso   1.000  H
  H24      1.0000 0.07331  0.25528  0.22360  Biso   1.000  H
  H25      1.0000 0.76931  0.07618  0.30100  Biso   1.000  H
  O5       1.0000 0.93101  0.07678  0.33549  Biso   1.000  O
  O6       1.0000 0.92974  0.00151  0.41299  Biso   1.000  O
  C48      1.0000 0.55667  0.06510  0.23681  Biso   1.000  C
  H26      1.0000 0.96001  0.53231  0.77130  Biso   1.000  H
  H27      1.0000 0.89708  0.48769  0.73812  Biso   1.000  H
  H28      1.0000 0.86582  0.56558  0.75119  Biso   1.000  H
  C49      1.0000 0.89000  0.66108  0.26680  Biso   1.000  C
  C50      1.0000 0.56780  0.57872  0.91510  Biso   1.000  C
  C51      1.0000 0.02267  0.03421  0.41388  Biso   1.000  C
  C52      1.0000 0.49908  0.09061  0.19778  Biso   1.000  C
  C53      1.0000 0.85072  0.68222  0.21441  Biso   1.000  C
  C54      1.0000 0.59290  0.54887  0.85690  Biso   1.000  C
  C55      1.0000 0.50138  0.63581  0.92489  Biso   1.000  C
  H29      1.0000 0.05127  0.01311  0.44621  Biso   1.000  H
  H30      1.0000 0.00874  0.08242  0.42198  Biso   1.000  H
  H31      1.0000 0.06887  0.02851  0.37400  Biso   1.000  H
  C56      1.0000 0.44680  0.11009  0.16371  Biso   1.000  C
  C57      1.0000 0.90673  0.72018  0.16582  Biso   1.000  C
  C58      1.0000 0.75578  0.66512  0.21151  Biso   1.000  C
  H32      1.0000 0.63717  0.51047  0.85020  Biso   1.000  H
  C59      1.0000 0.55298  0.57549  0.80878  Biso   1.000  C
  C60      1.0000 0.45999  0.66299  0.87728  Biso   1.000  C
  H33      1.0000 0.48449  0.65610  0.96401  Biso   1.000  H
  C61      1.0000 0.37941  0.12990  0.12379  Biso   1.000  C
  C62      1.0000 0.87059  0.74069  0.11391  Biso   1.000  C
  H34      1.0000 0.97007  0.73239  0.16812  Biso   1.000  H
  C63      1.0000 0.71813  0.68500  0.16048  Biso   1.000  C
  H35      1.0000 0.71722  0.64000  0.24421  Biso   1.000  H
  C64      1.0000 0.48683  0.63221  0.81909  Biso   1.000  C
  C65      1.0000 0.57523  0.54372  0.74618  Biso   1.000  C
  C66      1.0000 0.38858  0.72011  0.88801  Biso   1.000  C
  C67      1.0000 0.35200  0.07920  0.08790  Biso   1.000  C
  C68      1.0000 0.33780  0.19611  0.12328  Biso   1.000  C
  C69      1.0000 0.93249  0.77978  0.06541  Biso   1.000  C
  C70      1.0000 0.77540  0.72192  0.11222  Biso   1.000  C
  C71      1.0000 0.61527  0.66452  0.16142  Biso   1.000  C
  H36      1.0000 0.45982  0.65012  0.78648  Biso   1.000  H
  O7       1.0000 0.63572  0.48789  0.74309  Biso   1.000  O
  O8       1.0000 0.54191  0.56450  0.70378  Biso   1.000  O
  C72      1.0000 0.32558  0.76642  0.89832  Biso   1.000  C
  C73      1.0000 0.28442  0.09492  0.05168  Biso   1.000  C
  H37      1.0000 0.37983  0.03458  0.08851  Biso   1.000  H
  C74      1.0000 0.27089  0.21292  0.08640  Biso   1.000  C
  H38      1.0000 0.35471  0.22951  0.14778  Biso   1.000  H
  C75      1.0000 0.98971  0.81048  0.02661  Biso   1.000  C
  H39      1.0000 0.74999  0.73461  0.07759  Biso   1.000  H
  O9       1.0000 0.56239  0.63689  0.20392  Biso   1.000  O
  O10      1.0000 0.58999  0.68268  0.10852  Biso   1.000  O
  C76      1.0000 0.65842  0.45142  0.68339  Biso   1.000  C
  C77      1.0000 0.24509  0.82051  0.91379  Biso   1.000  C
  C78      1.0000 0.25381  0.04130  0.01781  Biso   1.000  C
  C79      1.0000 0.24462  0.16211  0.05098  Biso   1.000  C
  C80      1.0000 0.22563  0.28372  0.08809  Biso   1.000  C
  C81      1.0000 0.07048  0.84341  0.97962  Biso   1.000  C
  C82      1.0000 0.48770  0.66419  0.10871  Biso   1.000  C
  H40      1.0000 0.70327  0.41237  0.68578  Biso   1.000  H
  H41      1.0000 0.68901  0.48191  0.65008  Biso   1.000  H
  H42      1.0000 0.59771  0.43602  0.67529  Biso   1.000  H
  C83      1.0000 0.28070  0.88158  0.94359  Biso   1.000  C
  C84      1.0000 0.20942  0.84538  0.85540  Biso   1.000  C
  C85      1.0000 0.15723  0.78907  0.96102  Biso   1.000  C
  C86      1.0000 0.22897  0.99498  0.99222  Biso   1.000  C
  H43      1.0000 0.19931  0.17332  0.02629  Biso   1.000  H
  O11      1.0000 0.22923  0.32429  0.12792  Biso   1.000  O
  O12      1.0000 0.17990  0.29708  0.04320  Biso   1.000  O
  C87      1.0000 0.10682  0.90490  0.00909  Biso   1.000  C
  C88      1.0000 0.03628  0.86860  0.92072  Biso   1.000  C
  H44      1.0000 0.47250  0.67801  0.06939  Biso   1.000  H
  H45      1.0000 0.44119  0.68721  0.14221  Biso   1.000  H
  H46      1.0000 0.48291  0.61518  0.11442  Biso   1.000  H
  C89      1.0000 0.19448  0.93691  0.96191  Biso   1.000  C
  H47      1.0000 0.33651  0.90128  0.91421  Biso   1.000  H
  H48      1.0000 0.30328  0.86591  0.98060  Biso   1.000  H
  H49      1.0000 0.26412  0.86520  0.82509  Biso   1.000  H
  H50      1.0000 0.18700  0.80681  0.83629  Biso   1.000  H
  C90      1.0000 0.12378  0.89951  0.87419  Biso   1.000  C
  H51      1.0000 0.13468  0.75009  0.94232  Biso   1.000  H
  H52      1.0000 0.17902  0.77262  0.99799  Biso   1.000  H
  C91      1.0000 0.13128  0.36451  0.04100  Biso   1.000  C
  H53      1.0000 0.05237  0.93928  0.02099  Biso   1.000  H
  H54      1.0000 0.12831  0.88962  0.04662  Biso   1.000  H
  H55      1.0000 0.98177  0.90299  0.93178  Biso   1.000  H
  H56      1.0000 0.01261  0.83028  0.90179  Biso   1.000  H
  C92      1.0000 0.15991  0.96049  0.90320  Biso   1.000  C
  H57      1.0000 0.10157  0.91550  0.83671  Biso   1.000  H
  H58      1.0000 0.10219  0.36810  0.00529  Biso   1.000  H
  H59      1.0000 0.17960  0.39899  0.03758  Biso   1.000  H
  H60      1.0000 0.08000  0.37128  0.07848  Biso   1.000  H
  H61      1.0000 0.10600  0.99551  0.91388  Biso   1.000  H
  H62      1.0000 0.21472  0.98051  0.87311  Biso   1.000  H
  C93      1.0000 0.48109  0.41198  0.56471  Biso   1.000  C
  C94      1.0000 0.36772  0.40660  0.58134  Biso   1.000  C
  C95      1.0000 0.53153  0.36238  0.51260  Biso   1.000  C
  H63      1.0000 0.49718  0.45881  0.55131  Biso   1.000  H
  H64      1.0000 0.50683  0.40150  0.60168  Biso   1.000  H
  C96      1.0000 0.34441  0.33230  0.60261  Biso   1.000  C
  C97      1.0000 0.32889  0.42319  0.52169  Biso   1.000  C
  C98      1.0000 0.32444  0.45451  0.63270  Biso   1.000  C
  C99      1.0000 0.50680  0.28842  0.53491  Biso   1.000  C
  C100     1.0000 0.49082  0.37848  0.45422  Biso   1.000  C
  C101     1.0000 0.63990  0.37072  0.49981  Biso   1.000  C
  C102     1.0000 0.39263  0.28151  0.55070  Biso   1.000  C
  H65      1.0000 0.27261  0.32801  0.61339  Biso   1.000  H
  H66      1.0000 0.36930  0.32120  0.63968  Biso   1.000  H
  C103     1.0000 0.37847  0.37280  0.47071  Biso   1.000  C
  H67      1.0000 0.34401  0.46999  0.50740  Biso   1.000  H
  H68      1.0000 0.25702  0.41971  0.53111  Biso   1.000  H
  C104     1.0000 0.29499  0.49052  0.67669  Biso   1.000  C
  H69      1.0000 0.53837  0.25641  0.50230  Biso   1.000  H
  H70      1.0000 0.53242  0.27722  0.57178  Biso   1.000  H
  H71      1.0000 0.52119  0.34642  0.42152  Biso   1.000  H
  H72      1.0000 0.50712  0.42479  0.43881  Biso   1.000  H
  C105     1.0000 0.72649  0.38212  0.49381  Biso   1.000  C
  C106     1.0000 0.35297  0.29988  0.49232  Biso   1.000  C
  C107     1.0000 0.36772  0.21109  0.57352  Biso   1.000  C
  H73      1.0000 0.35312  0.38369  0.43318  Biso   1.000  H
  C108     1.0000 0.26048  0.52932  0.73292  Biso   1.000  C
  C109     1.0000 0.82989  0.39383  0.48819  Biso   1.000  C
  H74      1.0000 0.28121  0.29598  0.50192  Biso   1.000  H
  H75      1.0000 0.38284  0.26798  0.45919  Biso   1.000  H
  C110     1.0000 0.34473  0.15659  0.59441  Biso   1.000  C
  C111     1.0000 0.19102  0.58461  0.73742  Biso   1.000  C
  C112     1.0000 0.29710  0.51060  0.78531  Biso   1.000  C
  C113     1.0000 0.89104  0.41488  0.43229  Biso   1.000  C
  C114     1.0000 0.87084  0.38332  0.53969  Biso   1.000  C
  C115     1.0000 0.31520  0.09001  0.62122  Biso   1.000  C
  H76      1.0000 0.16679  0.59839  0.70251  Biso   1.000  H
  C116     1.0000 0.15729  0.61941  0.79280  Biso   1.000  C
  C117     1.0000 0.26321  0.54410  0.84158  Biso   1.000  C
  H77      1.0000 0.34553  0.47480  0.78249  Biso   1.000  H
  H78      1.0000 0.86460  0.42259  0.39720  Biso   1.000  H
  C118     1.0000 0.99068  0.42480  0.42798  Biso   1.000  C
  C119     1.0000 0.97081  0.39430  0.53641  Biso   1.000  C
  H79      1.0000 0.83058  0.36850  0.57750  Biso   1.000  H
  C120     1.0000 0.23022  0.06109  0.61180  Biso   1.000  C
  C121     1.0000 0.36811  0.05462  0.65968  Biso   1.000  C
  C122     1.0000 0.19422  0.59899  0.84509  Biso   1.000  C
  C123     1.0000 0.08402  0.67801  0.79922  Biso   1.000  C
  C124     1.0000 0.29870  0.52051  0.89551  Biso   1.000  C
  C125     1.0000 0.03028  0.41470  0.47990  Biso   1.000  C
  C126     1.0000 0.05992  0.44501  0.36829  Biso   1.000  C
  C127     1.0000 0.01060  0.38272  0.59048  Biso   1.000  C
  H80      1.0000 0.19393  0.08351  0.58561  Biso   1.000  H
  C128     1.0000 0.19890  0.99941  0.64080  Biso   1.000  C
  H81      1.0000 0.42541  0.07298  0.66638  Biso   1.000  H
  C129     1.0000 0.33801  0.99269  0.68841  Biso   1.000  C
  H82      1.0000 0.17209  0.62262  0.88239  Biso   1.000  H
  O13      1.0000 0.04736  0.70709  0.84692  Biso   1.000  O
  O14      1.0000 0.06007  0.69510  0.74590  Biso   1.000  O
  C130     1.0000 0.32880  0.49851  0.93941  Biso   1.000  C
  H83      1.0000 0.09748  0.42182  0.47681  Biso   1.000  H
  O15      1.0000 0.01664  0.44849  0.32026  Biso   1.000  O
  O16      1.0000 0.14503  0.45817  0.36412  Biso   1.000  O
  C131     1.0000 0.04127  0.37062  0.63640  Biso   1.000  C
  C132     1.0000 0.25223  0.96500  0.67932  Biso   1.000  C
  C133     1.0000 0.10629  0.97101  0.63110  Biso   1.000  C
  C134     1.0000 0.39491  0.95871  0.72852  Biso   1.000  C
  C135     1.0000 0.98811  0.75411  0.74698  Biso   1.000  C
  C136     1.0000 0.36340  0.47241  0.99002  Biso   1.000  C
  C137     1.0000 0.07871  0.46731  0.25982  Biso   1.000  C
  C138     1.0000 0.07711  0.35501  0.68808  Biso   1.000  C
  H84      1.0000 0.23067  0.92381  0.69900  Biso   1.000  H
  O17      1.0000 0.06898  0.92321  0.66451  Biso   1.000  O
  O18      1.0000 0.07032  0.99848  0.58701  Biso   1.000  O
  C139     1.0000 0.44332  0.93489  0.76319  Biso   1.000  C
  H85      1.0000 0.01501  0.79461  0.75930  Biso   1.000  H
  H86      1.0000 0.97579  0.76152  0.70598  Biso   1.000  H
  H87      1.0000 0.92667  0.74471  0.77640  Biso   1.000  H
  C140     1.0000 0.39299  0.44960  0.03350  Biso   1.000  C
  H88      1.0000 0.03997  0.46768  0.22870  Biso   1.000  H
  H89      1.0000 0.10290  0.51230  0.26188  Biso   1.000  H
  H90      1.0000 0.13417  0.43441  0.24880  Biso   1.000  H
  C141     1.0000 0.10998  0.33891  0.73320  Biso   1.000  C
  C142     1.0000 0.97731  0.96578  0.58612  Biso   1.000  C
  C143     1.0000 0.50090  0.90938  0.80222  Biso   1.000  C
  C144     1.0000 0.43218  0.42132  0.08490  Biso   1.000  C
  C145     1.0000 0.14933  0.31782  0.78559  Biso   1.000  C
  H91      1.0000 0.94871  0.98688  0.55379  Biso   1.000  H
  H92      1.0000 0.99132  0.91762  0.57801  Biso   1.000  H
  H93      1.0000 0.93111  0.97148  0.62600  Biso   1.000  H
  C146     1.0000 0.55318  0.88990  0.83628  Biso   1.000  C
  C147     1.0000 0.40709  0.45112  0.14310  Biso   1.000  C
  C148     1.0000 0.49861  0.36418  0.07511  Biso   1.000  C
  C149     1.0000 0.24420  0.33492  0.78849  Biso   1.000  C
  C150     1.0000 0.09331  0.27981  0.83422  Biso   1.000  C
  C151     1.0000 0.62057  0.87009  0.87621  Biso   1.000  C
  H94      1.0000 0.36281  0.48952  0.14980  Biso   1.000  H
  C152     1.0000 0.44701  0.42450  0.19122  Biso   1.000  C
  C153     1.0000 0.54000  0.33700  0.12271  Biso   1.000  C
  H95      1.0000 0.51549  0.34389  0.03598  Biso   1.000  H
  C154     1.0000 0.28186  0.31500  0.83952  Biso   1.000  C
  H96      1.0000 0.28283  0.35999  0.75579  Biso   1.000  H
  C155     1.0000 0.12940  0.25930  0.88609  Biso   1.000  C
  H97      1.0000 0.02992  0.26760  0.83188  Biso   1.000  H
  C156     1.0000 0.66218  0.80389  0.87672  Biso   1.000  C
  C157     1.0000 0.64798  0.92079  0.91210  Biso   1.000  C
  C158     1.0000 0.51322  0.36778  0.18091  Biso   1.000  C
  C159     1.0000 0.42483  0.45632  0.25382  Biso   1.000  C
  C160     1.0000 0.61141  0.27988  0.11198  Biso   1.000  C
  C161     1.0000 0.22458  0.27813  0.88778  Biso   1.000  C
  C162     1.0000 0.38471  0.33552  0.83858  Biso   1.000  C
  C163     1.0000 0.06749  0.22021  0.93459  Biso   1.000  C
  C164     1.0000 0.72909  0.78708  0.91360  Biso   1.000  C
  H98      1.0000 0.64528  0.77048  0.85222  Biso   1.000  H
  C165     1.0000 0.71556  0.90507  0.94832  Biso   1.000  C
  H99      1.0000 0.62023  0.96541  0.91149  Biso   1.000  H
  H100     1.0000 0.54016  0.34992  0.21352  Biso   1.000  H
  O19      1.0000 0.36434  0.51211  0.25691  Biso   1.000  O
  O20      1.0000 0.45807  0.43549  0.29622  Biso   1.000  O
  C166     1.0000 0.67439  0.23362  0.10172  Biso   1.000  C
  H101     1.0000 0.25000  0.26538  0.92241  Biso   1.000  H
  O21      1.0000 0.43760  0.36310  0.79608  Biso   1.000  O
  O22      1.0000 0.41000  0.31731  0.89148  Biso   1.000  O
  C167     1.0000 0.01028  0.18951  0.97338  Biso   1.000  C
  C168     1.0000 0.75536  0.83788  0.94902  Biso   1.000  C
  C169     1.0000 0.77442  0.71628  0.91191  Biso   1.000  C
  C170     1.0000 0.74617  0.95870  0.98219  Biso   1.000  C
  C171     1.0000 0.34157  0.54862  0.31660  Biso   1.000  C
  C172     1.0000 0.75489  0.17948  0.08621  Biso   1.000  C
  C173     1.0000 0.51229  0.33580  0.89129  Biso   1.000  C
  C174     1.0000 0.92951  0.15658  0.02038  Biso   1.000  C
  H102     1.0000 0.80068  0.82668  0.97371  Biso   1.000  H
  O23      1.0000 0.77083  0.67570  0.87208  Biso   1.000  O
  O24      1.0000 0.82009  0.70291  0.95680  Biso   1.000  O
  C175     1.0000 0.77101  0.00501  0.00778  Biso   1.000  C
  H103     1.0000 0.29671  0.58762  0.31421  Biso   1.000  H
  H104     1.0000 0.31097  0.51808  0.34992  Biso   1.000  H
  H105     1.0000 0.40227  0.56402  0.32471  Biso   1.000  H
  C176     1.0000 0.71929  0.11841  0.05641  Biso   1.000  C
  C177     1.0000 0.84283  0.21092  0.03898  Biso   1.000  C
  C178     1.0000 0.79056  0.15461  0.14460  Biso   1.000  C
  H106     1.0000 0.52749  0.32199  0.93061  Biso   1.000  H
  H107     1.0000 0.55879  0.31278  0.85779  Biso   1.000  H
  H108     1.0000 0.51708  0.38481  0.88558  Biso   1.000  H
  C179     1.0000 0.89316  0.09509  0.99091  Biso   1.000  C
  C180     1.0000 0.96371  0.13140  0.07928  Biso   1.000  C
  C181     1.0000 0.86871  0.63549  0.95900  Biso   1.000  C
  C182     1.0000 0.80550  0.06308  0.03809  Biso   1.000  C
  H109     1.0000 0.66347  0.09871  0.08579  Biso   1.000  H
  H110     1.0000 0.69671  0.13409  0.01940  Biso   1.000  H
  H111     1.0000 0.86530  0.24990  0.05768  Biso   1.000  H
  H112     1.0000 0.82096  0.22742  0.00201  Biso   1.000  H
  C183     1.0000 0.87620  0.10048  0.12581  Biso   1.000  C
  H113     1.0000 0.73586  0.13479  0.17491  Biso   1.000  H
  H114     1.0000 0.81298  0.19318  0.16371  Biso   1.000  H
  H115     1.0000 0.94761  0.06071  0.97901  Biso   1.000  H
  H116     1.0000 0.87174  0.11042  0.95338  Biso   1.000  H
  H117     1.0000 0.98738  0.16971  0.09821  Biso   1.000  H
  H118     1.0000 0.01821  0.09700  0.06822  Biso   1.000  H
  H119     1.0000 0.89779  0.63189  0.99470  Biso   1.000  H
  H120     1.0000 0.82039  0.60100  0.96242  Biso   1.000  H
  H121     1.0000 0.91998  0.62871  0.92152  Biso   1.000  H
  C184     1.0000 0.84008  0.03950  0.09680  Biso   1.000  C
  H122     1.0000 0.89842  0.08449  0.16329  Biso   1.000  H
  H123     1.0000 0.89398  0.00448  0.08612  Biso   1.000  H
  H124     1.0000 0.78534  0.01948  0.12688  Biso   1.000  H
  Ne1      1.0000 0.63187  0.25671  0.79971  Biso   1.000  Ne
  He1      1.0000 0.47165  0.23124  0.83771  Biso   1.000  He
  He2      1.0000 0.70410  0.43780  0.80846  Biso   1.000  He
  He3      1.0000 0.73260  0.17038  0.74931  Biso   1.000  He
  Ar1      1.0000 0.62645  0.24083  0.79953  Biso   1.000  Ar
  Ne2      1.0000 0.36813  0.74329  0.20029  Biso   1.000  Ne
  He4      1.0000 0.21851  0.86735  0.28924  Biso   1.000  He
  He5      1.0000 0.31535  0.61266  0.19214  Biso   1.000  He
  He6      1.0000 0.61224  0.80073  0.11888  Biso   1.000  He
  Ar2      1.0000 0.37357  0.75917  0.20046  Biso   1.000  Ar
