data_image0
_cell_length_a       14.182
_cell_length_b       23.357
_cell_length_c       28.107
_cell_angle_alpha    91.51
_cell_angle_beta     90.51
_cell_angle_gamma    104.37

_symmetry_space_group_name_H-M    "P 1"
_symmetry_int_tables_number       1

loop_
  _symmetry_equiv_pos_as_xyz
  'x, y, z'

loop_
  _atom_site_label
  _atom_site_occupancy
  _atom_site_fract_x
  _atom_site_fract_y
  _atom_site_fract_z
  _atom_site_thermal_displace_type
  _atom_site_B_iso_or_equiv
  _atom_site_type_symbol
  C1       1.0000 0.56803  0.56280  0.56109  Biso   1.000  C
  C2       1.0000 0.65844  0.57017  0.57910  Biso   1.000  C
  H1       1.0000 0.54160  0.52939  0.54069  Biso   1.000  H
  C3       1.0000 0.51232  0.60236  0.57109  Biso   1.000  C
  C4       1.0000 0.70094  0.62009  0.60850  Biso   1.000  C
  H2       1.0000 0.69402  0.54158  0.57202  Biso   1.000  H
  H3       1.0000 0.44732  0.59548  0.55941  Biso   1.000  H
  C5       1.0000 0.55455  0.65289  0.59910  Biso   1.000  C
  C6       1.0000 0.64613  0.66189  0.61790  Biso   1.000  C
  H4       1.0000 0.76461  0.62538  0.62160  Biso   1.000  H
  O1       1.0000 0.50562  0.69606  0.61081  Biso   1.000  O
  O2       1.0000 0.68144  0.71298  0.64442  Biso   1.000  O
  C7       1.0000 0.42051  0.69688  0.58369  Biso   1.000  C
  C8       1.0000 0.77672  0.72165  0.66410  Biso   1.000  C
  H5       1.0000 0.36762  0.66187  0.59092  Biso   1.000  H
  H6       1.0000 0.43446  0.69540  0.54931  Biso   1.000  H
  C9       1.0000 0.38954  0.75186  0.59590  Biso   1.000  C
  C10      1.0000 0.80522  0.78277  0.68791  Biso   1.000  C
  H7       1.0000 0.82323  0.71856  0.63861  Biso   1.000  H
  H8       1.0000 0.77808  0.69118  0.68770  Biso   1.000  H
  H9       1.0000 0.44652  0.78638  0.59590  Biso   1.000  H
  H10      1.0000 0.34183  0.75796  0.57180  Biso   1.000  H
  O3       1.0000 0.34624  0.74657  0.64210  Biso   1.000  O
  O4       1.0000 0.75324  0.78099  0.73241  Biso   1.000  O
  H11      1.0000 0.87633  0.79449  0.69421  Biso   1.000  H
  H12      1.0000 0.78807  0.81209  0.66681  Biso   1.000  H
  C11      1.0000 0.30907  0.79457  0.65670  Biso   1.000  C
  C12      1.0000 0.77617  0.83209  0.76031  Biso   1.000  C
  C13      1.0000 0.32004  0.84456  0.63149  Biso   1.000  C
  C14      1.0000 0.26357  0.78849  0.70058  Biso   1.000  C
  C15      1.0000 0.73269  0.82695  0.80470  Biso   1.000  C
  C16      1.0000 0.83720  0.88418  0.74650  Biso   1.000  C
  H13      1.0000 0.35352  0.84857  0.60220  Biso   1.000  H
  C17      1.0000 0.28128  0.89026  0.64951  Biso   1.000  C
  O5       1.0000 0.25653  0.73679  0.72369  Biso   1.000  O
  C18      1.0000 0.22424  0.83437  0.71760  Biso   1.000  C
  O6       1.0000 0.67407  0.77366  0.81470  Biso   1.000  O
  C19      1.0000 0.75461  0.87526  0.83620  Biso   1.000  C
  C20      1.0000 0.85850  0.93195  0.77900  Biso   1.000  C
  H14      1.0000 0.86419  0.88755  0.71561  Biso   1.000  H
  H15      1.0000 0.28716  0.92506  0.63181  Biso   1.000  H
  C21      1.0000 0.23519  0.88536  0.69201  Biso   1.000  C
  C22      1.0000 0.20495  0.73087  0.76718  Biso   1.000  C
  H16      1.0000 0.19017  0.83049  0.74672  Biso   1.000  H
  C23      1.0000 0.63088  0.76817  0.86019  Biso   1.000  C
  H17      1.0000 0.72619  0.87236  0.86681  Biso   1.000  H
  C24      1.0000 0.81778  0.92788  0.82339  Biso   1.000  C
  H18      1.0000 0.90176  0.96796  0.77032  Biso   1.000  H
  H19      1.0000 0.21038  0.91697  0.70422  Biso   1.000  H
  H20      1.0000 0.13642  0.73166  0.76110  Biso   1.000  H
  H21      1.0000 0.23469  0.76438  0.78929  Biso   1.000  H
  C25      1.0000 0.20803  0.67379  0.78950  Biso   1.000  C
  C26      1.0000 0.57449  0.70565  0.86671  Biso   1.000  C
  H22      1.0000 0.58696  0.79498  0.86329  Biso   1.000  H
  H23      1.0000 0.68220  0.77965  0.88522  Biso   1.000  H
  H24      1.0000 0.83280  0.96076  0.84521  Biso   1.000  H
  H25      1.0000 0.16153  0.66548  0.81609  Biso   1.000  H
  H26      1.0000 0.19003  0.64078  0.76569  Biso   1.000  H
  O7       1.0000 0.30627  0.67978  0.80709  Biso   1.000  O
  O8       1.0000 0.48160  0.69409  0.84179  Biso   1.000  O
  H27      1.0000 0.61230  0.67828  0.85429  Biso   1.000  H
  H28      1.0000 0.56380  0.69855  0.90099  Biso   1.000  H
  C27      1.0000 0.32030  0.63538  0.83659  Biso   1.000  C
  C28      1.0000 0.41586  0.64396  0.85489  Biso   1.000  C
  C29      1.0000 0.24919  0.58716  0.84870  Biso   1.000  C
  C30      1.0000 0.43683  0.60086  0.88362  Biso   1.000  C
  H29      1.0000 0.18478  0.58226  0.83670  Biso   1.000  H
  C31      1.0000 0.26965  0.54537  0.87821  Biso   1.000  C
  C32      1.0000 0.36406  0.55345  0.89490  Biso   1.000  C
  H30      1.0000 0.50137  0.60455  0.89511  Biso   1.000  H
  H31      1.0000 0.22014  0.51187  0.88671  Biso   1.000  H
  H32      1.0000 0.37864  0.52476  0.91519  Biso   1.000  H
  C33      1.0000 0.43217  0.43718  0.43889  Biso   1.000  C
  C34      1.0000 0.34183  0.42980  0.42091  Biso   1.000  C
  C35      1.0000 0.48787  0.39757  0.42889  Biso   1.000  C
  H33      1.0000 0.45860  0.47059  0.45928  Biso   1.000  H
  C36      1.0000 0.29926  0.37989  0.39151  Biso   1.000  C
  H34      1.0000 0.30618  0.45839  0.42800  Biso   1.000  H
  C37      1.0000 0.44566  0.34708  0.40091  Biso   1.000  C
  H35      1.0000 0.55288  0.40449  0.44060  Biso   1.000  H
  C38      1.0000 0.35407  0.33809  0.38211  Biso   1.000  C
  H36      1.0000 0.23559  0.37459  0.37841  Biso   1.000  H
  O9       1.0000 0.49456  0.30387  0.38920  Biso   1.000  O
  O10      1.0000 0.31876  0.28700  0.35560  Biso   1.000  O
  C39      1.0000 0.57969  0.30310  0.41629  Biso   1.000  C
  C40      1.0000 0.22346  0.27828  0.33591  Biso   1.000  C
  H37      1.0000 0.63258  0.33810  0.40910  Biso   1.000  H
  H38      1.0000 0.56581  0.30458  0.45071  Biso   1.000  H
  C41      1.0000 0.61064  0.24807  0.40411  Biso   1.000  C
  C42      1.0000 0.19498  0.21721  0.31210  Biso   1.000  C
  H39      1.0000 0.17695  0.28138  0.36140  Biso   1.000  H
  H40      1.0000 0.22219  0.30879  0.31231  Biso   1.000  H
  H41      1.0000 0.55368  0.21360  0.40411  Biso   1.000  H
  H42      1.0000 0.65835  0.24197  0.42821  Biso   1.000  H
  O11      1.0000 0.65396  0.25340  0.35791  Biso   1.000  O
  O12      1.0000 0.24696  0.21898  0.26760  Biso   1.000  O
  H43      1.0000 0.12387  0.20549  0.30580  Biso   1.000  H
  H44      1.0000 0.21213  0.18788  0.33321  Biso   1.000  H
  C43      1.0000 0.69120  0.20540  0.34332  Biso   1.000  C
  C44      1.0000 0.22403  0.16789  0.23970  Biso   1.000  C
  C45      1.0000 0.68015  0.15537  0.36852  Biso   1.000  C
  C46      1.0000 0.73663  0.21148  0.29939  Biso   1.000  C
  C47      1.0000 0.26756  0.17298  0.19531  Biso   1.000  C
  C48      1.0000 0.16307  0.11580  0.25351  Biso   1.000  C
  H45      1.0000 0.64668  0.15140  0.39781  Biso   1.000  H
  C49      1.0000 0.71897  0.10967  0.35051  Biso   1.000  C
  O13      1.0000 0.74367  0.26319  0.27629  Biso   1.000  O
  C50      1.0000 0.77596  0.16561  0.28241  Biso   1.000  C
  O14      1.0000 0.32613  0.22631  0.18531  Biso   1.000  O
  C51      1.0000 0.24566  0.12471  0.16381  Biso   1.000  C
  C52      1.0000 0.14175  0.06798  0.22101  Biso   1.000  C
  H46      1.0000 0.13606  0.11238  0.28441  Biso   1.000  H
  H47      1.0000 0.71303  0.07487  0.36820  Biso   1.000  H
  C53      1.0000 0.76507  0.11457  0.30801  Biso   1.000  C
  C54      1.0000 0.79525  0.26911  0.23279  Biso   1.000  C
  H48      1.0000 0.81003  0.16949  0.25330  Biso   1.000  H
  C55      1.0000 0.36932  0.23180  0.13978  Biso   1.000  C
  H49      1.0000 0.27401  0.12761  0.13320  Biso   1.000  H
  C56      1.0000 0.18242  0.07210  0.17659  Biso   1.000  C
  H50      1.0000 0.09842  0.03197  0.22970  Biso   1.000  H
  H51      1.0000 0.78989  0.08301  0.29580  Biso   1.000  H
  C57      1.0000 0.79217  0.32619  0.21051  Biso   1.000  C
  H52      1.0000 0.86376  0.26827  0.23892  Biso   1.000  H
  H53      1.0000 0.76558  0.23559  0.21069  Biso   1.000  H
  C58      1.0000 0.42577  0.29428  0.13330  Biso   1.000  C
  H54      1.0000 0.41324  0.20500  0.13669  Biso   1.000  H
  H55      1.0000 0.31805  0.22028  0.11479  Biso   1.000  H
  H56      1.0000 0.16740  0.03921  0.15480  Biso   1.000  H
  O15      1.0000 0.69393  0.32020  0.19289  Biso   1.000  O
  H57      1.0000 0.83867  0.33450  0.18388  Biso   1.000  H
  H58      1.0000 0.81017  0.35919  0.23429  Biso   1.000  H
  O16      1.0000 0.51867  0.30589  0.15819  Biso   1.000  O
  H59      1.0000 0.38797  0.32169  0.14569  Biso   1.000  H
  H60      1.0000 0.43645  0.30138  0.09899  Biso   1.000  H
  C59      1.0000 0.67997  0.36460  0.16342  Biso   1.000  C
  C60      1.0000 0.58433  0.35601  0.14509  Biso   1.000  C
  C61      1.0000 0.75108  0.41281  0.15132  Biso   1.000  C
  C62      1.0000 0.56337  0.39911  0.11640  Biso   1.000  C
  H61      1.0000 0.81549  0.41772  0.16331  Biso   1.000  H
  C63      1.0000 0.73055  0.45460  0.12181  Biso   1.000  C
  C64      1.0000 0.63612  0.44648  0.10511  Biso   1.000  C
  H62      1.0000 0.49881  0.39538  0.10490  Biso   1.000  H
  H63      1.0000 0.78006  0.48810  0.11330  Biso   1.000  H
  H64      1.0000 0.62156  0.47521  0.08479  Biso   1.000  H
  C65      1.0000 0.65935  0.60500  0.43921  Biso   1.000  C
  C66      1.0000 0.64713  0.55738  0.40600  Biso   1.000  C
  C67      1.0000 0.71403  0.65876  0.42640  Biso   1.000  C
  H65      1.0000 0.63041  0.59980  0.46971  Biso   1.000  H
  C68      1.0000 0.68993  0.56599  0.36229  Biso   1.000  C
  H66      1.0000 0.60927  0.51926  0.41390  Biso   1.000  H
  C69      1.0000 0.76001  0.66791  0.38279  Biso   1.000  C
  O17      1.0000 0.73060  0.70977  0.45558  Biso   1.000  O
  H67      1.0000 0.68057  0.53371  0.34001  Biso   1.000  H
  C70      1.0000 0.74578  0.62017  0.35011  Biso   1.000  C
  O18      1.0000 0.81410  0.72330  0.37482  Biso   1.000  O
  C71      1.0000 0.67929  0.70396  0.49961  Biso   1.000  C
  H68      1.0000 0.77483  0.62529  0.31961  Biso   1.000  H
  C72      1.0000 0.85903  0.73409  0.32911  Biso   1.000  C
  C73      1.0000 0.70936  0.76257  0.52620  Biso   1.000  C
  H69      1.0000 0.69592  0.67257  0.51852  Biso   1.000  H
  H70      1.0000 0.60824  0.69326  0.49339  Biso   1.000  H
  H71      1.0000 0.80838  0.72928  0.30381  Biso   1.000  H
  H72      1.0000 0.89858  0.70538  0.32239  Biso   1.000  H
  C74      1.0000 0.92154  0.79488  0.32968  Biso   1.000  C
  O19      1.0000 0.80527  0.76870  0.54521  Biso   1.000  O
  H73      1.0000 0.70884  0.79519  0.50449  Biso   1.000  H
  H74      1.0000 0.66355  0.76410  0.55230  Biso   1.000  H
  H75      1.0000 0.93671  0.80738  0.29669  Biso   1.000  H
  H76      1.0000 0.88662  0.82231  0.34481  Biso   1.000  H
  O20      1.0000 0.01058  0.79787  0.35570  Biso   1.000  O
  C75      1.0000 0.84672  0.82126  0.56970  Biso   1.000  C
  C76      1.0000 0.08169  0.84867  0.35150  Biso   1.000  C
  C77      1.0000 0.93858  0.82588  0.58949  Biso   1.000  C
  C78      1.0000 0.80068  0.86729  0.57490  Biso   1.000  C
  C79      1.0000 0.07063  0.89910  0.33089  Biso   1.000  C
  C80      1.0000 0.17294  0.84817  0.37169  Biso   1.000  C
  O21      1.0000 0.97726  0.77837  0.58120  Biso   1.000  O
  C81      1.0000 0.98592  0.87716  0.61409  Biso   1.000  C
  C82      1.0000 0.84866  0.91817  0.60070  Biso   1.000  C
  H77      1.0000 0.73795  0.86396  0.56130  Biso   1.000  H
  H78      1.0000 0.00873  0.90019  0.31840  Biso   1.000  H
  C83      1.0000 0.14803  0.94867  0.32801  Biso   1.000  C
  C84      1.0000 0.24907  0.89740  0.36891  Biso   1.000  C
  O22      1.0000 0.17992  0.79670  0.39269  Biso   1.000  O
  C85      1.0000 0.06242  0.77748  0.60878  Biso   1.000  C
  C86      1.0000 0.93944  0.92296  0.61929  Biso   1.000  C
  H79      1.0000 0.04939  0.88126  0.62712  Biso   1.000  H
  H80      1.0000 0.81797  0.94968  0.60530  Biso   1.000  H
  H81      1.0000 0.13857  0.98309  0.31331  Biso   1.000  H
  C87      1.0000 0.23785  0.94840  0.34599  Biso   1.000  C
  H82      1.0000 0.31037  0.89719  0.38268  Biso   1.000  H
  C88      1.0000 0.27460  0.79577  0.40942  Biso   1.000  C
  C89      1.0000 0.08712  0.71948  0.59871  Biso   1.000  C
  H83      1.0000 0.04984  0.78179  0.64310  Biso   1.000  H
  H84      1.0000 0.11732  0.81057  0.59999  Biso   1.000  H
  H85      1.0000 0.97170  0.95819  0.63630  Biso   1.000  H
  H86      1.0000 0.29154  0.98171  0.34310  Biso   1.000  H
  H87      1.0000 0.29631  0.82640  0.43490  Biso   1.000  H
  H88      1.0000 0.32155  0.80431  0.38311  Biso   1.000  H
  C90      1.0000 0.27059  0.73547  0.42839  Biso   1.000  C
  O23      1.0000 0.12842  0.72060  0.55201  Biso   1.000  O
  H89      1.0000 0.13442  0.71307  0.62281  Biso   1.000  H
  H90      1.0000 0.02776  0.68669  0.60010  Biso   1.000  H
  H91      1.0000 0.23762  0.70447  0.40490  Biso   1.000  H
  H92      1.0000 0.33751  0.73108  0.43401  Biso   1.000  H
  O24      1.0000 0.21851  0.72898  0.47199  Biso   1.000  O
  C91      1.0000 0.16664  0.67319  0.53920  Biso   1.000  C
  C92      1.0000 0.21474  0.67837  0.49598  Biso   1.000  C
  C93      1.0000 0.15790  0.62427  0.56579  Biso   1.000  C
  C94      1.0000 0.25476  0.63220  0.48071  Biso   1.000  C
  C95      1.0000 0.19931  0.57808  0.55002  Biso   1.000  C
  H93      1.0000 0.12401  0.62118  0.59501  Biso   1.000  H
  H94      1.0000 0.28841  0.63489  0.45149  Biso   1.000  H
  C96      1.0000 0.24559  0.58307  0.50759  Biso   1.000  C
  H95      1.0000 0.19482  0.54420  0.56860  Biso   1.000  H
  H96      1.0000 0.27229  0.55176  0.49641  Biso   1.000  H
  C97      1.0000 0.34092  0.39497  0.56080  Biso   1.000  C
  C98      1.0000 0.28622  0.34117  0.57362  Biso   1.000  C
  H97      1.0000 0.36979  0.40017  0.53030  Biso   1.000  H
  C99      1.0000 0.35314  0.44259  0.59401  Biso   1.000  C
  O25      1.0000 0.26958  0.29016  0.54439  Biso   1.000  O
  C100     1.0000 0.24019  0.33207  0.61719  Biso   1.000  C
  H98      1.0000 0.39092  0.48067  0.58611  Biso   1.000  H
  C101     1.0000 0.31034  0.43398  0.63769  Biso   1.000  C
  C102     1.0000 0.32089  0.29597  0.50040  Biso   1.000  C
  O26      1.0000 0.18610  0.27667  0.62519  Biso   1.000  O
  C103     1.0000 0.25441  0.37976  0.64990  Biso   1.000  C
  H99      1.0000 0.31963  0.46627  0.66001  Biso   1.000  H
  C104     1.0000 0.29090  0.23736  0.47381  Biso   1.000  C
  H100     1.0000 0.30427  0.32736  0.48150  Biso   1.000  H
  H101     1.0000 0.39201  0.30667  0.50659  Biso   1.000  H
  C105     1.0000 0.14124  0.26588  0.67090  Biso   1.000  C
  H102     1.0000 0.22544  0.37469  0.68040  Biso   1.000  H
  O27      1.0000 0.19500  0.23127  0.45480  Biso   1.000  O
  H103     1.0000 0.29136  0.20479  0.49549  Biso   1.000  H
  H104     1.0000 0.33665  0.23588  0.44772  Biso   1.000  H
  H105     1.0000 0.19180  0.27066  0.69621  Biso   1.000  H
  H106     1.0000 0.10162  0.29459  0.67759  Biso   1.000  H
  C106     1.0000 0.07873  0.20509  0.67029  Biso   1.000  C
  C107     1.0000 0.15346  0.17867  0.43031  Biso   1.000  C
  H107     1.0000 0.06347  0.19256  0.70329  Biso   1.000  H
  H108     1.0000 0.11358  0.17767  0.65520  Biso   1.000  H
  O28      1.0000 0.98960  0.20206  0.64431  Biso   1.000  O
  C108     1.0000 0.06169  0.17410  0.41048  Biso   1.000  C
  C109     1.0000 0.19959  0.13269  0.42511  Biso   1.000  C
  C110     1.0000 0.91849  0.15126  0.64851  Biso   1.000  C
  O29      1.0000 0.02301  0.22160  0.41881  Biso   1.000  O
  C111     1.0000 0.01426  0.12277  0.38589  Biso   1.000  C
  C112     1.0000 0.15154  0.08180  0.39931  Biso   1.000  C
  H109     1.0000 0.26223  0.13597  0.43871  Biso   1.000  H
  C113     1.0000 0.82731  0.15176  0.62829  Biso   1.000  C
  C114     1.0000 0.92957  0.10088  0.66908  Biso   1.000  C
  C115     1.0000 0.93778  0.22249  0.39119  Biso   1.000  C
  C116     1.0000 0.06074  0.07697  0.38069  Biso   1.000  C
  H110     1.0000 0.95087  0.11867  0.37290  Biso   1.000  H
  H111     1.0000 0.18223  0.05030  0.39472  Biso   1.000  H
  O30      1.0000 0.82028  0.20327  0.60729  Biso   1.000  O
  C117     1.0000 0.75120  0.10258  0.63110  Biso   1.000  C
  H112     1.0000 0.99147  0.09979  0.68161  Biso   1.000  H
  C118     1.0000 0.85216  0.05126  0.67200  Biso   1.000  C
  C119     1.0000 0.91309  0.28050  0.40130  Biso   1.000  C
  H113     1.0000 0.95037  0.21819  0.35691  Biso   1.000  H
  H114     1.0000 0.88288  0.18940  0.39998  Biso   1.000  H
  H115     1.0000 0.02857  0.04178  0.36371  Biso   1.000  H
  C120     1.0000 0.72558  0.20416  0.59060  Biso   1.000  C
  C121     1.0000 0.76242  0.05157  0.65399  Biso   1.000  C
  H116     1.0000 0.68991  0.10278  0.61729  Biso   1.000  H
  H117     1.0000 0.86170  0.01689  0.68670  Biso   1.000  H
  O31      1.0000 0.87178  0.27938  0.44800  Biso   1.000  O
  H118     1.0000 0.86578  0.28690  0.37720  Biso   1.000  H
  H119     1.0000 0.97251  0.31328  0.39991  Biso   1.000  H
  C122     1.0000 0.72959  0.26446  0.57159  Biso   1.000  C
  H120     1.0000 0.70389  0.17357  0.56511  Biso   1.000  H
  H121     1.0000 0.67872  0.19567  0.61690  Biso   1.000  H
  H122     1.0000 0.70866  0.01827  0.65691  Biso   1.000  H
  C123     1.0000 0.83356  0.32678  0.46082  Biso   1.000  C
  O32      1.0000 0.78169  0.27099  0.52798  Biso   1.000  O
  H123     1.0000 0.76256  0.29546  0.59512  Biso   1.000  H
  H124     1.0000 0.66269  0.26889  0.56600  Biso   1.000  H
  C124     1.0000 0.78551  0.32156  0.50399  Biso   1.000  C
  C125     1.0000 0.84228  0.37566  0.43419  Biso   1.000  C
  C126     1.0000 0.74551  0.36777  0.51930  Biso   1.000  C
  C127     1.0000 0.80089  0.42190  0.44999  Biso   1.000  C
  H125     1.0000 0.87619  0.37879  0.40500  Biso   1.000  H
  H126     1.0000 0.71179  0.36509  0.54849  Biso   1.000  H
  C128     1.0000 0.75459  0.41686  0.49239  Biso   1.000  C
  H127     1.0000 0.80539  0.45578  0.43141  Biso   1.000  H
  H128     1.0000 0.72789  0.44817  0.50360  Biso   1.000  H
  C129     1.0000 0.61885  0.41699  0.62491  Biso   1.000  C
  C130     1.0000 0.55142  0.36306  0.62601  Biso   1.000  C
  C131     1.0000 0.70699  0.42566  0.64801  Biso   1.000  C
  H129     1.0000 0.60391  0.44827  0.60790  Biso   1.000  H
  C132     1.0000 0.57330  0.31606  0.64940  Biso   1.000  C
  H130     1.0000 0.48985  0.35799  0.61071  Biso   1.000  H
  C133     1.0000 0.73035  0.37947  0.67200  Biso   1.000  C
  H131     1.0000 0.75225  0.46325  0.64758  Biso   1.000  H
  O33      1.0000 0.51284  0.26037  0.65061  Biso   1.000  O
  C134     1.0000 0.66294  0.32456  0.67289  Biso   1.000  C
  H132     1.0000 0.79173  0.38525  0.68759  Biso   1.000  H
  C135     1.0000 0.42428  0.25147  0.62491  Biso   1.000  C
  O34      1.0000 0.68023  0.27557  0.69400  Biso   1.000  O
  H133     1.0000 0.38607  0.27838  0.63790  Biso   1.000  H
  H134     1.0000 0.43782  0.26088  0.59109  Biso   1.000  H
  C136     1.0000 0.36720  0.18897  0.62829  Biso   1.000  C
  C137     1.0000 0.77376  0.28279  0.71621  Biso   1.000  C
  H135     1.0000 0.41078  0.16208  0.62420  Biso   1.000  H
  H136     1.0000 0.31681  0.17946  0.60270  Biso   1.000  H
  O35      1.0000 0.32203  0.18087  0.67389  Biso   1.000  O
  C138     1.0000 0.77551  0.22247  0.73440  Biso   1.000  C
  H137     1.0000 0.82613  0.29617  0.69300  Biso   1.000  H
  H138     1.0000 0.78275  0.31227  0.74280  Biso   1.000  H
  C139     1.0000 0.26142  0.12726  0.68229  Biso   1.000  C
  O36      1.0000 0.72060  0.21155  0.77662  Biso   1.000  O
  H139     1.0000 0.84360  0.22107  0.74099  Biso   1.000  H
  H140     1.0000 0.74771  0.19156  0.70980  Biso   1.000  H
  C140     1.0000 0.23671  0.08016  0.64901  Biso   1.000  C
  C141     1.0000 0.21802  0.12009  0.72671  Biso   1.000  C
  C142     1.0000 0.71962  0.16025  0.79861  Biso   1.000  C
  H141     1.0000 0.26469  0.08386  0.61829  Biso   1.000  H
  C143     1.0000 0.17099  0.02787  0.66090  Biso   1.000  C
  C144     1.0000 0.15316  0.06855  0.73860  Biso   1.000  C
  O37      1.0000 0.24585  0.16888  0.75800  Biso   1.000  O
  C145     1.0000 0.67964  0.15398  0.84361  Biso   1.000  C
  C146     1.0000 0.75821  0.11557  0.77950  Biso   1.000  C
  C147     1.0000 0.12922  0.02129  0.70429  Biso   1.000  C
  H142     1.0000 0.15504  0.99606  0.63812  Biso   1.000  H
  H143     1.0000 0.12492  0.06455  0.76928  Biso   1.000  H
  C148     1.0000 0.19210  0.16747  0.80150  Biso   1.000  C
  O38      1.0000 0.63819  0.19856  0.85881  Biso   1.000  O
  C149     1.0000 0.67643  0.10347  0.86891  Biso   1.000  C
  C150     1.0000 0.75682  0.06606  0.80442  Biso   1.000  C
  H144     1.0000 0.78589  0.11957  0.74871  Biso   1.000  H
  H145     1.0000 0.08424  0.98527  0.71169  Biso   1.000  H
  H146     1.0000 0.12131  0.15797  0.79441  Biso   1.000  H
  H147     1.0000 0.20537  0.13695  0.82250  Biso   1.000  H
  C151     1.0000 0.22422  0.22725  0.82531  Biso   1.000  C
  C152     1.0000 0.60915  0.19817  0.90839  Biso   1.000  C
  H148     1.0000 0.64698  0.09826  0.89921  Biso   1.000  H
  C153     1.0000 0.71821  0.05975  0.84831  Biso   1.000  C
  H149     1.0000 0.78323  0.03586  0.79089  Biso   1.000  H
  H150     1.0000 0.17686  0.23178  0.84991  Biso   1.000  H
  H151     1.0000 0.22684  0.25816  0.80160  Biso   1.000  H
  O39      1.0000 0.31804  0.23436  0.84681  Biso   1.000  O
  C154     1.0000 0.57573  0.25336  0.91661  Biso   1.000  C
  H152     1.0000 0.55583  0.16285  0.91430  Biso   1.000  H
  H153     1.0000 0.66482  0.19785  0.92978  Biso   1.000  H
  H154     1.0000 0.71902  0.02547  0.86560  Biso   1.000  H
  C155     1.0000 0.35653  0.28835  0.87041  Biso   1.000  C
  O40      1.0000 0.48516  0.24745  0.89159  Biso   1.000  O
  H155     1.0000 0.62491  0.28776  0.90501  Biso   1.000  H
  H156     1.0000 0.56703  0.25975  0.95110  Biso   1.000  H
  C156     1.0000 0.31024  0.33487  0.86980  Biso   1.000  C
  C157     1.0000 0.44604  0.29555  0.89319  Biso   1.000  C
  H157     1.0000 0.24894  0.33014  0.85429  Biso   1.000  H
  C158     1.0000 0.35676  0.38835  0.89280  Biso   1.000  C
  C159     1.0000 0.49024  0.34854  0.91611  Biso   1.000  C
  H158     1.0000 0.32687  0.42047  0.89251  Biso   1.000  H
  C160     1.0000 0.44306  0.39496  0.91519  Biso   1.000  C
  H159     1.0000 0.55108  0.35368  0.93220  Biso   1.000  H
  H160     1.0000 0.47283  0.43177  0.93071  Biso   1.000  H
  C161     1.0000 0.38142  0.58299  0.37510  Biso   1.000  C
  C162     1.0000 0.29319  0.57428  0.35200  Biso   1.000  C
  H161     1.0000 0.39629  0.55170  0.39212  Biso   1.000  H
  C163     1.0000 0.44876  0.63687  0.37400  Biso   1.000  C
  C164     1.0000 0.26992  0.62051  0.32801  Biso   1.000  C
  H162     1.0000 0.24800  0.53668  0.35239  Biso   1.000  H
  C165     1.0000 0.42688  0.68388  0.35061  Biso   1.000  C
  H163     1.0000 0.51042  0.64198  0.38930  Biso   1.000  H
  C166     1.0000 0.33732  0.67537  0.32708  Biso   1.000  C
  H164     1.0000 0.20846  0.61468  0.31238  Biso   1.000  H
  O41      1.0000 0.48743  0.73961  0.34940  Biso   1.000  O
  O42      1.0000 0.32004  0.72441  0.30601  Biso   1.000  O
  C167     1.0000 0.57593  0.74850  0.37510  Biso   1.000  C
  C168     1.0000 0.22651  0.71718  0.28380  Biso   1.000  C
  H165     1.0000 0.61413  0.72160  0.36211  Biso   1.000  H
  H166     1.0000 0.56245  0.73909  0.40888  Biso   1.000  H
  C169     1.0000 0.63300  0.81101  0.37169  Biso   1.000  C
  C170     1.0000 0.22469  0.77751  0.26561  Biso   1.000  C
  H167     1.0000 0.17414  0.70380  0.30701  Biso   1.000  H
  H168     1.0000 0.21752  0.68770  0.25721  Biso   1.000  H
  H169     1.0000 0.58942  0.83790  0.37581  Biso   1.000  H
  H170     1.0000 0.68344  0.82047  0.39731  Biso   1.000  H
  O43      1.0000 0.67824  0.81910  0.32609  Biso   1.000  O
  O44      1.0000 0.27958  0.78838  0.22340  Biso   1.000  O
  H171     1.0000 0.15660  0.77890  0.25899  Biso   1.000  H
  H172     1.0000 0.25247  0.80838  0.29021  Biso   1.000  H
  C171     1.0000 0.73884  0.87267  0.31769  Biso   1.000  C
  C172     1.0000 0.28063  0.83968  0.20140  Biso   1.000  C
  C173     1.0000 0.76354  0.91977  0.35100  Biso   1.000  C
  C174     1.0000 0.78218  0.87988  0.27330  Biso   1.000  C
  C175     1.0000 0.32056  0.84599  0.15641  Biso   1.000  C
  C176     1.0000 0.24199  0.88440  0.22051  Biso   1.000  C
  H173     1.0000 0.73549  0.91607  0.38169  Biso   1.000  H
  C177     1.0000 0.82921  0.97210  0.33912  Biso   1.000  C
  C178     1.0000 0.84702  0.93138  0.26141  Biso   1.000  C
  O45      1.0000 0.75442  0.83109  0.24201  Biso   1.000  O
  O46      1.0000 0.36201  0.80142  0.14121  Biso   1.000  O
  C179     1.0000 0.32377  0.89651  0.13110  Biso   1.000  C
  C180     1.0000 0.24337  0.93388  0.19560  Biso   1.000  C
  H174     1.0000 0.21431  0.88040  0.25130  Biso   1.000  H
  C181     1.0000 0.87105  0.97869  0.29569  Biso   1.000  C
  H175     1.0000 0.84514  0.00387  0.36190  Biso   1.000  H
  H176     1.0000 0.87533  0.93538  0.23069  Biso   1.000  H
  C182     1.0000 0.80811  0.83251  0.19851  Biso   1.000  C
  C183     1.0000 0.39112  0.80181  0.09159  Biso   1.000  C
  H177     1.0000 0.35322  0.90172  0.10081  Biso   1.000  H
  C184     1.0000 0.28198  0.94018  0.15171  Biso   1.000  C
  H178     1.0000 0.21704  0.96411  0.20909  Biso   1.000  H
  H179     1.0000 0.91596  0.01470  0.28829  Biso   1.000  H
  H180     1.0000 0.87889  0.84200  0.20560  Biso   1.000  H
  H181     1.0000 0.79481  0.86298  0.17751  Biso   1.000  H
  C185     1.0000 0.77597  0.77268  0.17470  Biso   1.000  C
  C186     1.0000 0.42447  0.74662  0.08340  Biso   1.000  C
  H182     1.0000 0.44436  0.83708  0.08571  Biso   1.000  H
  H183     1.0000 0.33536  0.80209  0.07019  Biso   1.000  H
  H184     1.0000 0.28118  0.97451  0.13441  Biso   1.000  H
  H185     1.0000 0.82341  0.76820  0.15011  Biso   1.000  H
  H186     1.0000 0.77343  0.74181  0.19841  Biso   1.000  H
  O47      1.0000 0.68216  0.76561  0.15320  Biso   1.000  O
  O48      1.0000 0.51510  0.75248  0.10839  Biso   1.000  O
  H187     1.0000 0.37529  0.71221  0.09500  Biso   1.000  H
  H188     1.0000 0.43315  0.74018  0.04891  Biso   1.000  H
  C187     1.0000 0.64366  0.71158  0.12960  Biso   1.000  C
  C188     1.0000 0.55414  0.70438  0.10679  Biso   1.000  C
  C189     1.0000 0.68996  0.66511  0.13021  Biso   1.000  C
  C190     1.0000 0.50994  0.65139  0.08390  Biso   1.000  C
  H189     1.0000 0.75131  0.66979  0.14569  Biso   1.000  H
  C191     1.0000 0.64350  0.61158  0.10721  Biso   1.000  C
  C192     1.0000 0.55714  0.60502  0.08479  Biso   1.000  C
  H190     1.0000 0.44919  0.64629  0.06781  Biso   1.000  H
  H191     1.0000 0.67340  0.57951  0.10750  Biso   1.000  H
  H192     1.0000 0.52737  0.56821  0.06930  Biso   1.000  H
  C193     1.0000 0.85574  0.68306  0.83389  Biso   1.000  C
  O49      1.0000 0.81878  0.69015  0.88031  Biso   1.000  O
  H193     1.0000 0.80158  0.66728  0.81100  Biso   1.000  H
  H194     1.0000 0.89815  0.65515  0.83460  Biso   1.000  H
  C194     1.0000 0.91220  0.74207  0.81979  Biso   1.000  C
  C195     1.0000 0.76179  0.64097  0.89999  Biso   1.000  C
  H195     1.0000 0.92156  0.74217  0.78491  Biso   1.000  H
  H196     1.0000 0.87627  0.77217  0.82819  Biso   1.000  H
  O50      1.0000 0.00454  0.75617  0.84378  Biso   1.000  O
  C196     1.0000 0.74233  0.58386  0.88031  Biso   1.000  C
  C197     1.0000 0.72108  0.65038  0.94441  Biso   1.000  C
  C198     1.0000 0.06460  0.81087  0.83852  Biso   1.000  C
  C199     1.0000 0.68510  0.53817  0.90490  Biso   1.000  C
  H197     1.0000 0.76823  0.57657  0.85030  Biso   1.000  H
  C200     1.0000 0.66399  0.60494  0.96719  Biso   1.000  C
  O51      1.0000 0.74538  0.70875  0.96100  Biso   1.000  O
  C201     1.0000 0.04239  0.85747  0.81381  Biso   1.000  C
  C202     1.0000 0.15830  0.82129  0.86002  Biso   1.000  C
  C203     1.0000 0.64449  0.54756  0.94751  Biso   1.000  C
  H198     1.0000 0.67347  0.49908  0.89202  Biso   1.000  H
  H199     1.0000 0.63688  0.61186  0.99692  Biso   1.000  H
  C204     1.0000 0.70217  0.72000  0.00500  Biso   1.000  C
  H200     1.0000 0.97979  0.85208  0.79940  Biso   1.000  H
  C205     1.0000 0.10888  0.91007  0.81018  Biso   1.000  C
  C206     1.0000 0.22478  0.87388  0.85621  Biso   1.000  C
  O52      1.0000 0.17209  0.77405  0.88561  Biso   1.000  O
  H201     1.0000 0.60359  0.51548  0.96331  Biso   1.000  H
  C207     1.0000 0.73905  0.78389  0.02019  Biso   1.000  C
  H202     1.0000 0.71860  0.69461  0.02981  Biso   1.000  H
  H203     1.0000 0.63045  0.71031  0.00112  Biso   1.000  H
  H204     1.0000 0.09228  0.94059  0.79281  Biso   1.000  H
  C208     1.0000 0.19972  0.92007  0.83111  Biso   1.000  C
  H205     1.0000 0.28767  0.87978  0.87030  Biso   1.000  H
  C209     1.0000 0.26866  0.77807  0.90241  Biso   1.000  C
  H206     1.0000 0.73861  0.80935  0.99271  Biso   1.000  H
  O53      1.0000 0.83708  0.79328  0.03899  Biso   1.000  O
  H207     1.0000 0.69640  0.79438  0.04490  Biso   1.000  H
  H208     1.0000 0.24500  0.95746  0.82880  Biso   1.000  H
  H209     1.0000 0.29209  0.81417  0.92270  Biso   1.000  H
  H210     1.0000 0.31319  0.77986  0.87529  Biso   1.000  H
  C210     1.0000 0.26587  0.72416  0.93049  Biso   1.000  C
  C211     1.0000 0.87349  0.84589  0.06462  Biso   1.000  C
  H211     1.0000 0.22907  0.68854  0.91248  Biso   1.000  H
  H212     1.0000 0.33302  0.72017  0.93608  Biso   1.000  H
  O54      1.0000 0.22036  0.72906  0.97492  Biso   1.000  O
  C212     1.0000 0.95940  0.85040  0.09000  Biso   1.000  C
  C213     1.0000 0.82779  0.89239  0.06601  Biso   1.000  C
  C214     1.0000 0.21777  0.68381  0.00539  Biso   1.000  C
  O55      1.0000 0.99969  0.80218  0.08519  Biso   1.000  O
  C215     1.0000 0.00022  0.90079  0.11680  Biso   1.000  C
  C216     1.0000 0.87083  0.94320  0.09331  Biso   1.000  C
  H213     1.0000 0.76877  0.88950  0.04881  Biso   1.000  H
  C217     1.0000 0.24938  0.63295  0.99350  Biso   1.000  C
  C218     1.0000 0.17897  0.68852  0.05070  Biso   1.000  C
  C219     1.0000 0.08818  0.80518  0.11160  Biso   1.000  C
  C220     1.0000 0.95410  0.94679  0.11780  Biso   1.000  C
  H214     1.0000 0.05881  0.90400  0.13438  Biso   1.000  H
  H215     1.0000 0.84100  0.97542  0.09452  Biso   1.000  H
  H216     1.0000 0.27621  0.62866  0.96321  Biso   1.000  H
  C221     1.0000 0.24119  0.58960  0.02621  Biso   1.000  C
  O56      1.0000 0.15015  0.74099  0.05938  Biso   1.000  O
  C222     1.0000 0.16978  0.64428  0.08330  Biso   1.000  C
  C223     1.0000 0.11318  0.74668  0.10609  Biso   1.000  C
  H217     1.0000 0.07942  0.81420  0.14560  Biso   1.000  H
  H218     1.0000 0.14151  0.83699  0.09929  Biso   1.000  H
  H219     1.0000 0.98210  0.98172  0.13620  Biso   1.000  H
  H220     1.0000 0.26205  0.55509  0.01792  Biso   1.000  H
  C224     1.0000 0.20343  0.59450  0.07081  Biso   1.000  C
  H221     1.0000 0.14134  0.64759  0.11338  Biso   1.000  H
  H222     1.0000 0.16271  0.74381  0.13029  Biso   1.000  H
  H223     1.0000 0.05440  0.71428  0.11089  Biso   1.000  H
  H224     1.0000 0.20047  0.56420  0.09299  Biso   1.000  H
  C225     1.0000 0.14444  0.31687  0.16609  Biso   1.000  C
  C226     1.0000 0.08807  0.25790  0.18018  Biso   1.000  C
  O57      1.0000 0.18141  0.30978  0.11971  Biso   1.000  O
  H225     1.0000 0.19862  0.33269  0.18901  Biso   1.000  H
  H226     1.0000 0.10203  0.34478  0.16541  Biso   1.000  H
  H227     1.0000 0.07864  0.25781  0.21510  Biso   1.000  H
  H228     1.0000 0.12393  0.22780  0.17178  Biso   1.000  H
  O58      1.0000 0.99565  0.24381  0.15619  Biso   1.000  O
  C227     1.0000 0.23848  0.35900  0.09999  Biso   1.000  C
  C228     1.0000 0.93567  0.18911  0.16150  Biso   1.000  C
  C229     1.0000 0.27912  0.34960  0.05560  Biso   1.000  C
  C230     1.0000 0.25787  0.41612  0.11971  Biso   1.000  C
  C231     1.0000 0.95781  0.14250  0.18620  Biso   1.000  C
  C232     1.0000 0.84190  0.17869  0.14000  Biso   1.000  C
  O59      1.0000 0.25481  0.29118  0.03901  Biso   1.000  O
  C233     1.0000 0.33626  0.39499  0.03278  Biso   1.000  C
  C234     1.0000 0.31517  0.46180  0.09511  Biso   1.000  C
  H229     1.0000 0.23197  0.42341  0.14971  Biso   1.000  H
  H230     1.0000 0.02041  0.14789  0.20061  Biso   1.000  H
  C235     1.0000 0.89132  0.08991  0.18979  Biso   1.000  C
  C236     1.0000 0.77542  0.12610  0.14380  Biso   1.000  C
  O60      1.0000 0.82809  0.22588  0.11440  Biso   1.000  O
  C237     1.0000 0.29804  0.27998  0.99502  Biso   1.000  C
  H231     1.0000 0.36332  0.38811  0.00310  Biso   1.000  H
  C238     1.0000 0.35578  0.45242  0.05250  Biso   1.000  C
  H232     1.0000 0.32673  0.50090  0.10800  Biso   1.000  H
  H233     1.0000 0.90792  0.05939  0.20720  Biso   1.000  H
  C239     1.0000 0.80055  0.07991  0.16890  Biso   1.000  C
  H234     1.0000 0.71254  0.12019  0.12971  Biso   1.000  H
  C240     1.0000 0.73154  0.22191  0.09760  Biso   1.000  C
  C241     1.0000 0.26113  0.21604  0.97982  Biso   1.000  C
  H235     1.0000 0.28167  0.30537  0.97021  Biso   1.000  H
  H236     1.0000 0.36976  0.28967  0.99890  Biso   1.000  H
  H237     1.0000 0.39668  0.48450  0.03670  Biso   1.000  H
  H238     1.0000 0.75520  0.04251  0.17121  Biso   1.000  H
  H239     1.0000 0.70811  0.18580  0.07731  Biso   1.000  H
  H240     1.0000 0.68701  0.22011  0.12469  Biso   1.000  H
  C242     1.0000 0.73433  0.27581  0.06952  Biso   1.000  C
  H241     1.0000 0.26166  0.19062  0.00730  Biso   1.000  H
  O61      1.0000 0.16310  0.20665  0.96099  Biso   1.000  O
  H242     1.0000 0.30386  0.20555  0.95511  Biso   1.000  H
  H243     1.0000 0.77111  0.31139  0.08749  Biso   1.000  H
  H244     1.0000 0.66725  0.27981  0.06389  Biso   1.000  H
  O62      1.0000 0.77984  0.27092  0.02509  Biso   1.000  O
  C243     1.0000 0.12670  0.15405  0.93539  Biso   1.000  C
  C244     1.0000 0.78243  0.31616  0.99459  Biso   1.000  C
  C245     1.0000 0.04087  0.14958  0.91002  Biso   1.000  C
  C246     1.0000 0.17239  0.10754  0.93401  Biso   1.000  C
  C247     1.0000 0.82123  0.31145  0.94931  Biso   1.000  C
  C248     1.0000 0.75081  0.36698  0.00651  Biso   1.000  C
  C249     1.0000 0.00003  0.09914  0.88321  Biso   1.000  C
  O63      1.0000 0.00049  0.19775  0.91479  Biso   1.000  O
  C250     1.0000 0.12945  0.05678  0.90670  Biso   1.000  C
  H245     1.0000 0.23143  0.11047  0.95120  Biso   1.000  H
  C251     1.0000 0.83040  0.35565  0.91671  Biso   1.000  C
  O64      1.0000 0.85005  0.25898  0.94059  Biso   1.000  O
  C252     1.0000 0.75908  0.41038  0.97380  Biso   1.000  C
  H246     1.0000 0.72406  0.37132  0.03681  Biso   1.000  H
  H247     1.0000 0.94139  0.09598  0.86559  Biso   1.000  H
  C253     1.0000 0.04609  0.05314  0.88222  Biso   1.000  C
  C254     1.0000 0.91200  0.19475  0.88841  Biso   1.000  C
  H248     1.0000 0.15920  0.02456  0.90549  Biso   1.000  H
  C255     1.0000 0.79677  0.40547  0.92920  Biso   1.000  C
  H249     1.0000 0.85886  0.35238  0.88659  Biso   1.000  H
  C256     1.0000 0.88700  0.25325  0.89389  Biso   1.000  C
  H250     1.0000 0.73813  0.44484  0.98210  Biso   1.000  H
  H251     1.0000 0.01811  0.01826  0.86381  Biso   1.000  H
  H252     1.0000 0.92085  0.18577  0.85442  Biso   1.000  H
  H253     1.0000 0.85874  0.16294  0.90069  Biso   1.000  H
  H254     1.0000 0.79973  0.43577  0.90699  Biso   1.000  H
  H255     1.0000 0.83756  0.25616  0.86969  Biso   1.000  H
  H256     1.0000 0.94585  0.28565  0.88909  Biso   1.000  H
