data_image0
_cell_length_a       11.316
_cell_length_b       24.717
_cell_length_c       14.064
_cell_angle_alpha    90
_cell_angle_beta     100.07
_cell_angle_gamma    90

_symmetry_space_group_name_H-M    "P 1"
_symmetry_int_tables_number       1

loop_
  _symmetry_equiv_pos_as_xyz
  'x, y, z'

loop_
  _atom_site_label
  _atom_site_occupancy
  _atom_site_fract_x
  _atom_site_fract_y
  _atom_site_fract_z
  _atom_site_thermal_displace_type
  _atom_site_B_iso_or_equiv
  _atom_site_type_symbol
  O1       1.0000 0.52027  0.64862  0.35884  Biso   1.000  O
  P1       1.0000 0.51821  0.70098  0.31479  Biso   1.000  P
  C1       1.0000 0.40592  0.70320  0.20307  Biso   1.000  C
  C2       1.0000 0.67103  0.72084  0.28807  Biso   1.000  C
  C3       1.0000 0.49004  0.75268  0.40679  Biso   1.000  C
  C4       1.0000 0.32934  0.66133  0.18292  Biso   1.000  C
  C5       1.0000 0.39866  0.74770  0.14118  Biso   1.000  C
  C6       1.0000 0.74945  0.73654  0.37892  Biso   1.000  C
  H1       1.0000 0.70691  0.69001  0.25839  Biso   1.000  H
  H2       1.0000 0.66254  0.75151  0.24207  Biso   1.000  H
  H3       1.0000 0.53538  0.74172  0.47063  Biso   1.000  H
  H4       1.0000 0.52315  0.78780  0.38997  Biso   1.000  H
  C7       1.0000 0.36298  0.76106  0.41618  Biso   1.000  C
  H5       1.0000 0.33545  0.63131  0.22568  Biso   1.000  H
  C8       1.0000 0.24131  0.66149  0.10031  Biso   1.000  C
  C9       1.0000 0.31288  0.74863  0.05958  Biso   1.000  C
  H6       1.0000 0.45289  0.77712  0.15570  Biso   1.000  H
  C10      1.0000 0.80611  0.69657  0.44081  Biso   1.000  C
  C11      1.0000 0.75508  0.79095  0.40968  Biso   1.000  C
  C12      1.0000 0.29254  0.71821  0.43120  Biso   1.000  C
  C13      1.0000 0.30863  0.81308  0.39300  Biso   1.000  C
  H7       1.0000 0.18741  0.63191  0.08651  Biso   1.000  H
  C14      1.0000 0.23389  0.70518  0.03892  Biso   1.000  C
  H8       1.0000 0.30711  0.77882  0.01719  Biso   1.000  H
  C15      1.0000 0.86802  0.71081  0.53050  Biso   1.000  C
  H9       1.0000 0.80201  0.65971  0.42109  Biso   1.000  H
  C16      1.0000 0.81713  0.80333  0.49880  Biso   1.000  C
  H10      1.0000 0.71606  0.81851  0.36881  Biso   1.000  H
  H11      1.0000 0.32098  0.68228  0.42709  Biso   1.000  H
  C17      1.0000 0.17894  0.72756  0.45258  Biso   1.000  C
  C18      1.0000 0.19574  0.82198  0.41640  Biso   1.000  C
  H12      1.0000 0.34837  0.84031  0.36281  Biso   1.000  H
  H13      1.0000 0.17469  0.70579  0.98202  Biso   1.000  H
  C19      1.0000 0.87567  0.76364  0.56119  Biso   1.000  C
  H14      1.0000 0.90642  0.68342  0.57217  Biso   1.000  H
  O2       1.0000 0.82957  0.85633  0.53086  Biso   1.000  O
  H15      1.0000 0.13454  0.69839  0.47273  Biso   1.000  H
  C20      1.0000 0.12983  0.77906  0.44492  Biso   1.000  C
  O3       1.0000 0.15867  0.87312  0.40809  Biso   1.000  O
  H16      1.0000 0.91939  0.77299  0.62294  Biso   1.000  H
  C21      1.0000 0.72174  0.87802  0.53360  Biso   1.000  C
  H17      1.0000 0.05184  0.78509  0.45893  Biso   1.000  H
  C22      1.0000 0.05035  0.88809  0.44723  Biso   1.000  C
  C23      1.0000 0.73258  0.93296  0.58228  Biso   1.000  C
  H18      1.0000 0.67573  0.85338  0.56913  Biso   1.000  H
  H19      1.0000 0.67675  0.88178  0.46688  Biso   1.000  H
  C24      1.0000 0.05022  0.94639  0.46370  Biso   1.000  C
  H20      1.0000 0.04957  0.86871  0.50869  Biso   1.000  H
  H21      1.0000 0.97765  0.87770  0.40102  Biso   1.000  H
  C25      1.0000 0.73919  0.94939  0.67652  Biso   1.000  C
  C26      1.0000 0.72932  0.97091  0.50912  Biso   1.000  C
  C27      1.0000 0.05748  0.96031  0.55852  Biso   1.000  C
  C28      1.0000 0.05120  0.98746  0.39379  Biso   1.000  C
  H22      1.0000 0.74025  0.92321  0.72613  Biso   1.000  H
  C29      1.0000 0.74436  0.00429  0.69992  Biso   1.000  C
  H23      1.0000 0.72496  0.95970  0.44391  Biso   1.000  H
  C30      1.0000 0.73299  0.02630  0.53332  Biso   1.000  C
  H24      1.0000 0.05861  0.93272  0.60560  Biso   1.000  H
  C31      1.0000 0.06323  0.01424  0.58741  Biso   1.000  C
  H25      1.0000 0.04973  0.97799  0.32808  Biso   1.000  H
  C32      1.0000 0.05423  0.04131  0.42073  Biso   1.000  C
  C33      1.0000 0.73864  0.04264  0.62684  Biso   1.000  C
  O4       1.0000 0.75869  0.02355  0.79351  Biso   1.000  O
  O5       1.0000 0.73817  0.07161  0.46933  Biso   1.000  O
  C34      1.0000 0.06083  0.05490  0.51822  Biso   1.000  C
  O6       1.0000 0.06645  0.03241  0.67623  Biso   1.000  O
  O7       1.0000 0.04800  0.08051  0.35184  Biso   1.000  O
  H26      1.0000 0.73892  0.08011  0.64193  Biso   1.000  H
  C35      1.0000 0.75593  0.98349  0.86580  Biso   1.000  C
  C36      1.0000 0.74679  0.05624  0.36462  Biso   1.000  C
  H27      1.0000 0.06372  0.09180  0.53722  Biso   1.000  H
  C37      1.0000 0.07022  0.98948  0.74563  Biso   1.000  C
  C38      1.0000 0.05113  0.07100  0.25521  Biso   1.000  C
  H28      1.0000 0.82720  0.95970  0.87129  Biso   1.000  H
  H29      1.0000 0.68288  0.96100  0.84969  Biso   1.000  H
  C39      1.0000 0.75582  0.01452  0.96250  Biso   1.000  C
  C40      1.0000 0.73691  0.11162  0.32078  Biso   1.000  C
  H30      1.0000 0.82436  0.03880  0.36007  Biso   1.000  H
  H31      1.0000 0.67987  0.03249  0.33523  Biso   1.000  H
  H32      1.0000 0.14143  0.96650  0.74433  Biso   1.000  H
  H33      1.0000 0.99757  0.96670  0.72931  Biso   1.000  H
  C41      1.0000 0.07594  0.01303  0.84312  Biso   1.000  C
  H34      1.0000 0.97527  0.05381  0.22373  Biso   1.000  H
  H35      1.0000 0.11836  0.04641  0.24900  Biso   1.000  H
  C42      1.0000 0.06823  0.12643  0.20582  Biso   1.000  C
  H36      1.0000 0.76218  0.98900  0.01738  Biso   1.000  H
  H37      1.0000 0.82343  0.04042  0.97513  Biso   1.000  H
  O8       1.0000 0.64170  0.04276  0.94849  Biso   1.000  O
  H38      1.0000 0.80278  0.13428  0.35552  Biso   1.000  H
  H39      1.0000 0.74865  0.10871  0.25283  Biso   1.000  H
  O9       1.0000 0.63361  0.13651  0.32244  Biso   1.000  O
  H40      1.0000 0.07201  0.98382  0.89050  Biso   1.000  H
  H41      1.0000 0.00645  0.03738  0.84341  Biso   1.000  H
  O10      1.0000 0.19719  0.04592  0.87244  Biso   1.000  O
  H42      1.0000 0.06073  0.12190  0.13512  Biso   1.000  H
  H43      1.0000 0.00736  0.15289  0.21889  Biso   1.000  H
  O11      1.0000 0.17810  0.14314  0.24416  Biso   1.000  O
  C43      1.0000 0.62992  0.07189  0.03421  Biso   1.000  C
  C44      1.0000 0.62677  0.19667  0.28691  Biso   1.000  C
  C45      1.0000 0.20122  0.08160  0.96091  Biso   1.000  C
  C46      1.0000 0.19713  0.20059  0.21419  Biso   1.000  C
  H44      1.0000 0.69950  0.09629  0.05262  Biso   1.000  H
  H45      1.0000 0.62774  0.04628  0.08801  Biso   1.000  H
  C47      1.0000 0.51725  0.10394  0.01550  Biso   1.000  C
  C48      1.0000 0.50995  0.21957  0.30360  Biso   1.000  C
  H46      1.0000 0.69421  0.21770  0.32317  Biso   1.000  H
  H47      1.0000 0.63154  0.19820  0.21737  Biso   1.000  H
  C49      1.0000 0.32206  0.11308  0.98387  Biso   1.000  C
  H48      1.0000 0.13377  0.10770  0.94942  Biso   1.000  H
  H49      1.0000 0.19149  0.05891  0.01702  Biso   1.000  H
  H50      1.0000 0.12972  0.22349  0.22647  Biso   1.000  H
  H51      1.0000 0.19988  0.20189  0.14429  Biso   1.000  H
  C50      1.0000 0.31384  0.22143  0.27139  Biso   1.000  C
  H52      1.0000 0.51970  0.12809  0.95968  Biso   1.000  H
  O12      1.0000 0.41898  0.07456  0.99759  Biso   1.000  O
  H53      1.0000 0.51354  0.12712  0.07241  Biso   1.000  H
  H54      1.0000 0.50475  0.21532  0.37278  Biso   1.000  H
  H55      1.0000 0.50870  0.25881  0.28930  Biso   1.000  H
  O13      1.0000 0.41669  0.19739  0.25225  Biso   1.000  O
  H56      1.0000 0.33004  0.13772  0.92993  Biso   1.000  H
  H57      1.0000 0.32441  0.13501  0.04309  Biso   1.000  H
  H58      1.0000 0.31886  0.26071  0.25911  Biso   1.000  H
  H59      1.0000 0.31145  0.21681  0.34093  Biso   1.000  H
  C51      1.0000 0.49014  0.71959  0.69638  Biso   1.000  C
  C52      1.0000 0.37342  0.69665  0.71313  Biso   1.000  C
  H60      1.0000 0.49535  0.71530  0.62720  Biso   1.000  H
  H61      1.0000 0.49140  0.75879  0.71068  Biso   1.000  H
  O14      1.0000 0.58341  0.69741  0.74780  Biso   1.000  O
  O15      1.0000 0.36648  0.63649  0.67753  Biso   1.000  O
  H62      1.0000 0.30588  0.71768  0.67681  Biso   1.000  H
  H63      1.0000 0.36855  0.69818  0.78261  Biso   1.000  H
  C53      1.0000 0.68626  0.72141  0.72859  Biso   1.000  C
  C54      1.0000 0.26319  0.61160  0.67919  Biso   1.000  C
  C55      1.0000 0.80296  0.70057  0.78578  Biso   1.000  C
  H64      1.0000 0.68125  0.76069  0.74094  Biso   1.000  H
  H65      1.0000 0.68866  0.71679  0.65912  Biso   1.000  H
  C56      1.0000 0.25341  0.55626  0.63543  Biso   1.000  C
  H66      1.0000 0.19742  0.63430  0.64453  Biso   1.000  H
  H67      1.0000 0.25146  0.60869  0.74722  Biso   1.000  H
  H68      1.0000 0.87037  0.72351  0.77351  Biso   1.000  H
  H69      1.0000 0.80021  0.70191  0.85569  Biso   1.000  H
  O16      1.0000 0.82200  0.64312  0.75589  Biso   1.000  O
  O17      1.0000 0.26192  0.57159  0.53064  Biso   1.000  O
  H70      1.0000 0.17573  0.53882  0.63991  Biso   1.000  H
  H71      1.0000 0.32024  0.53251  0.66482  Biso   1.000  H
  C57      1.0000 0.93188  0.62645  0.79423  Biso   1.000  C
  C58      1.0000 0.26712  0.52632  0.46673  Biso   1.000  C
  C59      1.0000 0.94898  0.57098  0.74484  Biso   1.000  C
  H72      1.0000 0.93937  0.62192  0.86493  Biso   1.000  H
  H73      1.0000 0.99282  0.65291  0.78109  Biso   1.000  H
  C60      1.0000 0.27079  0.47089  0.49092  Biso   1.000  C
  C61      1.0000 0.26147  0.54262  0.37321  Biso   1.000  C
  O18      1.0000 0.95211  0.58049  0.64821  Biso   1.000  O
  H74      1.0000 0.88174  0.54639  0.75097  Biso   1.000  H
  H75      1.0000 0.02493  0.55379  0.77632  Biso   1.000  H
  C62      1.0000 0.26751  0.43298  0.41770  Biso   1.000  C
  H76      1.0000 0.27515  0.45968  0.55614  Biso   1.000  H
  C63      1.0000 0.25575  0.50427  0.30013  Biso   1.000  C
  H77      1.0000 0.26128  0.58009  0.35812  Biso   1.000  H
  C64      1.0000 0.94588  0.54133  0.57932  Biso   1.000  C
  C65      1.0000 0.27835  0.37800  0.46637  Biso   1.000  C
  C66      1.0000 0.26092  0.44941  0.32353  Biso   1.000  C
  O19      1.0000 0.24140  0.52353  0.20647  Biso   1.000  O
  C67      1.0000 0.94889  0.48748  0.60618  Biso   1.000  C
  C68      1.0000 0.93928  0.55492  0.48183  Biso   1.000  C
  O20      1.0000 0.17054  0.35631  0.46919  Biso   1.000  O
  H78      1.0000 0.32438  0.35340  0.43091  Biso   1.000  H
  H79      1.0000 0.32334  0.38180  0.53310  Biso   1.000  H
  H80      1.0000 0.25986  0.42319  0.27392  Biso   1.000  H
  C69      1.0000 0.24425  0.48351  0.13418  Biso   1.000  C
  C70      1.0000 0.94987  0.44637  0.53628  Biso   1.000  C
  H81      1.0000 0.95036  0.47801  0.67190  Biso   1.000  H
  C71      1.0000 0.93686  0.51422  0.41257  Biso   1.000  C
  H82      1.0000 0.93639  0.59182  0.46283  Biso   1.000  H
  C72      1.0000 0.18297  0.30331  0.50118  Biso   1.000  C
  H83      1.0000 0.17289  0.45968  0.12869  Biso   1.000  H
  H84      1.0000 0.31721  0.46102  0.15028  Biso   1.000  H
  C73      1.0000 0.24427  0.51454  0.03748  Biso   1.000  C
  C74      1.0000 0.94976  0.38811  0.55281  Biso   1.000  C
  C75      1.0000 0.94263  0.46029  0.44153  Biso   1.000  C
  O21      1.0000 0.93366  0.53243  0.32382  Biso   1.000  O
  C76      1.0000 0.12443  0.26362  0.43878  Biso   1.000  C
  C77      1.0000 0.24510  0.29093  0.59029  Biso   1.000  C
  H85      1.0000 0.17668  0.54040  0.02491  Biso   1.000  H
  O22      1.0000 0.35840  0.54274  0.05149  Biso   1.000  O
  H86      1.0000 0.23791  0.48902  0.98260  Biso   1.000  H
  O23      1.0000 0.84142  0.37310  0.59188  Biso   1.000  O
  H87      1.0000 0.95052  0.36869  0.49129  Biso   1.000  H
  H88      1.0000 0.02245  0.37772  0.59903  Biso   1.000  H
  H89      1.0000 0.94157  0.43270  0.39437  Biso   1.000  H
  C78      1.0000 0.92989  0.48950  0.25442  Biso   1.000  C
  H90      1.0000 0.08071  0.27301  0.37711  Biso   1.000  H
  C79      1.0000 0.13207  0.21079  0.46948  Biso   1.000  C
  C80      1.0000 0.25066  0.23656  0.62113  Biso   1.000  C
  H91      1.0000 0.28403  0.31849  0.63117  Biso   1.000  H
  C81      1.0000 0.37017  0.57187  0.96577  Biso   1.000  C
  C82      1.0000 0.80435  0.32201  0.58358  Biso   1.000  C
  C83      1.0000 0.92426  0.51305  0.15693  Biso   1.000  C
  H92      1.0000 0.85877  0.46648  0.25572  Biso   1.000  H
  H93      1.0000 0.00253  0.46668  0.27067  Biso   1.000  H
  H94      1.0000 0.09367  0.18340  0.42781  Biso   1.000  H
  C84      1.0000 0.19398  0.19654  0.55917  Biso   1.000  C
  C85      1.0000 0.32906  0.22086  0.71191  Biso   1.000  C
  H95      1.0000 0.30061  0.59631  0.94743  Biso   1.000  H
  H96      1.0000 0.37235  0.54630  0.91197  Biso   1.000  H
  C86      1.0000 0.48284  0.60396  0.98447  Biso   1.000  C
  C87      1.0000 0.69147  0.31306  0.60698  Biso   1.000  C
  C88      1.0000 0.87028  0.27908  0.55512  Biso   1.000  C
  O24      1.0000 0.80292  0.54594  0.12761  Biso   1.000  O
  H97      1.0000 0.92809  0.48380  0.10948  Biso   1.000  H
  H98      1.0000 0.99364  0.53740  0.15656  Biso   1.000  H
  H99      1.0000 0.19809  0.15969  0.57888  Biso   1.000  H
  H100     1.0000 0.29318  0.18999  0.74159  Biso   1.000  H
  H101     1.0000 0.33756  0.25149  0.75791  Biso   1.000  H
  P2       1.0000 0.48189  0.20100  0.68526  Biso   1.000  P
  H102     1.0000 0.48039  0.62811  0.04030  Biso   1.000  H
  O25      1.0000 0.58122  0.57454  0.00246  Biso   1.000  O
  H103     1.0000 0.48656  0.62710  0.92757  Biso   1.000  H
  C89      1.0000 0.63721  0.26103  0.58379  Biso   1.000  C
  H104     1.0000 0.65173  0.34029  0.63723  Biso   1.000  H
  C90      1.0000 0.82115  0.22754  0.54740  Biso   1.000  C
  H105     1.0000 0.94827  0.28511  0.54111  Biso   1.000  H
  C91      1.0000 0.79888  0.58158  0.03907  Biso   1.000  C
  C92      1.0000 0.51005  0.25270  0.59318  Biso   1.000  C
  C93      1.0000 0.59417  0.20322  0.79690  Biso   1.000  C
  O26      1.0000 0.47991  0.14864  0.64113  Biso   1.000  O
  C94      1.0000 0.67803  0.61306  0.01610  Biso   1.000  C
  C95      1.0000 0.70755  0.21823  0.56877  Biso   1.000  C
  H106     1.0000 0.86557  0.19841  0.52732  Biso   1.000  H
  H107     1.0000 0.86634  0.60772  0.05062  Biso   1.000  H
  H108     1.0000 0.80861  0.55889  0.98303  Biso   1.000  H
  H109     1.0000 0.46473  0.24170  0.52942  Biso   1.000  H
  H110     1.0000 0.47694  0.28782  0.61001  Biso   1.000  H
  C96      1.0000 0.67077  0.16131  0.81712  Biso   1.000  C
  C97      1.0000 0.60153  0.24768  0.85879  Biso   1.000  C
  H111     1.0000 0.67015  0.63770  0.07012  Biso   1.000  H
  H112     1.0000 0.67568  0.63499  0.95689  Biso   1.000  H
  H113     1.0000 0.67920  0.18230  0.57289  Biso   1.000  H
  H114     1.0000 0.66464  0.13129  0.77430  Biso   1.000  H
  C98      1.0000 0.75878  0.16147  0.89967  Biso   1.000  C
  C99      1.0000 0.68722  0.24861  0.94040  Biso   1.000  C
  H115     1.0000 0.54720  0.27710  0.84428  Biso   1.000  H
  H116     1.0000 0.81270  0.13189  0.91353  Biso   1.000  H
  C100     1.0000 0.76622  0.20520  0.96112  Biso   1.000  C
  H117     1.0000 0.69298  0.27880  0.98279  Biso   1.000  H
  H118     1.0000 0.82542  0.20581  0.01803  Biso   1.000  H
  Ne1      1.0000 0.56681  0.43944  0.50642  Biso   1.000  Ne
  He1      1.0000 0.60048  0.58455  0.53477  Biso   1.000  He
  He2      1.0000 0.60195  0.54794  0.59760  Biso   1.000  He
  He3      1.0000 0.59937  0.48140  0.38824  Biso   1.000  He
  Ar1      1.0000 0.61183  0.47469  0.50236  Biso   1.000  Ar
  Ne2      1.0000 0.43331  0.93944  0.49359  Biso   1.000  Ne
  He4      1.0000 0.40155  0.98200  0.65048  Biso   1.000  He
  He5      1.0000 0.40418  0.04044  0.69126  Biso   1.000  He
  He6      1.0000 0.39900  0.06911  0.43896  Biso   1.000  He
  Ar2      1.0000 0.38949  0.99554  0.52852  Biso   1.000  Ar
