data_image0
_cell_length_a       17.206
_cell_length_b       23.601
_cell_length_c       18.483
_cell_angle_alpha    90
_cell_angle_beta     90.61
_cell_angle_gamma    90

_symmetry_space_group_name_H-M    "P 1"
_symmetry_int_tables_number       1

loop_
  _symmetry_equiv_pos_as_xyz
  'x, y, z'

loop_
  _atom_site_label
  _atom_site_occupancy
  _atom_site_fract_x
  _atom_site_fract_y
  _atom_site_fract_z
  _atom_site_thermal_displace_type
  _atom_site_B_iso_or_equiv
  _atom_site_type_symbol
  C1       1.0000 0.53576  0.44100  0.54047  Biso   1.000  C
  C2       1.0000 0.49726  0.40808  0.48680  Biso   1.000  C
  H1       1.0000 0.50944  0.47138  0.56087  Biso   1.000  H
  C3       1.0000 0.61048  0.42973  0.56336  Biso   1.000  C
  C4       1.0000 0.53925  0.36477  0.45401  Biso   1.000  C
  H2       1.0000 0.44573  0.41511  0.47398  Biso   1.000  H
  C5       1.0000 0.64555  0.38058  0.53528  Biso   1.000  C
  C6       1.0000 0.64599  0.46434  0.62450  Biso   1.000  C
  O1       1.0000 0.49983  0.33376  0.40228  Biso   1.000  O
  C7       1.0000 0.60670  0.34893  0.48225  Biso   1.000  C
  H3       1.0000 0.69433  0.36931  0.55200  Biso   1.000  H
  H4       1.0000 0.69034  0.48422  0.60486  Biso   1.000  H
  H5       1.0000 0.60813  0.49299  0.63759  Biso   1.000  H
  P1       1.0000 0.67683  0.43197  0.70393  Biso   1.000  P
  C8       1.0000 0.49559  0.35804  0.33638  Biso   1.000  C
  H6       1.0000 0.62918  0.31541  0.46618  Biso   1.000  H
  C9       1.0000 0.70317  0.49087  0.76107  Biso   1.000  C
  C10      1.0000 0.59330  0.40087  0.74375  Biso   1.000  C
  O2       1.0000 0.74103  0.39020  0.69684  Biso   1.000  O
  C11      1.0000 0.43489  0.33007  0.28855  Biso   1.000  C
  H7       1.0000 0.48287  0.39778  0.34179  Biso   1.000  H
  H8       1.0000 0.54578  0.35541  0.31339  Biso   1.000  H
  C12      1.0000 0.64994  0.52638  0.79229  Biso   1.000  C
  C13      1.0000 0.78125  0.50002  0.77362  Biso   1.000  C
  H9       1.0000 0.55282  0.42939  0.74630  Biso   1.000  H
  H10      1.0000 0.60642  0.38981  0.79299  Biso   1.000  H
  C14      1.0000 0.56065  0.34922  0.70409  Biso   1.000  C
  C15      1.0000 0.45500  0.30317  0.22725  Biso   1.000  C
  C16      1.0000 0.35850  0.33232  0.31138  Biso   1.000  C
  H11      1.0000 0.59702  0.52138  0.78401  Biso   1.000  H
  C17      1.0000 0.67660  0.56998  0.83649  Biso   1.000  C
  C18      1.0000 0.80562  0.54430  0.81566  Biso   1.000  C
  H12      1.0000 0.81763  0.47578  0.75328  Biso   1.000  H
  C19      1.0000 0.49114  0.35219  0.66881  Biso   1.000  C
  C20      1.0000 0.60090  0.29876  0.70187  Biso   1.000  C
  C21      1.0000 0.39971  0.27791  0.18505  Biso   1.000  C
  H13      1.0000 0.50686  0.30181  0.21372  Biso   1.000  H
  C22      1.0000 0.30236  0.30647  0.26610  Biso   1.000  C
  H14      1.0000 0.34498  0.34999  0.35440  Biso   1.000  H
  H15      1.0000 0.64153  0.59349  0.85976  Biso   1.000  H
  C23      1.0000 0.75540  0.57832  0.84574  Biso   1.000  C
  H16      1.0000 0.85853  0.55040  0.82296  Biso   1.000  H
  H17      1.0000 0.46314  0.38592  0.67000  Biso   1.000  H
  C24      1.0000 0.46102  0.30668  0.63132  Biso   1.000  C
  C25      1.0000 0.56928  0.25317  0.66595  Biso   1.000  C
  H18      1.0000 0.64917  0.29558  0.72460  Biso   1.000  H
  C26      1.0000 0.32211  0.27897  0.20398  Biso   1.000  C
  O3       1.0000 0.42636  0.25079  0.12693  Biso   1.000  O
  O4       1.0000 0.22504  0.30528  0.28011  Biso   1.000  O
  H19      1.0000 0.77304  0.60849  0.87377  Biso   1.000  H
  H20      1.0000 0.41395  0.31011  0.60648  Biso   1.000  H
  C27      1.0000 0.50041  0.25647  0.63067  Biso   1.000  C
  H21      1.0000 0.59613  0.21902  0.66600  Biso   1.000  H
  H22      1.0000 0.28446  0.26139  0.17520  Biso   1.000  H
  C28      1.0000 0.38179  0.24465  0.07142  Biso   1.000  C
  C29      1.0000 0.19986  0.33401  0.33957  Biso   1.000  C
  O5       1.0000 0.46406  0.21427  0.59263  Biso   1.000  O
  C30      1.0000 0.36751  0.18787  0.04788  Biso   1.000  C
  H23      1.0000 0.40440  0.26541  0.03138  Biso   1.000  H
  H24      1.0000 0.33222  0.26219  0.08181  Biso   1.000  H
  C31      1.0000 0.11509  0.33092  0.34688  Biso   1.000  C
  H25      1.0000 0.22436  0.31821  0.38259  Biso   1.000  H
  H26      1.0000 0.21540  0.37342  0.33590  Biso   1.000  H
  C32      1.0000 0.49969  0.16059  0.59328  Biso   1.000  C
  H27      1.0000 0.32171  0.17512  0.07331  Biso   1.000  H
  O6       1.0000 0.41790  0.14749  0.05319  Biso   1.000  O
  H28      1.0000 0.35281  0.19020  0.99708  Biso   1.000  H
  H29      1.0000 0.09040  0.34308  0.30208  Biso   1.000  H
  H30      1.0000 0.09879  0.35630  0.38508  Biso   1.000  H
  O7       1.0000 0.09099  0.27482  0.36333  Biso   1.000  O
  C33      1.0000 0.45024  0.12165  0.54783  Biso   1.000  C
  H31      1.0000 0.55166  0.16300  0.57359  Biso   1.000  H
  H32      1.0000 0.50363  0.14639  0.64241  Biso   1.000  H
  C34      1.0000 0.40693  0.10012  0.02332  Biso   1.000  C
  C35      1.0000 0.00926  0.27071  0.36749  Biso   1.000  C
  C36      1.0000 0.48289  0.09152  0.49107  Biso   1.000  C
  C37      1.0000 0.37237  0.11470  0.56369  Biso   1.000  C
  C38      1.0000 0.42329  0.04174  0.04632  Biso   1.000  C
  H33      1.0000 0.35181  0.09991  0.01169  Biso   1.000  H
  H34      1.0000 0.43284  0.10351  0.97717  Biso   1.000  H
  C39      1.0000 0.98340  0.21109  0.37761  Biso   1.000  C
  H35      1.0000 0.99118  0.29350  0.40759  Biso   1.000  H
  H36      1.0000 0.98609  0.28571  0.32340  Biso   1.000  H
  C40      1.0000 0.43645  0.05500  0.45006  Biso   1.000  C
  H37      1.0000 0.53525  0.09580  0.48058  Biso   1.000  H
  C41      1.0000 0.32649  0.07801  0.52170  Biso   1.000  C
  H38      1.0000 0.35055  0.13440  0.60210  Biso   1.000  H
  H39      1.0000 0.37431  0.02212  0.05302  Biso   1.000  H
  H40      1.0000 0.45081  0.02250  0.00790  Biso   1.000  H
  O8       1.0000 0.46313  0.03775  0.10437  Biso   1.000  O
  O9       1.0000 0.01425  0.18855  0.43756  Biso   1.000  O
  H41      1.0000 0.99856  0.18868  0.33611  Biso   1.000  H
  H42      1.0000 0.92705  0.20999  0.38059  Biso   1.000  H
  O10      1.0000 0.46248  0.02407  0.39363  Biso   1.000  O
  C42      1.0000 0.36061  0.04796  0.46554  Biso   1.000  C
  O11      1.0000 0.25068  0.07555  0.54004  Biso   1.000  O
  C43      1.0000 0.45499  0.98801  0.13510  Biso   1.000  C
  C44      1.0000 0.98132  0.13419  0.44979  Biso   1.000  C
  C45      1.0000 0.54063  0.03093  0.37161  Biso   1.000  C
  H43      1.0000 0.33077  0.02271  0.43837  Biso   1.000  H
  C46      1.0000 0.20231  0.03491  0.50309  Biso   1.000  C
  C47      1.0000 0.51616  0.97534  0.18867  Biso   1.000  C
  H44      1.0000 0.40487  0.98661  0.15859  Biso   1.000  H
  H45      1.0000 0.45538  0.95898  0.09788  Biso   1.000  H
  C48      1.0000 0.01418  0.10330  0.50801  Biso   1.000  C
  H46      1.0000 0.98645  0.11199  0.40602  Biso   1.000  H
  H47      1.0000 0.92614  0.13889  0.45850  Biso   1.000  H
  C49      1.0000 0.55407  0.99458  0.30635  Biso   1.000  C
  H48      1.0000 0.55050  0.07029  0.35997  Biso   1.000  H
  H49      1.0000 0.57566  0.01979  0.41051  Biso   1.000  H
  C50      1.0000 0.11924  0.04593  0.52197  Biso   1.000  C
  H50      1.0000 0.20904  0.03822  0.45131  Biso   1.000  H
  H51      1.0000 0.21683  0.99678  0.51759  Biso   1.000  H
  O12      1.0000 0.50912  0.01233  0.24835  Biso   1.000  O
  H52      1.0000 0.56689  0.98000  0.16697  Biso   1.000  H
  H53      1.0000 0.51147  0.93640  0.20479  Biso   1.000  H
  H54      1.0000 0.01073  0.12508  0.55227  Biso   1.000  H
  O13      1.0000 0.09136  0.09195  0.49264  Biso   1.000  O
  H55      1.0000 0.98595  0.06809  0.51461  Biso   1.000  H
  H56      1.0000 0.54159  0.95560  0.31772  Biso   1.000  H
  H57      1.0000 0.60855  0.99627  0.29348  Biso   1.000  H
  H58      1.0000 0.11513  0.04881  0.57407  Biso   1.000  H
  H59      1.0000 0.08797  0.01390  0.50628  Biso   1.000  H
  C51      1.0000 0.46416  0.55900  0.45948  Biso   1.000  C
  C52      1.0000 0.38945  0.57023  0.43664  Biso   1.000  C
  C53      1.0000 0.50267  0.59192  0.51320  Biso   1.000  C
  H60      1.0000 0.49049  0.52858  0.43908  Biso   1.000  H
  C54      1.0000 0.35394  0.53566  0.37550  Biso   1.000  C
  C55      1.0000 0.35438  0.61942  0.46467  Biso   1.000  C
  C56      1.0000 0.46062  0.63523  0.54594  Biso   1.000  C
  H61      1.0000 0.55414  0.58489  0.52597  Biso   1.000  H
  P2       1.0000 0.32310  0.56803  0.29607  Biso   1.000  P
  H62      1.0000 0.30959  0.51578  0.39509  Biso   1.000  H
  H63      1.0000 0.39174  0.50701  0.36241  Biso   1.000  H
  H64      1.0000 0.30554  0.63069  0.44800  Biso   1.000  H
  C57      1.0000 0.39323  0.65103  0.51769  Biso   1.000  C
  O14      1.0000 0.50004  0.66624  0.59772  Biso   1.000  O
  C58      1.0000 0.29676  0.50913  0.23888  Biso   1.000  C
  C59      1.0000 0.40663  0.59913  0.25620  Biso   1.000  C
  O15      1.0000 0.25884  0.60980  0.30316  Biso   1.000  O
  H65      1.0000 0.37074  0.68459  0.53376  Biso   1.000  H
  C60      1.0000 0.50433  0.64196  0.66357  Biso   1.000  C
  C61      1.0000 0.34999  0.47362  0.20772  Biso   1.000  C
  C62      1.0000 0.21868  0.49998  0.22638  Biso   1.000  C
  H66      1.0000 0.44711  0.57061  0.25371  Biso   1.000  H
  H67      1.0000 0.39351  0.61019  0.20701  Biso   1.000  H
  C63      1.0000 0.43928  0.65074  0.29586  Biso   1.000  C
  C64      1.0000 0.56503  0.66993  0.71140  Biso   1.000  C
  H68      1.0000 0.51706  0.60218  0.65821  Biso   1.000  H
  H69      1.0000 0.45415  0.64459  0.68656  Biso   1.000  H
  C65      1.0000 0.32327  0.43002  0.16351  Biso   1.000  C
  H70      1.0000 0.40291  0.47858  0.21599  Biso   1.000  H
  C66      1.0000 0.19431  0.45566  0.18429  Biso   1.000  C
  H71      1.0000 0.18229  0.52422  0.24667  Biso   1.000  H
  C67      1.0000 0.50879  0.64777  0.33119  Biso   1.000  C
  C68      1.0000 0.39903  0.70124  0.29813  Biso   1.000  C
  C69      1.0000 0.54493  0.69683  0.77270  Biso   1.000  C
  C70      1.0000 0.64143  0.66764  0.68862  Biso   1.000  C
  C71      1.0000 0.24447  0.42168  0.15420  Biso   1.000  C
  H72      1.0000 0.35840  0.40651  0.14019  Biso   1.000  H
  H73      1.0000 0.14139  0.44960  0.17698  Biso   1.000  H
  H74      1.0000 0.53679  0.61408  0.33000  Biso   1.000  H
  C72      1.0000 0.53891  0.69328  0.36868  Biso   1.000  C
  C73      1.0000 0.43065  0.74679  0.33400  Biso   1.000  C
  H75      1.0000 0.35076  0.70438  0.27540  Biso   1.000  H
  C74      1.0000 0.60022  0.72209  0.81496  Biso   1.000  C
  H76      1.0000 0.49301  0.69819  0.78628  Biso   1.000  H
  H77      1.0000 0.65495  0.65001  0.64560  Biso   1.000  H
  C75      1.0000 0.69751  0.69349  0.73385  Biso   1.000  C
  H78      1.0000 0.22689  0.39151  0.12618  Biso   1.000  H
  H79      1.0000 0.58598  0.68989  0.39346  Biso   1.000  H
  C76      1.0000 0.49946  0.74349  0.36933  Biso   1.000  C
  H80      1.0000 0.40380  0.78098  0.33400  Biso   1.000  H
  C77      1.0000 0.67782  0.72103  0.79602  Biso   1.000  C
  O16      1.0000 0.57357  0.74916  0.87307  Biso   1.000  O
  O17      1.0000 0.77483  0.69467  0.71984  Biso   1.000  O
  O18      1.0000 0.53587  0.78573  0.40737  Biso   1.000  O
  H81      1.0000 0.71541  0.73861  0.82480  Biso   1.000  H
  C78      1.0000 0.61814  0.75535  0.92858  Biso   1.000  C
  C79      1.0000 0.80007  0.66599  0.66037  Biso   1.000  C
  C80      1.0000 0.50018  0.83941  0.40667  Biso   1.000  C
  C81      1.0000 0.63242  0.81213  0.95206  Biso   1.000  C
  H82      1.0000 0.59552  0.73459  0.96857  Biso   1.000  H
  H83      1.0000 0.66771  0.73781  0.91819  Biso   1.000  H
  C82      1.0000 0.88484  0.66904  0.65307  Biso   1.000  C
  H84      1.0000 0.77557  0.68179  0.61736  Biso   1.000  H
  H85      1.0000 0.78453  0.62658  0.66411  Biso   1.000  H
  H86      1.0000 0.44827  0.83700  0.42642  Biso   1.000  H
  H87      1.0000 0.49624  0.85361  0.35759  Biso   1.000  H
  C83      1.0000 0.54969  0.87835  0.45212  Biso   1.000  C
  H88      1.0000 0.67821  0.82488  0.92669  Biso   1.000  H
  O19      1.0000 0.58202  0.85251  0.94682  Biso   1.000  O
  H89      1.0000 0.64712  0.80980  0.00292  Biso   1.000  H
  H90      1.0000 0.90953  0.65688  0.69787  Biso   1.000  H
  H91      1.0000 0.90114  0.64370  0.61487  Biso   1.000  H
  O20      1.0000 0.90894  0.72518  0.63662  Biso   1.000  O
  C84      1.0000 0.62756  0.88526  0.43626  Biso   1.000  C
  C85      1.0000 0.51704  0.90844  0.50887  Biso   1.000  C
  C86      1.0000 0.59300  0.89988  0.97668  Biso   1.000  C
  C87      1.0000 0.99067  0.72929  0.63251  Biso   1.000  C
  H92      1.0000 0.64938  0.86560  0.39790  Biso   1.000  H
  C88      1.0000 0.67343  0.92195  0.47830  Biso   1.000  C
  C89      1.0000 0.56348  0.94500  0.54994  Biso   1.000  C
  H93      1.0000 0.46468  0.90420  0.51937  Biso   1.000  H
  C90      1.0000 0.57664  0.95826  0.95369  Biso   1.000  C
  H94      1.0000 0.64811  0.90009  0.98826  Biso   1.000  H
  H95      1.0000 0.56708  0.89649  0.02278  Biso   1.000  H
  C91      1.0000 0.01653  0.78891  0.62239  Biso   1.000  C
  H96      1.0000 0.00875  0.70650  0.59236  Biso   1.000  H
  H97      1.0000 0.01384  0.71429  0.67661  Biso   1.000  H
  C92      1.0000 0.63932  0.95204  0.53447  Biso   1.000  C
  O21      1.0000 0.74924  0.92445  0.45991  Biso   1.000  O
  O22      1.0000 0.53745  0.97589  0.60632  Biso   1.000  O
  O23      1.0000 0.53680  0.96225  0.89558  Biso   1.000  O
  H98      1.0000 0.62562  0.97788  0.94698  Biso   1.000  H
  H99      1.0000 0.54912  0.97750  0.99210  Biso   1.000  H
  O24      1.0000 0.98568  0.81145  0.56244  Biso   1.000  O
  H100     1.0000 0.00132  0.81128  0.66389  Biso   1.000  H
  H101     1.0000 0.07282  0.79001  0.61936  Biso   1.000  H
  H102     1.0000 0.66916  0.97729  0.56157  Biso   1.000  H
  C93      1.0000 0.79762  0.96509  0.49686  Biso   1.000  C
  C94      1.0000 0.45930  0.96907  0.62834  Biso   1.000  C
  C95      1.0000 0.54494  0.01199  0.86490  Biso   1.000  C
  C96      1.0000 0.01861  0.86581  0.55021  Biso   1.000  C
  H103     1.0000 0.79089  0.96178  0.54870  Biso   1.000  H
  C97      1.0000 0.88068  0.95407  0.47798  Biso   1.000  C
  H104     1.0000 0.78304  0.00322  0.48236  Biso   1.000  H
  H105     1.0000 0.44943  0.92971  0.63998  Biso   1.000  H
  H106     1.0000 0.42427  0.98021  0.58949  Biso   1.000  H
  C98      1.0000 0.44586  0.00538  0.69365  Biso   1.000  C
  C99      1.0000 0.48371  0.02466  0.81128  Biso   1.000  C
  H107     1.0000 0.59500  0.01339  0.84136  Biso   1.000  H
  H108     1.0000 0.54455  0.04102  0.90207  Biso   1.000  H
  C100     1.0000 0.98575  0.89670  0.49199  Biso   1.000  C
  H109     1.0000 0.01342  0.88801  0.59398  Biso   1.000  H
  H110     1.0000 0.07373  0.86111  0.54150  Biso   1.000  H
  H111     1.0000 0.88480  0.95119  0.42587  Biso   1.000  H
  H112     1.0000 0.91196  0.98610  0.49367  Biso   1.000  H
  O25      1.0000 0.90857  0.90805  0.50731  Biso   1.000  O
  O26      1.0000 0.49081  0.98763  0.75160  Biso   1.000  O
  H113     1.0000 0.45834  0.04440  0.68229  Biso   1.000  H
  H114     1.0000 0.39132  0.00369  0.70647  Biso   1.000  H
  H115     1.0000 0.43304  0.02000  0.83297  Biso   1.000  H
  H116     1.0000 0.48840  0.06360  0.79521  Biso   1.000  H
  H117     1.0000 0.98920  0.87488  0.44768  Biso   1.000  H
  H118     1.0000 0.01398  0.93191  0.48539  Biso   1.000  H
  C101     1.0000 0.92325  0.45829  0.54626  Biso   1.000  C
  C102     1.0000 0.90683  0.39990  0.52327  Biso   1.000  C
  H119     1.0000 0.87428  0.47790  0.55297  Biso   1.000  H
  H120     1.0000 0.95077  0.47748  0.50790  Biso   1.000  H
  O27      1.0000 0.96309  0.46223  0.60437  Biso   1.000  O
  O28      1.0000 0.91787  0.35249  0.55319  Biso   1.000  O
  H121     1.0000 0.93287  0.39651  0.47717  Biso   1.000  H
  H122     1.0000 0.85178  0.40011  0.51169  Biso   1.000  H
  C103     1.0000 0.95496  0.51197  0.63511  Biso   1.000  C
  C104     1.0000 0.86748  0.31215  0.54789  Biso   1.000  C
  H123     1.0000 0.90484  0.51341  0.65859  Biso   1.000  H
  H124     1.0000 0.95534  0.54099  0.59788  Biso   1.000  H
  C105     1.0000 0.01613  0.52464  0.68867  Biso   1.000  C
  H125     1.0000 0.82168  0.32490  0.57326  Biso   1.000  H
  H126     1.0000 0.85289  0.30982  0.49708  Biso   1.000  H
  C106     1.0000 0.88175  0.25533  0.57137  Biso   1.000  C
  H127     1.0000 0.06685  0.51998  0.66697  Biso   1.000  H
  H128     1.0000 0.01143  0.56358  0.70480  Biso   1.000  H
  O29      1.0000 0.00908  0.48765  0.74835  Biso   1.000  O
  H129     1.0000 0.90437  0.23461  0.53138  Biso   1.000  H
  H130     1.0000 0.83218  0.23779  0.58181  Biso   1.000  H
  O30      1.0000 0.92633  0.24918  0.62688  Biso   1.000  O
  C107     1.0000 0.05403  0.50540  0.80635  Biso   1.000  C
  C108     1.0000 0.89967  0.22207  0.68499  Biso   1.000  C
  C109     1.0000 0.04054  0.46905  0.87161  Biso   1.000  C
  H131     1.0000 0.04155  0.54438  0.81766  Biso   1.000  H
  H132     1.0000 0.10852  0.50371  0.79348  Biso   1.000  H
  C110     1.0000 0.95496  0.19686  0.72725  Biso   1.000  C
  C111     1.0000 0.82207  0.22101  0.70393  Biso   1.000  C
  O31      1.0000 0.96245  0.47591  0.89363  Biso   1.000  O
  H133     1.0000 0.05040  0.42969  0.85997  Biso   1.000  H
  H134     1.0000 0.07562  0.48019  0.91046  Biso   1.000  H
  C112     1.0000 0.93486  0.16991  0.78855  Biso   1.000  C
  H135     1.0000 0.00683  0.19821  0.71367  Biso   1.000  H
  C113     1.0000 0.80232  0.19351  0.76610  Biso   1.000  C
  H136     1.0000 0.78443  0.23859  0.67520  Biso   1.000  H
  C114     1.0000 0.93641  0.44498  0.95006  Biso   1.000  C
  C115     1.0000 0.85846  0.16766  0.81133  Biso   1.000  C
  C116     1.0000 0.99556  0.14199  0.83638  Biso   1.000  C
  O32      1.0000 0.72501  0.19470  0.78011  Biso   1.000  O
  C117     1.0000 0.86057  0.45206  0.96548  Biso   1.000  C
  C118     1.0000 0.98286  0.40846  0.99107  Biso   1.000  C
  H137     1.0000 0.84495  0.14999  0.85440  Biso   1.000  H
  H138     1.0000 0.98283  0.10220  0.84179  Biso   1.000  H
  O33      1.0000 0.99980  0.16622  0.90229  Biso   1.000  O
  H139     1.0000 0.04574  0.14461  0.81339  Biso   1.000  H
  C119     1.0000 0.69983  0.16597  0.83958  Biso   1.000  C
  H140     1.0000 0.83074  0.47731  0.93837  Biso   1.000  H
  C120     1.0000 0.82652  0.42197  0.02170  Biso   1.000  C
  C121     1.0000 0.95026  0.37837  0.04783  Biso   1.000  C
  H141     1.0000 0.03522  0.40418  0.98058  Biso   1.000  H
  C122     1.0000 0.03921  0.13521  0.95401  Biso   1.000  C
  C123     1.0000 0.61506  0.16906  0.84688  Biso   1.000  C
  H142     1.0000 0.72432  0.18181  0.88259  Biso   1.000  H
  H143     1.0000 0.71530  0.12660  0.83590  Biso   1.000  H
  C124     1.0000 0.87239  0.38528  0.06374  Biso   1.000  C
  O34      1.0000 0.75071  0.42447  0.04010  Biso   1.000  O
  C125     1.0000 0.99978  0.33943  0.09328  Biso   1.000  C
  C126     1.0000 0.99722  0.09190  0.98680  Biso   1.000  C
  C127     1.0000 0.10667  0.15105  0.98226  Biso   1.000  C
  H144     1.0000 0.59031  0.15690  0.80208  Biso   1.000  H
  H145     1.0000 0.59870  0.14368  0.88508  Biso   1.000  H
  O35      1.0000 0.59095  0.22516  0.86333  Biso   1.000  O
  H146     1.0000 0.85057  0.36558  0.10210  Biso   1.000  H
  C128     1.0000 0.70234  0.46507  0.00309  Biso   1.000  C
  O36      1.0000 0.96408  0.28575  0.09263  Biso   1.000  O
  H147     1.0000 0.05168  0.33698  0.07359  Biso   1.000  H
  H148     1.0000 0.00365  0.35359  0.14241  Biso   1.000  H
  H149     1.0000 0.94570  0.08491  0.97398  Biso   1.000  H
  C129     1.0000 0.03579  0.05902  0.04053  Biso   1.000  C
  H150     1.0000 0.12909  0.18461  0.96619  Biso   1.000  H
  C130     1.0000 0.14557  0.11940  0.03533  Biso   1.000  C
  C131     1.0000 0.50922  0.22931  0.86749  Biso   1.000  C
  C132     1.0000 0.61927  0.45409  0.02202  Biso   1.000  C
  H151     1.0000 0.70901  0.46180  0.95125  Biso   1.000  H
  H152     1.0000 0.71691  0.50320  0.01759  Biso   1.000  H
  C133     1.0000 0.00049  0.24351  0.13067  Biso   1.000  C
  H153     1.0000 0.00946  0.02860  0.06093  Biso   1.000  H
  C134     1.0000 0.11050  0.07025  0.06336  Biso   1.000  C
  H154     1.0000 0.19441  0.13071  0.05200  Biso   1.000  H
  C135     1.0000 0.48330  0.28889  0.87756  Biso   1.000  C
  H155     1.0000 0.49114  0.20652  0.90759  Biso   1.000  H
  H156     1.0000 0.48605  0.21431  0.82340  Biso   1.000  H
  O37      1.0000 0.59127  0.40803  0.99264  Biso   1.000  O
  H157     1.0000 0.61521  0.45121  0.07407  Biso   1.000  H
  H158     1.0000 0.58799  0.48608  0.00628  Biso   1.000  H
  C136     1.0000 0.96104  0.19330  0.13132  Biso   1.000  C
  C137     1.0000 0.06930  0.24681  0.16600  Biso   1.000  C
  C138     1.0000 0.14601  0.03563  0.12450  Biso   1.000  C
  H159     1.0000 0.49852  0.31130  0.83606  Biso   1.000  H
  H160     1.0000 0.42702  0.28999  0.88059  Biso   1.000  H
  O38      1.0000 0.51421  0.31147  0.93751  Biso   1.000  O
  C139     1.0000 0.51420  0.39668  0.00801  Biso   1.000  C
  C140     1.0000 0.99117  0.14779  0.16882  Biso   1.000  C
  H161     1.0000 0.91397  0.18991  0.10648  Biso   1.000  H
  C141     1.0000 0.10092  0.20122  0.20188  Biso   1.000  C
  H162     1.0000 0.09615  0.28101  0.16600  Biso   1.000  H
  H163     1.0000 0.19037  0.01580  0.10492  Biso   1.000  H
  H164     1.0000 0.10815  0.00699  0.13760  Biso   1.000  H
  P3       1.0000 0.17685  0.06805  0.20393  Biso   1.000  P
  C142     1.0000 0.48122  0.36579  0.94979  Biso   1.000  C
  H165     1.0000 0.51081  0.37490  0.05232  Biso   1.000  H
  H166     1.0000 0.48597  0.43189  0.01461  Biso   1.000  H
  C143     1.0000 0.06067  0.15076  0.20415  Biso   1.000  C
  H167     1.0000 0.96317  0.11411  0.17001  Biso   1.000  H
  H168     1.0000 0.14919  0.20440  0.22460  Biso   1.000  H
  C144     1.0000 0.20319  0.00915  0.26112  Biso   1.000  C
  C145     1.0000 0.09333  0.09915  0.24381  Biso   1.000  C
  O39      1.0000 0.24111  0.10983  0.19684  Biso   1.000  O
  H169     1.0000 0.48642  0.38799  0.90596  Biso   1.000  H
  H170     1.0000 0.42611  0.36109  0.95850  Biso   1.000  H
  C146     1.0000 0.14996  0.97360  0.29229  Biso   1.000  C
  C147     1.0000 0.28127  0.99996  0.27362  Biso   1.000  C
  H171     1.0000 0.05284  0.07059  0.24630  Biso   1.000  H
  H172     1.0000 0.10644  0.11021  0.29299  Biso   1.000  H
  H173     1.0000 0.09704  0.97860  0.28401  Biso   1.000  H
  C148     1.0000 0.17668  0.93000  0.33649  Biso   1.000  C
  C149     1.0000 0.30564  0.95568  0.31566  Biso   1.000  C
  H174     1.0000 0.31766  0.02419  0.25328  Biso   1.000  H
  H175     1.0000 0.14155  0.90649  0.35981  Biso   1.000  H
  C150     1.0000 0.25548  0.92166  0.34580  Biso   1.000  C
  H176     1.0000 0.35856  0.94958  0.32302  Biso   1.000  H
  H177     1.0000 0.27306  0.89149  0.37377  Biso   1.000  H
  C151     1.0000 0.07668  0.54171  0.45369  Biso   1.000  C
  O40      1.0000 0.03684  0.53777  0.39563  Biso   1.000  O
  H178     1.0000 0.12565  0.52210  0.44698  Biso   1.000  H
  H179     1.0000 0.04916  0.52248  0.49210  Biso   1.000  H
  C152     1.0000 0.09304  0.60010  0.47668  Biso   1.000  C
  C153     1.0000 0.04497  0.48799  0.36490  Biso   1.000  C
  H180     1.0000 0.06706  0.60349  0.52278  Biso   1.000  H
  H181     1.0000 0.14815  0.59989  0.48831  Biso   1.000  H
  O41      1.0000 0.08206  0.64751  0.44681  Biso   1.000  O
  H182     1.0000 0.09509  0.48659  0.34141  Biso   1.000  H
  H183     1.0000 0.04458  0.45901  0.40207  Biso   1.000  H
  C154     1.0000 0.98380  0.47536  0.31128  Biso   1.000  C
  C155     1.0000 0.13245  0.68785  0.45212  Biso   1.000  C
  H184     1.0000 0.93308  0.47998  0.33297  Biso   1.000  H
  H185     1.0000 0.98850  0.43638  0.29521  Biso   1.000  H
  O42      1.0000 0.99085  0.51235  0.25165  Biso   1.000  O
  H186     1.0000 0.17825  0.67510  0.42669  Biso   1.000  H
  H187     1.0000 0.14704  0.69018  0.50287  Biso   1.000  H
  C156     1.0000 0.11818  0.74467  0.42858  Biso   1.000  C
  C157     1.0000 0.94590  0.49460  0.19365  Biso   1.000  C
  H188     1.0000 0.09556  0.76539  0.46857  Biso   1.000  H
  H189     1.0000 0.16775  0.76221  0.41819  Biso   1.000  H
  O43      1.0000 0.07360  0.75082  0.37307  Biso   1.000  O
  C158     1.0000 0.95933  0.53091  0.12834  Biso   1.000  C
  H190     1.0000 0.95838  0.45562  0.18229  Biso   1.000  H
  H191     1.0000 0.89141  0.49629  0.20647  Biso   1.000  H
  C159     1.0000 0.10025  0.77793  0.31496  Biso   1.000  C
  O44      1.0000 0.03748  0.52409  0.10637  Biso   1.000  O
  H192     1.0000 0.94953  0.57031  0.13997  Biso   1.000  H
  H193     1.0000 0.92431  0.51981  0.08949  Biso   1.000  H
  C160     1.0000 0.04497  0.80314  0.27275  Biso   1.000  C
  C161     1.0000 0.17786  0.77895  0.29602  Biso   1.000  C
  C162     1.0000 0.06351  0.55498  0.04994  Biso   1.000  C
  C163     1.0000 0.06507  0.83005  0.21145  Biso   1.000  C
  H194     1.0000 0.99310  0.80179  0.28628  Biso   1.000  H
  C164     1.0000 0.19761  0.80649  0.23385  Biso   1.000  C
  H195     1.0000 0.21550  0.76141  0.32480  Biso   1.000  H
  C165     1.0000 0.13936  0.54794  0.03447  Biso   1.000  C
  C166     1.0000 0.01707  0.59154  0.00893  Biso   1.000  C
  C167     1.0000 0.14147  0.83234  0.18862  Biso   1.000  C
  C168     1.0000 0.00437  0.85801  0.16356  Biso   1.000  C
  O45      1.0000 0.27492  0.80530  0.21989  Biso   1.000  O
  H196     1.0000 0.16919  0.52269  0.06157  Biso   1.000  H
  C169     1.0000 0.17335  0.57803  0.97830  Biso   1.000  C
  H197     1.0000 0.96471  0.59578  0.01942  Biso   1.000  H
  C170     1.0000 0.04967  0.62163  0.95212  Biso   1.000  C
  H198     1.0000 0.15498  0.85001  0.14560  Biso   1.000  H
  H199     1.0000 0.01709  0.89780  0.15821  Biso   1.000  H
  O46      1.0000 0.00013  0.83378  0.09772  Biso   1.000  O
  H200     1.0000 0.95419  0.85539  0.18661  Biso   1.000  H
  C171     1.0000 0.30010  0.83403  0.16037  Biso   1.000  C
  C172     1.0000 0.12754  0.61472  0.93626  Biso   1.000  C
  O47      1.0000 0.24922  0.57553  0.95991  Biso   1.000  O
  C173     1.0000 0.00015  0.66057  0.90667  Biso   1.000  C
  C174     1.0000 0.96071  0.86475  0.04594  Biso   1.000  C
  C175     1.0000 0.38487  0.83094  0.15312  Biso   1.000  C
  H201     1.0000 0.27561  0.81819  0.11741  Biso   1.000  H
  H202     1.0000 0.28457  0.87340  0.16411  Biso   1.000  H
  H203     1.0000 0.14930  0.63438  0.89790  Biso   1.000  H
  C176     1.0000 0.29753  0.53493  0.99686  Biso   1.000  C
  H204     1.0000 0.94825  0.66298  0.92636  Biso   1.000  H
  H205     1.0000 0.99622  0.64641  0.85759  Biso   1.000  H
  O48      1.0000 0.03585  0.71425  0.90737  Biso   1.000  O
  C177     1.0000 0.00271  0.90810  0.01320  Biso   1.000  C
  C178     1.0000 0.89326  0.84895  0.01775  Biso   1.000  C
  H206     1.0000 0.40956  0.84310  0.19787  Biso   1.000  H
  H207     1.0000 0.40117  0.85628  0.11492  Biso   1.000  H
  O49      1.0000 0.40898  0.77480  0.13662  Biso   1.000  O
  H208     1.0000 0.29092  0.53820  0.04870  Biso   1.000  H
  H209     1.0000 0.28301  0.49680  0.98236  Biso   1.000  H
  C179     1.0000 0.38060  0.54591  0.97798  Biso   1.000  C
  C180     1.0000 0.99943  0.75649  0.86928  Biso   1.000  C
  H210     1.0000 0.05417  0.91509  0.02603  Biso   1.000  H
  C181     1.0000 0.96414  0.94098  0.95947  Biso   1.000  C
  C182     1.0000 0.85436  0.88060  0.96467  Biso   1.000  C
  H211     1.0000 0.87078  0.81539  0.03382  Biso   1.000  H
  C183     1.0000 0.49071  0.77069  0.13251  Biso   1.000  C
  O50      1.0000 0.40860  0.59192  0.00730  Biso   1.000  O
  H212     1.0000 0.38472  0.54879  0.92587  Biso   1.000  H
  H213     1.0000 0.41194  0.51388  0.99367  Biso   1.000  H
  C184     1.0000 0.93057  0.75319  0.83400  Biso   1.000  C
  C185     1.0000 0.03889  0.80670  0.86868  Biso   1.000  C
  H214     1.0000 0.99041  0.97140  0.93908  Biso   1.000  H
  C186     1.0000 0.88943  0.92975  0.93659  Biso   1.000  C
  H215     1.0000 0.80552  0.86929  0.94795  Biso   1.000  H
  C187     1.0000 0.51657  0.71111  0.12239  Biso   1.000  C
  H216     1.0000 0.50879  0.79348  0.09241  Biso   1.000  H
  H217     1.0000 0.51388  0.78569  0.17660  Biso   1.000  H
  C188     1.0000 0.48573  0.60328  0.99199  Biso   1.000  C
  H218     1.0000 0.90377  0.71899  0.83400  Biso   1.000  H
  C189     1.0000 0.89900  0.79878  0.79807  Biso   1.000  C
  C190     1.0000 0.00876  0.85221  0.83113  Biso   1.000  C
  H219     1.0000 0.08590  0.81009  0.89346  Biso   1.000  H
  C191     1.0000 0.85392  0.96432  0.87550  Biso   1.000  C
  O51      1.0000 0.48572  0.68853  0.06244  Biso   1.000  O
  H220     1.0000 0.50141  0.68870  0.16389  Biso   1.000  H
  H221     1.0000 0.57291  0.71001  0.11941  Biso   1.000  H
  C192     1.0000 0.51871  0.63421  0.05021  Biso   1.000  C
  H222     1.0000 0.48911  0.62510  0.94768  Biso   1.000  H
  H223     1.0000 0.51390  0.56811  0.98539  Biso   1.000  H
  C193     1.0000 0.93926  0.84924  0.79585  Biso   1.000  C
  H224     1.0000 0.85074  0.79560  0.77540  Biso   1.000  H
  H225     1.0000 0.03676  0.88589  0.83000  Biso   1.000  H
  P4       1.0000 0.82308  0.93195  0.79602  Biso   1.000  P
  H226     1.0000 0.80956  0.98420  0.89509  Biso   1.000  H
  H227     1.0000 0.89172  0.99301  0.86235  Biso   1.000  H
  H228     1.0000 0.51351  0.61201  0.09398  Biso   1.000  H
  H229     1.0000 0.57382  0.63891  0.04150  Biso   1.000  H
  C194     1.0000 0.90660  0.90085  0.75619  Biso   1.000  C
  C195     1.0000 0.79673  0.99085  0.73888  Biso   1.000  C
  O52      1.0000 0.75882  0.89017  0.80311  Biso   1.000  O
  H230     1.0000 0.94703  0.92941  0.75371  Biso   1.000  H
  H231     1.0000 0.89343  0.88979  0.70696  Biso   1.000  H
  C196     1.0000 0.84996  0.02640  0.70771  Biso   1.000  C
  C197     1.0000 0.71865  0.00004  0.72633  Biso   1.000  C
  H232     1.0000 0.90283  0.02140  0.71599  Biso   1.000  H
  C198     1.0000 0.82325  0.06995  0.66346  Biso   1.000  C
  H233     1.0000 0.68227  0.97581  0.74667  Biso   1.000  H
  C199     1.0000 0.69429  0.04432  0.68429  Biso   1.000  C
  H234     1.0000 0.85837  0.09351  0.64019  Biso   1.000  H
  C200     1.0000 0.74445  0.07834  0.65420  Biso   1.000  C
  H235     1.0000 0.64137  0.05038  0.67698  Biso   1.000  H
  H236     1.0000 0.72687  0.10851  0.62618  Biso   1.000  H
  Ne1      1.0000 0.42886  0.24748  0.44779  Biso   1.000  Ne
  He1      1.0000 0.23232  0.21807  0.48901  Biso   1.000  He
  He2      1.0000 0.37015  0.12561  0.23967  Biso   1.000  He
  He3      1.0000 0.45344  0.17218  0.32676  Biso   1.000  He
  Ar1      1.0000 0.37011  0.20498  0.40874  Biso   1.000  Ar
  Ne2      1.0000 0.57106  0.75251  0.55219  Biso   1.000  Ne
  He4      1.0000 0.61198  0.86506  0.72241  Biso   1.000  He
  He5      1.0000 0.74758  0.81555  0.60982  Biso   1.000  He
  He6      1.0000 0.74724  0.80836  0.59531  Biso   1.000  He
  Ar2      1.0000 0.62983  0.79503  0.59127  Biso   1.000  Ar
  Ne3      1.0000 0.07107  0.74748  0.05219  Biso   1.000  Ne
  He7      1.0000 0.11716  0.63359  0.22375  Biso   1.000  He
  He8      1.0000 0.26685  0.65280  0.15509  Biso   1.000  He
  He9      1.0000 0.26594  0.71664  0.01463  Biso   1.000  He
  Ar3      1.0000 0.12984  0.70497  0.09124  Biso   1.000  Ar
  Ne4      1.0000 0.92885  0.25251  0.94779  Biso   1.000  Ne
  He10     1.0000 0.75041  0.30682  0.91087  Biso   1.000  He
  He11     1.0000 0.10688  0.29851  0.86942  Biso   1.000  He
  He12     1.0000 0.93408  0.31917  0.84040  Biso   1.000  He
  Ar4      1.0000 0.87010  0.29502  0.90873  Biso   1.000  Ar
