data_image0
_cell_length_a       14.11
_cell_length_b       14.045
_cell_length_c       24.31
_cell_angle_alpha    90
_cell_angle_beta     92.51
_cell_angle_gamma    90

_symmetry_space_group_name_H-M    "P 1"
_symmetry_int_tables_number       1

loop_
  _symmetry_equiv_pos_as_xyz
  'x, y, z'

loop_
  _atom_site_label
  _atom_site_occupancy
  _atom_site_fract_x
  _atom_site_fract_y
  _atom_site_fract_z
  _atom_site_thermal_displace_type
  _atom_site_B_iso_or_equiv
  _atom_site_type_symbol
  N1       1.0000 0.51061  0.25504  0.71072  Biso   1.000  N
  C1       1.0000 0.53556  0.35073  0.69203  Biso   1.000  C
  C2       1.0000 0.41802  0.23396  0.70005  Biso   1.000  C
  C3       1.0000 0.57207  0.19815  0.74662  Biso   1.000  C
  C4       1.0000 0.44268  0.38498  0.66242  Biso   1.000  C
  C5       1.0000 0.44268  0.38505  0.66242  Biso   1.000  C
  N2       1.0000 0.60441  0.35123  0.64933  Biso   1.000  N
  H1       1.0000 0.55483  0.39231  0.72291  Biso   1.000  H
  N3       1.0000 0.37653  0.30808  0.67148  Biso   1.000  N
  N4       1.0000 0.37653  0.30815  0.67148  Biso   1.000  N
  O1       1.0000 0.37676  0.16120  0.71397  Biso   1.000  O
  O2       1.0000 0.37676  0.16127  0.71397  Biso   1.000  O
  H2       1.0000 0.60044  0.23873  0.77512  Biso   1.000  H
  H3       1.0000 0.53429  0.15044  0.76441  Biso   1.000  H
  N5       1.0000 0.64723  0.15080  0.71801  Biso   1.000  N
  N6       1.0000 0.46996  0.39459  0.60597  Biso   1.000  N
  N7       1.0000 0.46996  0.39466  0.60597  Biso   1.000  N
  H4       1.0000 0.42078  0.44550  0.67741  Biso   1.000  H
  H5       1.0000 0.42078  0.44557  0.67741  Biso   1.000  H
  C6       1.0000 0.56528  0.38099  0.60029  Biso   1.000  C
  C7       1.0000 0.56528  0.38106  0.60029  Biso   1.000  C
  C8       1.0000 0.70546  0.35002  0.66127  Biso   1.000  C
  C9       1.0000 0.27416  0.31691  0.66263  Biso   1.000  C
  C10      1.0000 0.73833  0.19480  0.71187  Biso   1.000  C
  C11      1.0000 0.65259  0.05283  0.71669  Biso   1.000  C
  C12      1.0000 0.41126  0.44251  0.56447  Biso   1.000  C
  O3       1.0000 0.60692  0.39381  0.55763  Biso   1.000  O
  H6       1.0000 0.71878  0.38241  0.69602  Biso   1.000  H
  H7       1.0000 0.73634  0.38540  0.63282  Biso   1.000  H
  N8       1.0000 0.74582  0.25582  0.66460  Biso   1.000  N
  N9       1.0000 0.24074  0.30103  0.60659  Biso   1.000  N
  H8       1.0000 0.25516  0.38021  0.67370  Biso   1.000  H
  H9       1.0000 0.24356  0.27156  0.68622  Biso   1.000  H
  H10      1.0000 0.75974  0.22763  0.74580  Biso   1.000  H
  C13      1.0000 0.80417  0.11050  0.69960  Biso   1.000  C
  N10      1.0000 0.74266  0.02898  0.70257  Biso   1.000  N
  O4       1.0000 0.58901  0.99687  0.72608  Biso   1.000  O
  N11      1.0000 0.33777  0.38120  0.54009  Biso   1.000  N
  N12      1.0000 0.33777  0.38127  0.54009  Biso   1.000  N
  H11      1.0000 0.38175  0.49733  0.58089  Biso   1.000  H
  H12      1.0000 0.45091  0.46543  0.53568  Biso   1.000  H
  C14      1.0000 0.80426  0.21858  0.62660  Biso   1.000  C
  C15      1.0000 0.80426  0.21865  0.62660  Biso   1.000  C
  C16      1.0000 0.24561  0.37280  0.56414  Biso   1.000  C
  C17      1.0000 0.24561  0.37287  0.56414  Biso   1.000  C
  C18      1.0000 0.18433  0.22563  0.59069  Biso   1.000  C
  N13      1.0000 0.83534  0.13151  0.64492  Biso   1.000  N
  H13      1.0000 0.85766  0.10637  0.72661  Biso   1.000  H
  H14      1.0000 0.85766  0.10644  0.72661  Biso   1.000  H
  C19      1.0000 0.78042  0.93457  0.71261  Biso   1.000  C
  C20      1.0000 0.78042  0.93464  0.71261  Biso   1.000  C
  C21      1.0000 0.33232  0.36312  0.48475  Biso   1.000  C
  O5       1.0000 0.82684  0.25810  0.58394  Biso   1.000  O
  C22      1.0000 0.18186  0.33208  0.51662  Biso   1.000  C
  C23      1.0000 0.18186  0.33215  0.51662  Biso   1.000  C
  H15      1.0000 0.22253  0.43460  0.57661  Biso   1.000  H
  H16      1.0000 0.22253  0.43467  0.57661  Biso   1.000  H
  N14      1.0000 0.15821  0.23774  0.53577  Biso   1.000  N
  O6       1.0000 0.16037  0.16027  0.61972  Biso   1.000  O
  C24      1.0000 0.91342  0.08259  0.62030  Biso   1.000  C
  C25      1.0000 0.91342  0.08266  0.62030  Biso   1.000  C
  N15      1.0000 0.80454  0.88622  0.66226  Biso   1.000  N
  H17      1.0000 0.83688  0.93927  0.73678  Biso   1.000  H
  H18      1.0000 0.73406  0.89697  0.73131  Biso   1.000  H
  H19      1.0000 0.83688  0.93934  0.73678  Biso   1.000  H
  H20      1.0000 0.73406  0.89705  0.73131  Biso   1.000  H
  N16      1.0000 0.24306  0.33208  0.47022  Biso   1.000  N
  N17      1.0000 0.24306  0.33215  0.47022  Biso   1.000  N
  O7       1.0000 0.39842  0.37188  0.45342  Biso   1.000  O
  H21      1.0000 0.12504  0.37109  0.50942  Biso   1.000  H
  H22      1.0000 0.12504  0.37116  0.50942  Biso   1.000  H
  C26      1.0000 0.08543  0.17914  0.50954  Biso   1.000  C
  N18      1.0000 0.88991  0.98711  0.59984  Biso   1.000  N
  H23      1.0000 0.96565  0.07768  0.64752  Biso   1.000  H
  H24      1.0000 0.93495  0.12075  0.58999  Biso   1.000  H
  H25      1.0000 0.96565  0.07775  0.64752  Biso   1.000  H
  C27      1.0000 0.76384  0.80093  0.64797  Biso   1.000  C
  C28      1.0000 0.89091  0.90352  0.63467  Biso   1.000  C
  C29      1.0000 0.20480  0.33229  0.41397  Biso   1.000  C
  C30      1.0000 0.20480  0.33236  0.41397  Biso   1.000  C
  N19      1.0000 0.11492  0.13300  0.45980  Biso   1.000  N
  H26      1.0000 0.03033  0.21830  0.50060  Biso   1.000  H
  H27      1.0000 0.03033  0.21837  0.50060  Biso   1.000  H
  H28      1.0000 0.06661  0.13065  0.53531  Biso   1.000  H
  C31      1.0000 0.88962  0.96447  0.54532  Biso   1.000  C
  C32      1.0000 0.88962  0.96454  0.54532  Biso   1.000  C
  N20      1.0000 0.81521  0.76205  0.60737  Biso   1.000  N
  O8       1.0000 0.69365  0.76611  0.66823  Biso   1.000  O
  C33      1.0000 0.89490  0.81994  0.59366  Biso   1.000  C
  H29      1.0000 0.94602  0.90345  0.66061  Biso   1.000  H
  N21      1.0000 0.18483  0.23802  0.39264  Biso   1.000  N
  H30      1.0000 0.14683  0.36938  0.41212  Biso   1.000  H
  H31      1.0000 0.24983  0.36319  0.39079  Biso   1.000  H
  H32      1.0000 0.14683  0.36946  0.41212  Biso   1.000  H
  H33      1.0000 0.24983  0.36326  0.39079  Biso   1.000  H
  C34      1.0000 0.10515  0.18014  0.40635  Biso   1.000  C
  C35      1.0000 0.11042  0.03553  0.45465  Biso   1.000  C
  N22      1.0000 0.88513  0.86700  0.54021  Biso   1.000  N
  O9       1.0000 0.89197  0.02100  0.50699  Biso   1.000  O
  C36      1.0000 0.79525  0.66771  0.58604  Biso   1.000  C
  H34      1.0000 0.95482  0.78476  0.59790  Biso   1.000  H
  H35      1.0000 0.95482  0.78483  0.59790  Biso   1.000  H
  C37      1.0000 0.23620  0.19907  0.35204  Biso   1.000  C
  C38      1.0000 0.23620  0.19915  0.35204  Biso   1.000  C
  C39      1.0000 0.10914  0.09648  0.36534  Biso   1.000  C
  C40      1.0000 0.10914  0.09655  0.36534  Biso   1.000  C
  H36      1.0000 0.04522  0.21524  0.40211  Biso   1.000  H
  N23      1.0000 0.11013  0.01289  0.40014  Biso   1.000  N
  N24      1.0000 0.11013  0.01296  0.40014  Biso   1.000  N
  O10      1.0000 0.10807  0.97900  0.49303  Biso   1.000  O
  O11      1.0000 0.10807  0.97907  0.49303  Biso   1.000  O
  C41      1.0000 0.91461  0.82093  0.49047  Biso   1.000  C
  N25      1.0000 0.75705  0.66792  0.52980  Biso   1.000  N
  H37      1.0000 0.85322  0.63062  0.58789  Biso   1.000  H
  H38      1.0000 0.75022  0.63681  0.60918  Biso   1.000  H
  N26      1.0000 0.19551  0.11385  0.33776  Biso   1.000  N
  O12      1.0000 0.30647  0.23396  0.33179  Biso   1.000  O
  H39      1.0000 0.05403  0.09662  0.33940  Biso   1.000  H
  C42      1.0000 0.08662  0.91741  0.37967  Biso   1.000  C
  N27      1.0000 0.84183  0.76234  0.46421  Biso   1.000  N
  H40      1.0000 0.96972  0.78170  0.49941  Biso   1.000  H
  H41      1.0000 0.93343  0.86942  0.46470  Biso   1.000  H
  C43      1.0000 0.66772  0.63695  0.51522  Biso   1.000  C
  C44      1.0000 0.81826  0.66792  0.48339  Biso   1.000  C
  C45      1.0000 0.21963  0.06543  0.28740  Biso   1.000  C
  N28      1.0000 0.16471  0.86849  0.35509  Biso   1.000  N
  H42      1.0000 0.06517  0.87932  0.41002  Biso   1.000  H
  H43      1.0000 0.03446  0.92232  0.35250  Biso   1.000  H
  C46      1.0000 0.81571  0.77444  0.40928  Biso   1.000  C
  N29      1.0000 0.66227  0.61880  0.45992  Biso   1.000  N
  O13      1.0000 0.60162  0.62820  0.54660  Biso   1.000  O
  C47      1.0000 0.75443  0.62720  0.43588  Biso   1.000  C
  H44      1.0000 0.87500  0.62891  0.49060  Biso   1.000  H
  H45      1.0000 0.16323  0.06073  0.26319  Biso   1.000  H
  H46      1.0000 0.26599  0.10303  0.26871  Biso   1.000  H
  N30      1.0000 0.25745  0.97109  0.29741  Biso   1.000  N
  C48      1.0000 0.19594  0.88950  0.30037  Biso   1.000  C
  C49      1.0000 0.19586  0.78142  0.37341  Biso   1.000  C
  N31      1.0000 0.75931  0.69904  0.39338  Biso   1.000  N
  O14      1.0000 0.83975  0.83980  0.38029  Biso   1.000  O
  C50      1.0000 0.58885  0.55749  0.43555  Biso   1.000  C
  H47      1.0000 0.77752  0.56540  0.42340  Biso   1.000  H
  C51      1.0000 0.34753  0.94717  0.28332  Biso   1.000  C
  C52      1.0000 0.34753  0.94724  0.28332  Biso   1.000  C
  C53      1.0000 0.26171  0.80520  0.28810  Biso   1.000  C
  H48      1.0000 0.14246  0.89363  0.27340  Biso   1.000  H
  N32      1.0000 0.25422  0.74425  0.33541  Biso   1.000  N
  O15      1.0000 0.17321  0.74197  0.41607  Biso   1.000  O
  C54      1.0000 0.72588  0.68309  0.33739  Biso   1.000  C
  N33      1.0000 0.53009  0.60541  0.39404  Biso   1.000  N
  H49      1.0000 0.61830  0.50267  0.41912  Biso   1.000  H
  H50      1.0000 0.54913  0.53457  0.46429  Biso   1.000  H
  H51      1.0000 0.61830  0.50274  0.41912  Biso   1.000  H
  H52      1.0000 0.54913  0.53464  0.46429  Biso   1.000  H
  N34      1.0000 0.35281  0.84927  0.28197  Biso   1.000  N
  O16      1.0000 0.41110  0.00313  0.27394  Biso   1.000  O
  O17      1.0000 0.41110  0.00320  0.27394  Biso   1.000  O
  H53      1.0000 0.24030  0.77245  0.25421  Biso   1.000  H
  C55      1.0000 0.29466  0.64998  0.33875  Biso   1.000  C
  C56      1.0000 0.29466  0.65005  0.33875  Biso   1.000  C
  N35      1.0000 0.62358  0.69192  0.32853  Biso   1.000  N
  H54      1.0000 0.74489  0.61979  0.32631  Biso   1.000  H
  H55      1.0000 0.75649  0.72852  0.31379  Biso   1.000  H
  C57      1.0000 0.55743  0.61502  0.33755  Biso   1.000  C
  C58      1.0000 0.43484  0.61901  0.39973  Biso   1.000  C
  C59      1.0000 0.42805  0.80192  0.25339  Biso   1.000  C
  H56      1.0000 0.28134  0.61759  0.30399  Biso   1.000  H
  H57      1.0000 0.26371  0.61460  0.36720  Biso   1.000  H
  N36      1.0000 0.39563  0.64884  0.35069  Biso   1.000  N
  C60      1.0000 0.58202  0.76611  0.29996  Biso   1.000  C
  C61      1.0000 0.46449  0.64927  0.30799  Biso   1.000  C
  C62      1.0000 0.46449  0.64934  0.30799  Biso   1.000  C
  H58      1.0000 0.57934  0.55450  0.32260  Biso   1.000  H
  O18      1.0000 0.39319  0.60627  0.44238  Biso   1.000  O
  H59      1.0000 0.39961  0.76127  0.22490  Biso   1.000  H
  H60      1.0000 0.46583  0.84963  0.23560  Biso   1.000  H
  H61      1.0000 0.39961  0.76134  0.22490  Biso   1.000  H
  N37      1.0000 0.48944  0.74503  0.28929  Biso   1.000  N
  O19      1.0000 0.62328  0.83880  0.28604  Biso   1.000  O
  H62      1.0000 0.44522  0.60769  0.27711  Biso   1.000  H
  O20      1.0000 0.41112  0.49683  0.77392  Biso   1.000  O
  C63      1.0000 0.34755  0.55279  0.78335  Biso   1.000  C
  N38      1.0000 0.25747  0.52894  0.79743  Biso   1.000  N
  N39      1.0000 0.35291  0.65077  0.78199  Biso   1.000  N
  N40      1.0000 0.35284  0.65077  0.78199  Biso   1.000  N
  C64      1.0000 0.19597  0.61054  0.80040  Biso   1.000  C
  C65      1.0000 0.21965  0.43460  0.78739  Biso   1.000  C
  C66      1.0000 0.26173  0.69484  0.78813  Biso   1.000  C
  C67      1.0000 0.42807  0.69811  0.75338  Biso   1.000  C
  N41      1.0000 0.16480  0.63154  0.85512  Biso   1.000  N
  H63      1.0000 0.14248  0.60641  0.77339  Biso   1.000  H
  H64      1.0000 0.26608  0.39701  0.76869  Biso   1.000  H
  N42      1.0000 0.19560  0.38619  0.83778  Biso   1.000  N
  H65      1.0000 0.16326  0.43930  0.76322  Biso   1.000  H
  N43      1.0000 0.19560  0.38619  0.83774  Biso   1.000  N
  H66      1.0000 0.24039  0.72759  0.75420  Biso   1.000  H
  N44      1.0000 0.25432  0.75586  0.83544  Biso   1.000  N
  N45      1.0000 0.25424  0.75586  0.83540  Biso   1.000  N
  H67      1.0000 0.39970  0.73870  0.72492  Biso   1.000  H
  H68      1.0000 0.46585  0.65041  0.73563  Biso   1.000  H
  N46      1.0000 0.48953  0.75507  0.78932  Biso   1.000  N
  H69      1.0000 0.39963  0.73870  0.72488  Biso   1.000  H
  H70      1.0000 0.46585  0.65041  0.73559  Biso   1.000  H
  N47      1.0000 0.48953  0.75507  0.78928  Biso   1.000  N
  C68      1.0000 0.08672  0.58263  0.87970  Biso   1.000  C
  C69      1.0000 0.19588  0.71862  0.87344  Biso   1.000  C
  C70      1.0000 0.08664  0.58263  0.87970  Biso   1.000  C
  C71      1.0000 0.19588  0.71862  0.87340  Biso   1.000  C
  C72      1.0000 0.23629  0.30089  0.85203  Biso   1.000  C
  C73      1.0000 0.10923  0.40349  0.86537  Biso   1.000  C
  C74      1.0000 0.10916  0.40349  0.86537  Biso   1.000  C
  C75      1.0000 0.29468  0.85005  0.83873  Biso   1.000  C
  C76      1.0000 0.46458  0.85069  0.80797  Biso   1.000  C
  C77      1.0000 0.58212  0.73393  0.79999  Biso   1.000  C
  C78      1.0000 0.58204  0.73393  0.79994  Biso   1.000  C
  H71      1.0000 0.06519  0.62072  0.91001  Biso   1.000  H
  N48      1.0000 0.11023  0.48715  0.90016  Biso   1.000  N
  H72      1.0000 0.03448  0.57771  0.85248  Biso   1.000  H
  N49      1.0000 0.11016  0.48715  0.90016  Biso   1.000  N
  O21      1.0000 0.17323  0.75806  0.91610  Biso   1.000  O
  N50      1.0000 0.18493  0.26201  0.89263  Biso   1.000  N
  N51      1.0000 0.18486  0.26201  0.89263  Biso   1.000  N
  O22      1.0000 0.30649  0.26607  0.83177  Biso   1.000  O
  C79      1.0000 0.10524  0.31990  0.90634  Biso   1.000  C
  H73      1.0000 0.05412  0.40342  0.83943  Biso   1.000  H
  C80      1.0000 0.10517  0.31990  0.90634  Biso   1.000  C
  H74      1.0000 0.05405  0.40342  0.83939  Biso   1.000  H
  H75      1.0000 0.28136  0.88245  0.80402  Biso   1.000  H
  H76      1.0000 0.26380  0.88544  0.86722  Biso   1.000  H
  N52      1.0000 0.39573  0.85119  0.85071  Biso   1.000  N
  H77      1.0000 0.26380  0.88544  0.86718  Biso   1.000  H
  N53      1.0000 0.39565  0.85119  0.85067  Biso   1.000  N
  C81      1.0000 0.55746  0.88501  0.83758  Biso   1.000  C
  H78      1.0000 0.44531  0.89235  0.77709  Biso   1.000  H
  H79      1.0000 0.44524  0.89235  0.77709  Biso   1.000  H
  N54      1.0000 0.62360  0.80812  0.82852  Biso   1.000  N
  O23      1.0000 0.62330  0.66123  0.78603  Biso   1.000  O
  C82      1.0000 0.11052  0.46451  0.95468  Biso   1.000  C
  C83      1.0000 0.20489  0.16768  0.91400  Biso   1.000  C
  H80      1.0000 0.04532  0.28480  0.90210  Biso   1.000  H
  N55      1.0000 0.11501  0.36703  0.95979  Biso   1.000  N
  C84      1.0000 0.43493  0.88103  0.89975  Biso   1.000  C
  C85      1.0000 0.43486  0.88103  0.89975  Biso   1.000  C
  H81      1.0000 0.57936  0.94553  0.82259  Biso   1.000  H
  N56      1.0000 0.53018  0.89462  0.89403  Biso   1.000  N
  C86      1.0000 0.72597  0.81695  0.83737  Biso   1.000  C
  O24      1.0000 0.10817  0.52097  0.99305  Biso   1.000  O
  O25      1.0000 0.10809  0.52097  0.99301  Biso   1.000  O
  H82      1.0000 0.14692  0.13058  0.91211  Biso   1.000  H
  N57      1.0000 0.24309  0.16789  0.97024  Biso   1.000  N
  H83      1.0000 0.14685  0.13058  0.91211  Biso   1.000  H
  H84      1.0000 0.24985  0.13677  0.89082  Biso   1.000  H
  N58      1.0000 0.24308  0.16789  0.97020  Biso   1.000  N
  C87      1.0000 0.08538  0.32090  0.00952  Biso   1.000  C
  C88      1.0000 0.08531  0.32090  0.00952  Biso   1.000  C
  O26      1.0000 0.39322  0.89377  0.94241  Biso   1.000  O
  C89      1.0000 0.58888  0.94254  0.93557  Biso   1.000  C
  C90      1.0000 0.58887  0.94254  0.93553  Biso   1.000  C
  H85      1.0000 0.74498  0.88024  0.82630  Biso   1.000  H
  H86      1.0000 0.75659  0.77152  0.81382  Biso   1.000  H
  N59      1.0000 0.75933  0.80100  0.89341  Biso   1.000  N
  C91      1.0000 0.33242  0.13692  0.98478  Biso   1.000  C
  C92      1.0000 0.18174  0.16789  0.01661  Biso   1.000  C
  H87      1.0000 0.03028  0.28174  0.00063  Biso   1.000  H
  H88      1.0000 0.06656  0.36938  0.03530  Biso   1.000  H
  N60      1.0000 0.15817  0.26230  0.03579  Biso   1.000  N
  H89      1.0000 0.03028  0.28174  0.00059  Biso   1.000  H
  H90      1.0000 0.61839  0.99729  0.91910  Biso   1.000  H
  H91      1.0000 0.54916  0.96540  0.96431  Biso   1.000  H
  N61      1.0000 0.66230  0.88124  0.95995  Biso   1.000  N
  C93      1.0000 0.75452  0.87284  0.93586  Biso   1.000  C
  C94      1.0000 0.75445  0.87284  0.93586  Biso   1.000  C
  C95      1.0000 0.81574  0.72560  0.90931  Biso   1.000  C
  O27      1.0000 0.39844  0.12816  0.95340  Biso   1.000  O
  N62      1.0000 0.33772  0.11883  0.04008  Biso   1.000  N
  H92      1.0000 0.12499  0.12887  0.00940  Biso   1.000  H
  C96      1.0000 0.24556  0.12723  0.06412  Biso   1.000  C
  H93      1.0000 0.12492  0.12887  0.00940  Biso   1.000  H
  C97      1.0000 0.18428  0.27440  0.09072  Biso   1.000  C
  C98      1.0000 0.66760  0.86315  0.01525  Biso   1.000  C
  H94      1.0000 0.77761  0.93464  0.92343  Biso   1.000  H
  C99      1.0000 0.81828  0.83211  0.98342  Biso   1.000  C
  H95      1.0000 0.77754  0.93464  0.92339  Biso   1.000  H
  C100     1.0000 0.81828  0.83211  0.98338  Biso   1.000  C
  O28      1.0000 0.83977  0.66023  0.88028  Biso   1.000  O
  N63      1.0000 0.84185  0.73770  0.96423  Biso   1.000  N
  C101     1.0000 0.41114  0.05753  0.06445  Biso   1.000  C
  H96      1.0000 0.22248  0.06543  0.07660  Biso   1.000  H
  N64      1.0000 0.24062  0.19900  0.10661  Biso   1.000  N
  O29      1.0000 0.16025  0.33977  0.11975  Biso   1.000  O
  N65      1.0000 0.75693  0.83211  0.02978  Biso   1.000  N
  O30      1.0000 0.60158  0.87184  0.04662  Biso   1.000  O
  O31      1.0000 0.60150  0.87184  0.04658  Biso   1.000  O
  H97      1.0000 0.87510  0.87113  0.99063  Biso   1.000  H
  H98      1.0000 0.87510  0.87113  0.99058  Biso   1.000  H
  C102     1.0000 0.91471  0.67910  0.99050  Biso   1.000  C
  C103     1.0000 0.91470  0.67910  0.99046  Biso   1.000  C
  H99      1.0000 0.38170  0.00271  0.08092  Biso   1.000  H
  H100     1.0000 0.45086  0.03460  0.03571  Biso   1.000  H
  N66      1.0000 0.46991  0.10538  0.10596  Biso   1.000  N
  H101     1.0000 0.38163  0.00271  0.08092  Biso   1.000  H
  N67      1.0000 0.46984  0.10538  0.10596  Biso   1.000  N
  C104     1.0000 0.27412  0.18313  0.16265  Biso   1.000  C
  C105     1.0000 0.27404  0.18313  0.16261  Biso   1.000  C
  C106     1.0000 0.79512  0.83232  0.08603  Biso   1.000  C
  H102     1.0000 0.93353  0.63062  0.96473  Biso   1.000  H
  H103     1.0000 0.96974  0.71833  0.99940  Biso   1.000  H
  H104     1.0000 0.93345  0.63062  0.96469  Biso   1.000  H
  N68      1.0000 0.88508  0.63304  0.04024  Biso   1.000  N
  N69      1.0000 0.88501  0.63304  0.04020  Biso   1.000  N
  C107     1.0000 0.56516  0.11897  0.10027  Biso   1.000  C
  C108     1.0000 0.44256  0.11499  0.16245  Biso   1.000  C
  H105     1.0000 0.25511  0.11983  0.17373  Biso   1.000  H
  N70      1.0000 0.37642  0.19188  0.17151  Biso   1.000  N
  H106     1.0000 0.25503  0.11983  0.17369  Biso   1.000  H
  H107     1.0000 0.24343  0.22848  0.18621  Biso   1.000  H
  N71      1.0000 0.37641  0.19188  0.17147  Biso   1.000  N
  H108     1.0000 0.85317  0.86942  0.08792  Biso   1.000  H
  H109     1.0000 0.75017  0.86323  0.10921  Biso   1.000  H
  N72      1.0000 0.81516  0.73806  0.10740  Biso   1.000  N
  N73      1.0000 0.81516  0.73806  0.10736  Biso   1.000  N
  C109     1.0000 0.89485  0.68010  0.09369  Biso   1.000  C
  C110     1.0000 0.89485  0.68010  0.09364  Biso   1.000  C
  C111     1.0000 0.88950  0.53549  0.04535  Biso   1.000  C
  N74      1.0000 0.60436  0.14881  0.14931  Biso   1.000  N
  O32      1.0000 0.60680  0.10623  0.05762  Biso   1.000  O
  N75      1.0000 0.60429  0.14881  0.14931  Biso   1.000  N
  C112     1.0000 0.53551  0.14931  0.19205  Biso   1.000  C
  H110     1.0000 0.42066  0.05447  0.17739  Biso   1.000  H
  C113     1.0000 0.53544  0.14931  0.19201  Biso   1.000  C
  C114     1.0000 0.41797  0.26607  0.20004  Biso   1.000  C
  C115     1.0000 0.76380  0.69911  0.14800  Biso   1.000  C
  C116     1.0000 0.76372  0.69911  0.14795  Biso   1.000  C
  H111     1.0000 0.95478  0.71520  0.09793  Biso   1.000  H
  C117     1.0000 0.89086  0.59651  0.13466  Biso   1.000  C
  H112     1.0000 0.95470  0.71520  0.09789  Biso   1.000  H
  N76      1.0000 0.88986  0.51292  0.09986  Biso   1.000  N
  O33      1.0000 0.89192  0.47903  0.00697  Biso   1.000  O
  C118     1.0000 0.70541  0.15002  0.16125  Biso   1.000  C
  C119     1.0000 0.70534  0.15002  0.16125  Biso   1.000  C
  H113     1.0000 0.55478  0.10773  0.22293  Biso   1.000  H
  N77      1.0000 0.51056  0.24500  0.21070  Biso   1.000  N
  H114     1.0000 0.55478  0.10773  0.22289  Biso   1.000  H
  N78      1.0000 0.51049  0.24500  0.21070  Biso   1.000  N
  O34      1.0000 0.37672  0.33877  0.21400  Biso   1.000  O
  O35      1.0000 0.37671  0.33877  0.21396  Biso   1.000  O
  N79      1.0000 0.80449  0.61381  0.16224  Biso   1.000  N
  O36      1.0000 0.69353  0.73393  0.16825  Biso   1.000  O
  N80      1.0000 0.80442  0.61381  0.16224  Biso   1.000  N
  O37      1.0000 0.69353  0.73393  0.16821  Biso   1.000  O
  H115     1.0000 0.94597  0.59658  0.16060  Biso   1.000  H
  C120     1.0000 0.91338  0.41744  0.12033  Biso   1.000  C
  H116     1.0000 0.71866  0.11762  0.19601  Biso   1.000  H
  N81      1.0000 0.74577  0.24422  0.16459  Biso   1.000  N
  H117     1.0000 0.73622  0.11463  0.13280  Biso   1.000  H
  C121     1.0000 0.57195  0.30189  0.24661  Biso   1.000  C
  C122     1.0000 0.78037  0.56540  0.21264  Biso   1.000  C
  C123     1.0000 0.78037  0.56540  0.21260  Biso   1.000  C
  H118     1.0000 0.93483  0.37928  0.09002  Biso   1.000  H
  H119     1.0000 0.96553  0.42229  0.14750  Biso   1.000  H
  N82      1.0000 0.83522  0.36853  0.14491  Biso   1.000  N
  C124     1.0000 0.80414  0.28138  0.12658  Biso   1.000  C
  C125     1.0000 0.73829  0.30523  0.21190  Biso   1.000  C
  H120     1.0000 0.60039  0.26130  0.27510  Biso   1.000  H
  H121     1.0000 0.53417  0.34959  0.26440  Biso   1.000  H
  N83      1.0000 0.64718  0.34923  0.21803  Biso   1.000  N
  N84      1.0000 0.74255  0.47113  0.20259  Biso   1.000  N
  H122     1.0000 0.83676  0.56070  0.23681  Biso   1.000  H
  H123     1.0000 0.73401  0.60299  0.23133  Biso   1.000  H
  H124     1.0000 0.73394  0.60299  0.23129  Biso   1.000  H
  C126     1.0000 0.80405  0.38953  0.19963  Biso   1.000  C
  O38      1.0000 0.82679  0.24194  0.08393  Biso   1.000  O
  H125     1.0000 0.75970  0.27241  0.24583  Biso   1.000  H
  H126     1.0000 0.75962  0.27241  0.24579  Biso   1.000  H
  C127     1.0000 0.65247  0.44721  0.21668  Biso   1.000  C
  H127     1.0000 0.85754  0.39359  0.22660  Biso   1.000  H
  O39      1.0000 0.58889  0.50317  0.22606  Biso   1.000  O
