data_image0
_cell_length_a       14.11
_cell_length_b       14.045
_cell_length_c       24.31
_cell_angle_alpha    90
_cell_angle_beta     92.51
_cell_angle_gamma    90

_symmetry_space_group_name_H-M    "P 1"
_symmetry_int_tables_number       1

loop_
  _symmetry_equiv_pos_as_xyz
  'x, y, z'

loop_
  _atom_site_label
  _atom_site_occupancy
  _atom_site_fract_x
  _atom_site_fract_y
  _atom_site_fract_z
  _atom_site_thermal_displace_type
  _atom_site_B_iso_or_equiv
  _atom_site_type_symbol
  C1       1.0000 0.57204  0.30189  0.24660  Biso   1.000  C
  N1       1.0000 0.51058  0.24500  0.21069  Biso   1.000  N
  H1       1.0000 0.60042  0.26130  0.27509  Biso   1.000  H
  H2       1.0000 0.53419  0.34959  0.26438  Biso   1.000  H
  N2       1.0000 0.64721  0.34923  0.21802  Biso   1.000  N
  C2       1.0000 0.41800  0.26607  0.20003  Biso   1.000  C
  C3       1.0000 0.53554  0.14931  0.19204  Biso   1.000  C
  C4       1.0000 0.73831  0.30523  0.21189  Biso   1.000  C
  C5       1.0000 0.65249  0.44721  0.21666  Biso   1.000  C
  O1       1.0000 0.37674  0.33877  0.21399  Biso   1.000  O
  N3       1.0000 0.37644  0.19188  0.17149  Biso   1.000  N
  C6       1.0000 0.44259  0.11499  0.16243  Biso   1.000  C
  H3       1.0000 0.55481  0.10773  0.22292  Biso   1.000  H
  N4       1.0000 0.60439  0.14881  0.14930  Biso   1.000  N
  H4       1.0000 0.75972  0.27241  0.24581  Biso   1.000  H
  C7       1.0000 0.80408  0.38953  0.19962  Biso   1.000  C
  N5       1.0000 0.74580  0.24422  0.16458  Biso   1.000  N
  N6       1.0000 0.74257  0.47113  0.20258  Biso   1.000  N
  O2       1.0000 0.58892  0.50317  0.22609  Biso   1.000  O
  C8       1.0000 0.27414  0.18313  0.16264  Biso   1.000  C
  H5       1.0000 0.42068  0.05447  0.17738  Biso   1.000  H
  N7       1.0000 0.46994  0.10538  0.10594  Biso   1.000  N
  C9       1.0000 0.70543  0.15002  0.16124  Biso   1.000  C
  C10      1.0000 0.56518  0.11897  0.10026  Biso   1.000  C
  H6       1.0000 0.85763  0.39359  0.22659  Biso   1.000  H
  N8       1.0000 0.83531  0.36853  0.14489  Biso   1.000  N
  C11      1.0000 0.80416  0.28138  0.12657  Biso   1.000  C
  C12      1.0000 0.78039  0.56540  0.21263  Biso   1.000  C
  H7       1.0000 0.25513  0.11983  0.17372  Biso   1.000  H
  H8       1.0000 0.24353  0.22848  0.18619  Biso   1.000  H
  N9       1.0000 0.24072  0.19900  0.10660  Biso   1.000  N
  C13      1.0000 0.41117  0.05753  0.06444  Biso   1.000  C
  H9       1.0000 0.71869  0.11762  0.19599  Biso   1.000  H
  H10      1.0000 0.73631  0.11463  0.13279  Biso   1.000  H
  O3       1.0000 0.60683  0.10623  0.05760  Biso   1.000  O
  C14      1.0000 0.91340  0.41744  0.12031  Biso   1.000  C
  O4       1.0000 0.82681  0.24194  0.08391  Biso   1.000  O
  H11      1.0000 0.83679  0.56070  0.23680  Biso   1.000  H
  H12      1.0000 0.73404  0.60299  0.23132  Biso   1.000  H
  N10      1.0000 0.80452  0.61381  0.16223  Biso   1.000  N
  C15      1.0000 0.24559  0.12723  0.06415  Biso   1.000  C
  C16      1.0000 0.18431  0.27440  0.09071  Biso   1.000  C
  H13      1.0000 0.38172  0.00271  0.08091  Biso   1.000  H
  H14      1.0000 0.45089  0.03460  0.03570  Biso   1.000  H
  N11      1.0000 0.33775  0.11883  0.04006  Biso   1.000  N
  H15      1.0000 0.93486  0.37928  0.09001  Biso   1.000  H
  H16      1.0000 0.96556  0.42229  0.14749  Biso   1.000  H
  N12      1.0000 0.88989  0.51292  0.09985  Biso   1.000  N
  C17      1.0000 0.76382  0.69911  0.14798  Biso   1.000  C
  C18      1.0000 0.89088  0.59651  0.13464  Biso   1.000  C
  H17      1.0000 0.22250  0.06543  0.07659  Biso   1.000  H
  C19      1.0000 0.18176  0.16789  0.01659  Biso   1.000  C
  N13      1.0000 0.15819  0.26230  0.03578  Biso   1.000  N
  O5       1.0000 0.16027  0.33977  0.11974  Biso   1.000  O
  C20      1.0000 0.33244  0.13692  0.98477  Biso   1.000  C
  C21      1.0000 0.88960  0.53549  0.04533  Biso   1.000  C
  N14      1.0000 0.81519  0.73806  0.10738  Biso   1.000  N
  O6       1.0000 0.69356  0.73393  0.16824  Biso   1.000  O
  C22      1.0000 0.89488  0.68010  0.09367  Biso   1.000  C
  H18      1.0000 0.94599  0.59658  0.16058  Biso   1.000  H
  H19      1.0000 0.12502  0.12887  0.00939  Biso   1.000  H
  N15      1.0000 0.24311  0.16789  0.97019  Biso   1.000  N
  C23      1.0000 0.08541  0.32090  0.00951  Biso   1.000  C
  O7       1.0000 0.39847  0.12816  0.95339  Biso   1.000  O
  N16      1.0000 0.88510  0.63304  0.04023  Biso   1.000  N
  O8       1.0000 0.89195  0.47903  0.00696  Biso   1.000  O
  C24      1.0000 0.79522  0.83232  0.08601  Biso   1.000  C
  H20      1.0000 0.95480  0.71520  0.09791  Biso   1.000  H
  C25      1.0000 0.20492  0.16768  0.91399  Biso   1.000  C
  H21      1.0000 0.03031  0.28174  0.00062  Biso   1.000  H
  H22      1.0000 0.06659  0.36938  0.03529  Biso   1.000  H
  N17      1.0000 0.11504  0.36703  0.95977  Biso   1.000  N
  C26      1.0000 0.91473  0.67910  0.99045  Biso   1.000  C
  H23      1.0000 0.85320  0.86942  0.08791  Biso   1.000  H
  H24      1.0000 0.75020  0.86323  0.10920  Biso   1.000  H
  N18      1.0000 0.75696  0.83211  0.02977  Biso   1.000  N
  H25      1.0000 0.14688  0.13058  0.91209  Biso   1.000  H
  H26      1.0000 0.24988  0.13677  0.89080  Biso   1.000  H
  N19      1.0000 0.18488  0.26201  0.89262  Biso   1.000  N
  C27      1.0000 0.10519  0.31990  0.90633  Biso   1.000  C
  C28      1.0000 0.11054  0.46451  0.95467  Biso   1.000  C
  H27      1.0000 0.96976  0.71833  0.99938  Biso   1.000  H
  H28      1.0000 0.93348  0.63062  0.96467  Biso   1.000  H
  N20      1.0000 0.84188  0.73770  0.96422  Biso   1.000  N
  C29      1.0000 0.66770  0.86315  0.01523  Biso   1.000  C
  C30      1.0000 0.81831  0.83211  0.98337  Biso   1.000  C
  C31      1.0000 0.23632  0.30089  0.85202  Biso   1.000  C
  H29      1.0000 0.04534  0.28480  0.90209  Biso   1.000  H
  C32      1.0000 0.10919  0.40349  0.86536  Biso   1.000  C
  N21      1.0000 0.11018  0.48715  0.90015  Biso   1.000  N
  O9       1.0000 0.10812  0.52097  0.99300  Biso   1.000  O
  C33      1.0000 0.81576  0.72560  0.90929  Biso   1.000  C
  O10      1.0000 0.60160  0.87184  0.04661  Biso   1.000  O
  N22      1.0000 0.66232  0.88124  0.95994  Biso   1.000  N
  C34      1.0000 0.75448  0.87284  0.93585  Biso   1.000  C
  H30      1.0000 0.87512  0.87113  0.99057  Biso   1.000  H
  N23      1.0000 0.19562  0.38619  0.83773  Biso   1.000  N
  O11      1.0000 0.30651  0.26607  0.83176  Biso   1.000  O
  H31      1.0000 0.05407  0.40342  0.83938  Biso   1.000  H
  C35      1.0000 0.08667  0.58263  0.87969  Biso   1.000  C
  N24      1.0000 0.75936  0.80100  0.89340  Biso   1.000  N
  O12      1.0000 0.83980  0.66023  0.88026  Biso   1.000  O
  C36      1.0000 0.58890  0.94254  0.93552  Biso   1.000  C
  H32      1.0000 0.77756  0.93464  0.92337  Biso   1.000  H
  C37      1.0000 0.21968  0.43460  0.78737  Biso   1.000  C
  H33      1.0000 0.06521  0.62072  0.90999  Biso   1.000  H
  H34      1.0000 0.03451  0.57771  0.85247  Biso   1.000  H
  N25      1.0000 0.16483  0.63154  0.85511  Biso   1.000  N
  C38      1.0000 0.72600  0.81695  0.83736  Biso   1.000  C
  H35      1.0000 0.61842  0.99729  0.91909  Biso   1.000  H
  H36      1.0000 0.54918  0.96540  0.96430  Biso   1.000  H
  N26      1.0000 0.53020  0.89462  0.89402  Biso   1.000  N
  H37      1.0000 0.16328  0.43930  0.76320  Biso   1.000  H
  H38      1.0000 0.26610  0.39701  0.76868  Biso   1.000  H
  N27      1.0000 0.25750  0.52894  0.79742  Biso   1.000  N
  C39      1.0000 0.19590  0.71862  0.87339  Biso   1.000  C
  C40      1.0000 0.19599  0.61054  0.80038  Biso   1.000  C
  H39      1.0000 0.74501  0.88024  0.82628  Biso   1.000  H
  H40      1.0000 0.75661  0.77152  0.81381  Biso   1.000  H
  N28      1.0000 0.62363  0.80812  0.82851  Biso   1.000  N
  C41      1.0000 0.43489  0.88103  0.89974  Biso   1.000  C
  C42      1.0000 0.55748  0.88501  0.83757  Biso   1.000  C
  C43      1.0000 0.34758  0.55279  0.78334  Biso   1.000  C
  N29      1.0000 0.25427  0.75586  0.83538  Biso   1.000  N
  O13      1.0000 0.17326  0.75806  0.91609  Biso   1.000  O
  C44      1.0000 0.26176  0.69484  0.78811  Biso   1.000  C
  H41      1.0000 0.14250  0.60641  0.77337  Biso   1.000  H
  C45      1.0000 0.58207  0.73393  0.79993  Biso   1.000  C
  N30      1.0000 0.39568  0.85119  0.85066  Biso   1.000  N
  O14      1.0000 0.39324  0.89377  0.94240  Biso   1.000  O
  C46      1.0000 0.46460  0.85069  0.80796  Biso   1.000  C
  H42      1.0000 0.57938  0.94553  0.82258  Biso   1.000  H
  N31      1.0000 0.35286  0.65077  0.78198  Biso   1.000  N
  O15      1.0000 0.41115  0.49683  0.77391  Biso   1.000  O
  C47      1.0000 0.29471  0.85005  0.83872  Biso   1.000  C
  H43      1.0000 0.24042  0.72759  0.75419  Biso   1.000  H
  N32      1.0000 0.48956  0.75507  0.78927  Biso   1.000  N
  O16      1.0000 0.62333  0.66123  0.78601  Biso   1.000  O
  H44      1.0000 0.44526  0.89235  0.77708  Biso   1.000  H
  C48      1.0000 0.42810  0.69811  0.75336  Biso   1.000  C
  H45      1.0000 0.28138  0.88245  0.80401  Biso   1.000  H
  H46      1.0000 0.26383  0.88544  0.86717  Biso   1.000  H
  H47      1.0000 0.39965  0.73870  0.72487  Biso   1.000  H
  H48      1.0000 0.46587  0.65041  0.73558  Biso   1.000  H
  O17      1.0000 0.39842  0.37188  0.45342  Biso   1.000  O
  C49      1.0000 0.33232  0.36312  0.48475  Biso   1.000  C
  N33      1.0000 0.24306  0.33208  0.47022  Biso   1.000  N
  N34      1.0000 0.33777  0.38120  0.54009  Biso   1.000  N
  C50      1.0000 0.20480  0.33229  0.41397  Biso   1.000  C
  C51      1.0000 0.18186  0.33208  0.51662  Biso   1.000  C
  C52      1.0000 0.24561  0.37280  0.56414  Biso   1.000  C
  C53      1.0000 0.41126  0.44251  0.56447  Biso   1.000  C
  N35      1.0000 0.18483  0.23802  0.39264  Biso   1.000  N
  H49      1.0000 0.14683  0.36938  0.41212  Biso   1.000  H
  H50      1.0000 0.24983  0.36319  0.39079  Biso   1.000  H
  H51      1.0000 0.12504  0.37109  0.50942  Biso   1.000  H
  N36      1.0000 0.15821  0.23774  0.53577  Biso   1.000  N
  H52      1.0000 0.22253  0.43460  0.57661  Biso   1.000  H
  N37      1.0000 0.24074  0.30103  0.60659  Biso   1.000  N
  H53      1.0000 0.38175  0.49733  0.58089  Biso   1.000  H
  H54      1.0000 0.45091  0.46543  0.53568  Biso   1.000  H
  N38      1.0000 0.46996  0.39459  0.60597  Biso   1.000  N
  C54      1.0000 0.23620  0.19907  0.35204  Biso   1.000  C
  C55      1.0000 0.10515  0.18014  0.40635  Biso   1.000  C
  C56      1.0000 0.08543  0.17914  0.50954  Biso   1.000  C
  C57      1.0000 0.18433  0.22563  0.59069  Biso   1.000  C
  C58      1.0000 0.27416  0.31691  0.66263  Biso   1.000  C
  C59      1.0000 0.56528  0.38099  0.60029  Biso   1.000  C
  C60      1.0000 0.44268  0.38498  0.66242  Biso   1.000  C
  O18      1.0000 0.30647  0.23389  0.33179  Biso   1.000  O
  N39      1.0000 0.19551  0.11378  0.33776  Biso   1.000  N
  C61      1.0000 0.10914  0.09648  0.36534  Biso   1.000  C
  H55      1.0000 0.04522  0.21524  0.40211  Biso   1.000  H
  N40      1.0000 0.11492  0.13300  0.45980  Biso   1.000  N
  H56      1.0000 0.03033  0.21830  0.50060  Biso   1.000  H
  H57      1.0000 0.06661  0.13058  0.53531  Biso   1.000  H
  O19      1.0000 0.16037  0.16020  0.61972  Biso   1.000  O
  H58      1.0000 0.25516  0.38021  0.67370  Biso   1.000  H
  H59      1.0000 0.24356  0.27148  0.68622  Biso   1.000  H
  N41      1.0000 0.37653  0.30808  0.67148  Biso   1.000  N
  N42      1.0000 0.60441  0.35123  0.64933  Biso   1.000  N
  O20      1.0000 0.60692  0.39381  0.55763  Biso   1.000  O
  C62      1.0000 0.53556  0.35073  0.69203  Biso   1.000  C
  H60      1.0000 0.42078  0.44550  0.67741  Biso   1.000  H
  C63      1.0000 0.21963  0.06543  0.28740  Biso   1.000  C
  H61      1.0000 0.05403  0.09662  0.33940  Biso   1.000  H
  N43      1.0000 0.11013  0.01289  0.40014  Biso   1.000  N
  C64      1.0000 0.11042  0.03553  0.45465  Biso   1.000  C
  C65      1.0000 0.41802  0.23389  0.70005  Biso   1.000  C
  C66      1.0000 0.70546  0.35002  0.66127  Biso   1.000  C
  H62      1.0000 0.55483  0.39231  0.72291  Biso   1.000  H
  N44      1.0000 0.51061  0.25504  0.71072  Biso   1.000  N
  H63      1.0000 0.16323  0.06073  0.26319  Biso   1.000  H
  H64      1.0000 0.26599  0.10303  0.26871  Biso   1.000  H
  N45      1.0000 0.25745  0.97109  0.29741  Biso   1.000  N
  C67      1.0000 0.08662  0.91741  0.37967  Biso   1.000  C
  O21      1.0000 0.10807  0.97907  0.49303  Biso   1.000  O
  O22      1.0000 0.37676  0.16120  0.71397  Biso   1.000  O
  H65      1.0000 0.71878  0.38241  0.69602  Biso   1.000  H
  H66      1.0000 0.73634  0.38540  0.63282  Biso   1.000  H
  N46      1.0000 0.74582  0.25582  0.66460  Biso   1.000  N
  C68      1.0000 0.57207  0.19808  0.74662  Biso   1.000  C
  C69      1.0000 0.34753  0.94724  0.28332  Biso   1.000  C
  C70      1.0000 0.19594  0.88950  0.30037  Biso   1.000  C
  H67      1.0000 0.06517  0.87932  0.41002  Biso   1.000  H
  H68      1.0000 0.03446  0.92232  0.35250  Biso   1.000  H
  N47      1.0000 0.16471  0.86849  0.35509  Biso   1.000  N
  C71      1.0000 0.80426  0.21858  0.62660  Biso   1.000  C
  C72      1.0000 0.73833  0.19480  0.71187  Biso   1.000  C
  H69      1.0000 0.60044  0.23873  0.77512  Biso   1.000  H
  H70      1.0000 0.53429  0.15037  0.76441  Biso   1.000  H
  N48      1.0000 0.64723  0.15073  0.71801  Biso   1.000  N
  O23      1.0000 0.41110  0.00313  0.27394  Biso   1.000  O
  N49      1.0000 0.35281  0.84927  0.28197  Biso   1.000  N
  C73      1.0000 0.26171  0.80520  0.28810  Biso   1.000  C
  H71      1.0000 0.14246  0.89363  0.27340  Biso   1.000  H
  C74      1.0000 0.19586  0.78142  0.37341  Biso   1.000  C
  N50      1.0000 0.83534  0.13151  0.64492  Biso   1.000  N
  O24      1.0000 0.82684  0.25803  0.58394  Biso   1.000  O
  H72      1.0000 0.75974  0.22763  0.74580  Biso   1.000  H
  C75      1.0000 0.80417  0.11050  0.69960  Biso   1.000  C
  C76      1.0000 0.65259  0.05283  0.71669  Biso   1.000  C
  C77      1.0000 0.42805  0.80192  0.25339  Biso   1.000  C
  H73      1.0000 0.24030  0.77245  0.25421  Biso   1.000  H
  N51      1.0000 0.25422  0.74425  0.33541  Biso   1.000  N
  O25      1.0000 0.17321  0.74197  0.41607  Biso   1.000  O
  C78      1.0000 0.91342  0.08259  0.62030  Biso   1.000  C
  H74      1.0000 0.85766  0.10637  0.72661  Biso   1.000  H
  N52      1.0000 0.74266  0.02891  0.70257  Biso   1.000  N
  O26      1.0000 0.58901  0.99687  0.72608  Biso   1.000  O
  H75      1.0000 0.39961  0.76134  0.22490  Biso   1.000  H
  H76      1.0000 0.46583  0.84963  0.23560  Biso   1.000  H
  N53      1.0000 0.48944  0.74503  0.28929  Biso   1.000  N
  C79      1.0000 0.29466  0.65005  0.33875  Biso   1.000  C
  H77      1.0000 0.93495  0.12068  0.58999  Biso   1.000  H
  H78      1.0000 0.96565  0.07768  0.64752  Biso   1.000  H
  N54      1.0000 0.88991  0.98711  0.59984  Biso   1.000  N
  C80      1.0000 0.78042  0.93464  0.71261  Biso   1.000  C
  C81      1.0000 0.46449  0.64934  0.30799  Biso   1.000  C
  C82      1.0000 0.58202  0.76611  0.29996  Biso   1.000  C
  H79      1.0000 0.28134  0.61759  0.30399  Biso   1.000  H
  H80      1.0000 0.26371  0.61460  0.36720  Biso   1.000  H
  N55      1.0000 0.39563  0.64884  0.35069  Biso   1.000  N
  C83      1.0000 0.89091  0.90352  0.63467  Biso   1.000  C
  C84      1.0000 0.88962  0.96454  0.54532  Biso   1.000  C
  H81      1.0000 0.83688  0.93934  0.73678  Biso   1.000  H
  H82      1.0000 0.73406  0.89705  0.73131  Biso   1.000  H
  N56      1.0000 0.80454  0.88622  0.66226  Biso   1.000  N
  H83      1.0000 0.44522  0.60769  0.27711  Biso   1.000  H
  C85      1.0000 0.55743  0.61502  0.33755  Biso   1.000  C
  N57      1.0000 0.62358  0.69192  0.32853  Biso   1.000  N
  O27      1.0000 0.62328  0.83880  0.28604  Biso   1.000  O
  C86      1.0000 0.43484  0.61901  0.39973  Biso   1.000  C
  C87      1.0000 0.89490  0.81994  0.59366  Biso   1.000  C
  H84      1.0000 0.94602  0.90345  0.66061  Biso   1.000  H
  N58      1.0000 0.88513  0.86700  0.54021  Biso   1.000  N
  O28      1.0000 0.89197  0.02100  0.50699  Biso   1.000  O
  C88      1.0000 0.76384  0.80093  0.64797  Biso   1.000  C
  H85      1.0000 0.57934  0.55450  0.32260  Biso   1.000  H
  N59      1.0000 0.53009  0.60541  0.39404  Biso   1.000  N
  C89      1.0000 0.72588  0.68309  0.33739  Biso   1.000  C
  O29      1.0000 0.39319  0.60627  0.44238  Biso   1.000  O
  N60      1.0000 0.81521  0.76205  0.60737  Biso   1.000  N
  H86      1.0000 0.95482  0.78483  0.59790  Biso   1.000  H
  C90      1.0000 0.91461  0.82093  0.49047  Biso   1.000  C
  O30      1.0000 0.69365  0.76611  0.66823  Biso   1.000  O
  C91      1.0000 0.58885  0.55749  0.43555  Biso   1.000  C
  H87      1.0000 0.74489  0.61979  0.32631  Biso   1.000  H
  H88      1.0000 0.75649  0.72852  0.31379  Biso   1.000  H
  N61      1.0000 0.75931  0.69904  0.39338  Biso   1.000  N
  C92      1.0000 0.79525  0.66771  0.58604  Biso   1.000  C
  N62      1.0000 0.84183  0.76234  0.46421  Biso   1.000  N
  H89      1.0000 0.96972  0.78170  0.49941  Biso   1.000  H
  H90      1.0000 0.93343  0.86942  0.46470  Biso   1.000  H
  H91      1.0000 0.61830  0.50274  0.41912  Biso   1.000  H
  H92      1.0000 0.54913  0.53464  0.46429  Biso   1.000  H
  N63      1.0000 0.66227  0.61880  0.45992  Biso   1.000  N
  C93      1.0000 0.75443  0.62720  0.43588  Biso   1.000  C
  C94      1.0000 0.81571  0.77444  0.40928  Biso   1.000  C
  N64      1.0000 0.75705  0.66792  0.52980  Biso   1.000  N
  H93      1.0000 0.85322  0.63062  0.58789  Biso   1.000  H
  H94      1.0000 0.75022  0.63681  0.60918  Biso   1.000  H
  C95      1.0000 0.81826  0.66792  0.48339  Biso   1.000  C
  C96      1.0000 0.66772  0.63695  0.51522  Biso   1.000  C
  H95      1.0000 0.77752  0.56540  0.42340  Biso   1.000  H
  O31      1.0000 0.83975  0.83980  0.38029  Biso   1.000  O
  H96      1.0000 0.87500  0.62891  0.49060  Biso   1.000  H
  O32      1.0000 0.60162  0.62820  0.54660  Biso   1.000  O
