data_image0
_cell_length_a       20.59
_cell_length_b       20.59
_cell_length_c       24.977
_cell_angle_alpha    90
_cell_angle_beta     90
_cell_angle_gamma    120

_symmetry_space_group_name_H-M    "P 1"
_symmetry_int_tables_number       1

loop_
  _symmetry_equiv_pos_as_xyz
  'x, y, z'

loop_
  _atom_site_label
  _atom_site_occupancy
  _atom_site_fract_x
  _atom_site_fract_y
  _atom_site_fract_z
  _atom_site_thermal_displace_type
  _atom_site_B_iso_or_equiv
  _atom_site_type_symbol
  N1       1.0000 0.55377  0.48442  0.60544  Biso   1.000  N
  C1       1.0000 0.58540  0.44141  0.60872  Biso   1.000  C
  C2       1.0000 0.54813  0.50927  0.65268  Biso   1.000  C
  O1       1.0000 0.59218  0.41427  0.56164  Biso   1.000  O
  N2       1.0000 0.60690  0.42167  0.65260  Biso   1.000  N
  Cl1      1.0000 0.50823  0.56625  0.65324  Biso   1.000  Cl
  N3       1.0000 0.56750  0.49615  0.70012  Biso   1.000  N
  C3       1.0000 0.62998  0.37294  0.56220  Biso   1.000  C
  C4       1.0000 0.59618  0.45044  0.69672  Biso   1.000  C
  C5       1.0000 0.58799  0.29566  0.56208  Biso   1.000  C
  C6       1.0000 0.70766  0.41202  0.56208  Biso   1.000  C
  O2       1.0000 0.61391  0.43356  0.74408  Biso   1.000  O
  C7       1.0000 0.62708  0.25707  0.56220  Biso   1.000  C
  H1       1.0000 0.53475  0.27008  0.56188  Biso   1.000  H
  C8       1.0000 0.74295  0.37002  0.56220  Biso   1.000  C
  H2       1.0000 0.73534  0.46525  0.56188  Biso   1.000  H
  C9       1.0000 0.64077  0.38208  0.74376  Biso   1.000  C
  O3       1.0000 0.58572  0.17794  0.56164  Biso   1.000  O
  C10      1.0000 0.70436  0.29235  0.56208  Biso   1.000  C
  O4       1.0000 0.82207  0.40782  0.56164  Biso   1.000  O
  C11      1.0000 0.58916  0.30654  0.74392  Biso   1.000  C
  C12      1.0000 0.71737  0.41085  0.74392  Biso   1.000  C
  C13      1.0000 0.55857  0.14396  0.60872  Biso   1.000  C
  H3       1.0000 0.72994  0.26464  0.56188  Biso   1.000  H
  C14      1.0000 0.85602  0.41460  0.60872  Biso   1.000  C
  C15      1.0000 0.61789  0.25870  0.74376  Biso   1.000  C
  H4       1.0000 0.53675  0.28837  0.74416  Biso   1.000  H
  C16      1.0000 0.74128  0.35920  0.74376  Biso   1.000  C
  H5       1.0000 0.75165  0.46328  0.74416  Biso   1.000  H
  N4       1.0000 0.51557  0.06932  0.60544  Biso   1.000  N
  N5       1.0000 0.57829  0.18523  0.65260  Biso   1.000  N
  N6       1.0000 0.93064  0.44623  0.60544  Biso   1.000  N
  N7       1.0000 0.81475  0.39307  0.65260  Biso   1.000  N
  O5       1.0000 0.56648  0.18036  0.74408  Biso   1.000  O
  C17      1.0000 0.69346  0.28259  0.74392  Biso   1.000  C
  O6       1.0000 0.81962  0.38612  0.74408  Biso   1.000  O
  C18      1.0000 0.49073  0.03886  0.65268  Biso   1.000  C
  C19      1.0000 0.54956  0.14575  0.69672  Biso   1.000  C
  C20      1.0000 0.96116  0.45190  0.65268  Biso   1.000  C
  C21      1.0000 0.85427  0.40384  0.69672  Biso   1.000  C
  H6       1.0000 0.71166  0.24838  0.74416  Biso   1.000  H
  N8       1.0000 0.50386  0.07133  0.70012  Biso   1.000  N
  Cl2      1.0000 0.43376  0.94201  0.65324  Biso   1.000  Cl
  N9       1.0000 0.92863  0.43249  0.70012  Biso   1.000  N
  Cl3      1.0000 0.05803  0.49177  0.65324  Biso   1.000  Cl
  N10      1.0000 0.44624  0.51561  0.39456  Biso   1.000  N
  C22      1.0000 0.45189  0.49076  0.34732  Biso   1.000  C
  C23      1.0000 0.41459  0.55856  0.39128  Biso   1.000  C
  N11      1.0000 0.43249  0.50383  0.29988  Biso   1.000  N
  Cl4      1.0000 0.49175  0.43373  0.34680  Biso   1.000  Cl
  N12      1.0000 0.39309  0.57830  0.34740  Biso   1.000  N
  O7       1.0000 0.40781  0.58571  0.43840  Biso   1.000  O
  C24      1.0000 0.40384  0.54959  0.30332  Biso   1.000  C
  C25      1.0000 0.37003  0.62709  0.43780  Biso   1.000  C
  O8       1.0000 0.38610  0.56647  0.25592  Biso   1.000  O
  C26      1.0000 0.41202  0.70437  0.43796  Biso   1.000  C
  C27      1.0000 0.29235  0.58801  0.43796  Biso   1.000  C
  C28      1.0000 0.35922  0.61790  0.25624  Biso   1.000  C
  C29      1.0000 0.37291  0.74290  0.43780  Biso   1.000  C
  H7       1.0000 0.46526  0.72995  0.43812  Biso   1.000  H
  C30      1.0000 0.25706  0.63001  0.43780  Biso   1.000  C
  H8       1.0000 0.26464  0.53473  0.43812  Biso   1.000  H
  C31      1.0000 0.41083  0.69344  0.25608  Biso   1.000  C
  C32      1.0000 0.28262  0.58913  0.25608  Biso   1.000  C
  O9       1.0000 0.41430  0.82209  0.43840  Biso   1.000  O
  C33      1.0000 0.29563  0.70763  0.43796  Biso   1.000  C
  O10      1.0000 0.17794  0.59221  0.43840  Biso   1.000  O
  C34      1.0000 0.38210  0.74127  0.25624  Biso   1.000  C
  H9       1.0000 0.46323  0.71161  0.25584  Biso   1.000  H
  C35      1.0000 0.25871  0.64078  0.25624  Biso   1.000  C
  H10      1.0000 0.24836  0.53675  0.25584  Biso   1.000  H
  C36      1.0000 0.44141  0.85602  0.39128  Biso   1.000  C
  H11      1.0000 0.27004  0.73533  0.43812  Biso   1.000  H
  C37      1.0000 0.14397  0.58537  0.39128  Biso   1.000  C
  O11      1.0000 0.43351  0.81962  0.25592  Biso   1.000  O
  C38      1.0000 0.30653  0.71738  0.25608  Biso   1.000  C
  O12      1.0000 0.18039  0.61391  0.25592  Biso   1.000  O
  N13      1.0000 0.42170  0.81474  0.34740  Biso   1.000  N
  N14      1.0000 0.48442  0.93066  0.39456  Biso   1.000  N
  N15      1.0000 0.18527  0.60696  0.34740  Biso   1.000  N
  N16      1.0000 0.06934  0.55374  0.39456  Biso   1.000  N
  C39      1.0000 0.45045  0.85428  0.30332  Biso   1.000  C
  H12      1.0000 0.28835  0.75165  0.25584  Biso   1.000  H
  C40      1.0000 0.14571  0.59614  0.30332  Biso   1.000  C
  C41      1.0000 0.50926  0.96111  0.34732  Biso   1.000  C
  C42      1.0000 0.03885  0.54813  0.34732  Biso   1.000  C
  N17      1.0000 0.49613  0.92864  0.29988  Biso   1.000  N
  N18      1.0000 0.07138  0.56754  0.29988  Biso   1.000  N
  Cl5      1.0000 0.56623  0.05796  0.34680  Biso   1.000  Cl
  Cl6      1.0000 0.94199  0.50826  0.34680  Biso   1.000  Cl
  C43      1.0000 0.62899  0.37434  0.10462  Biso   1.000  C
  C44      1.0000 0.59039  0.29667  0.10446  Biso   1.000  C
  C45      1.0000 0.70626  0.40961  0.10446  Biso   1.000  C
  H13      1.0000 0.60337  0.40199  0.10482  Biso   1.000  H
  O13      1.0000 0.51127  0.25887  0.10506  Biso   1.000  O
  C46      1.0000 0.62568  0.25466  0.10462  Biso   1.000  C
  O14      1.0000 0.74763  0.48874  0.10506  Biso   1.000  O
  C47      1.0000 0.74535  0.37103  0.10462  Biso   1.000  C
  C48      1.0000 0.47733  0.25208  0.05793  Biso   1.000  C
  C49      1.0000 0.70336  0.29375  0.10446  Biso   1.000  C
  H14      1.0000 0.59797  0.20139  0.10482  Biso   1.000  H
  C50      1.0000 0.77474  0.52267  0.05793  Biso   1.000  C
  H15      1.0000 0.79859  0.39660  0.10482  Biso   1.000  H
  N19      1.0000 0.40267  0.22040  0.06126  Biso   1.000  N
  N20      1.0000 0.51860  0.27362  0.01405  Biso   1.000  N
  O15      1.0000 0.74114  0.25236  0.10506  Biso   1.000  O
  N21      1.0000 0.81774  0.59731  0.06126  Biso   1.000  N
  N22      1.0000 0.75503  0.48140  0.01405  Biso   1.000  N
  C51      1.0000 0.37218  0.21479  0.01397  Biso   1.000  C
  C52      1.0000 0.47907  0.26285  0.96997  Biso   1.000  C
  C53      1.0000 0.74795  0.22528  0.05793  Biso   1.000  C
  C54      1.0000 0.84261  0.62782  0.01397  Biso   1.000  C
  C55      1.0000 0.78378  0.52093  0.96997  Biso   1.000  C
  Cl7      1.0000 0.27532  0.17492  0.01345  Biso   1.000  Cl
  N23      1.0000 0.40471  0.23419  0.96653  Biso   1.000  N
  O16      1.0000 0.51372  0.28057  0.92261  Biso   1.000  O
  N24      1.0000 0.77957  0.18226  0.06126  Biso   1.000  N
  N25      1.0000 0.72641  0.24496  0.01405  Biso   1.000  N
  N26      1.0000 0.82946  0.59530  0.96653  Biso   1.000  N
  Cl8      1.0000 0.89959  0.72467  0.01345  Biso   1.000  Cl
  O17      1.0000 0.76687  0.48633  0.92261  Biso   1.000  O
  C56      1.0000 0.59206  0.30749  0.92293  Biso   1.000  C
  C57      1.0000 0.78522  0.15742  0.01397  Biso   1.000  C
  C58      1.0000 0.73717  0.21625  0.96997  Biso   1.000  C
  C59      1.0000 0.71546  0.40799  0.92293  Biso   1.000  C
  C60      1.0000 0.63986  0.38404  0.92277  Biso   1.000  C
  C61      1.0000 0.61594  0.25578  0.92277  Biso   1.000  C
  N27      1.0000 0.76582  0.17049  0.96653  Biso   1.000  N
  Cl9      1.0000 0.82508  0.10038  0.01345  Biso   1.000  Cl
  O18      1.0000 0.71943  0.23313  0.92261  Biso   1.000  O
  C62      1.0000 0.74418  0.36015  0.92277  Biso   1.000  C
  H16      1.0000 0.62168  0.41831  0.92249  Biso   1.000  H
  C63      1.0000 0.69254  0.28455  0.92293  Biso   1.000  C
  H17      1.0000 0.58169  0.20340  0.92249  Biso   1.000  H
  H18      1.0000 0.79659  0.37832  0.92249  Biso   1.000  H
  C64      1.0000 0.37103  0.62569  0.89538  Biso   1.000  C
  C65      1.0000 0.29375  0.59042  0.89554  Biso   1.000  C
  C66      1.0000 0.40959  0.70331  0.89554  Biso   1.000  C
  H19      1.0000 0.39661  0.59799  0.89522  Biso   1.000  H
  O19      1.0000 0.25236  0.51123  0.89494  Biso   1.000  O
  C67      1.0000 0.25464  0.62894  0.89538  Biso   1.000  C
  C68      1.0000 0.37434  0.74537  0.89538  Biso   1.000  C
  O20      1.0000 0.48875  0.74116  0.89494  Biso   1.000  O
  C69      1.0000 0.22525  0.47730  0.94207  Biso   1.000  C
  C70      1.0000 0.29666  0.70628  0.89554  Biso   1.000  C
  H20      1.0000 0.20142  0.60343  0.89522  Biso   1.000  H
  H21      1.0000 0.40201  0.79859  0.89522  Biso   1.000  H
  C71      1.0000 0.52269  0.74795  0.94207  Biso   1.000  C
  N28      1.0000 0.18224  0.40266  0.93878  Biso   1.000  N
  N29      1.0000 0.24496  0.51858  0.98595  Biso   1.000  N
  O21      1.0000 0.25885  0.74761  0.89494  Biso   1.000  O
  N30      1.0000 0.59732  0.77958  0.93878  Biso   1.000  N
  N31      1.0000 0.48142  0.72641  0.98595  Biso   1.000  N
  C72      1.0000 0.15740  0.37221  0.98603  Biso   1.000  C
  C73      1.0000 0.21624  0.47910  0.03003  Biso   1.000  C
  C74      1.0000 0.25207  0.77475  0.94207  Biso   1.000  C
  C75      1.0000 0.62780  0.78519  0.98603  Biso   1.000  C
  C76      1.0000 0.52095  0.73718  0.03003  Biso   1.000  C
  Cl10     1.0000 0.10040  0.27530  0.98655  Biso   1.000  Cl
  N32      1.0000 0.17053  0.40468  0.03347  Biso   1.000  N
  O22      1.0000 0.23315  0.51370  0.07739  Biso   1.000  O
  N33      1.0000 0.22044  0.81777  0.93878  Biso   1.000  N
  N34      1.0000 0.27357  0.75501  0.98595  Biso   1.000  N
  Cl11     1.0000 0.72467  0.82506  0.98655  Biso   1.000  Cl
  N35      1.0000 0.59530  0.76584  0.03347  Biso   1.000  N
  O23      1.0000 0.48630  0.71946  0.07739  Biso   1.000  O
  C77      1.0000 0.28456  0.59204  0.07707  Biso   1.000  C
  C78      1.0000 0.21480  0.84261  0.98603  Biso   1.000  C
  C79      1.0000 0.26282  0.78373  0.03003  Biso   1.000  C
  C80      1.0000 0.40795  0.69254  0.07707  Biso   1.000  C
  C81      1.0000 0.25583  0.63988  0.07723  Biso   1.000  C
  C82      1.0000 0.36013  0.61593  0.07723  Biso   1.000  C
  Cl12     1.0000 0.17490  0.89959  0.98655  Biso   1.000  Cl
  N36      1.0000 0.23417  0.82949  0.03347  Biso   1.000  N
  O24      1.0000 0.28056  0.76685  0.07739  Biso   1.000  O
  C83      1.0000 0.38404  0.74419  0.07723  Biso   1.000  C
  C84      1.0000 0.30744  0.71542  0.07707  Biso   1.000  C
  H22      1.0000 0.20342  0.62171  0.07751  Biso   1.000  H
  H23      1.0000 0.37833  0.58172  0.07751  Biso   1.000  H
  H24      1.0000 0.41832  0.79663  0.07751  Biso   1.000  H
  C85      1.0000 0.88145  0.17592  0.31933  Biso   1.000  C
  Cl13     1.0000 0.84159  0.23296  0.31989  Biso   1.000  Cl
  N37      1.0000 0.88710  0.15108  0.27209  Biso   1.000  N
  N38      1.0000 0.90083  0.16280  0.36678  Biso   1.000  N
  C86      1.0000 0.91873  0.10807  0.27541  Biso   1.000  C
  C87      1.0000 0.92950  0.11710  0.36337  Biso   1.000  C
  O25      1.0000 0.92550  0.08092  0.22829  Biso   1.000  O
  N39      1.0000 0.94023  0.08833  0.31925  Biso   1.000  N
  O26      1.0000 0.94724  0.10022  0.41074  Biso   1.000  O
  C88      1.0000 0.96331  0.03959  0.22889  Biso   1.000  C
  C89      1.0000 0.97413  0.04879  0.41042  Biso   1.000  C
  C90      1.0000 0.92132  0.96231  0.22873  Biso   1.000  C
  C91      1.0000 0.04099  0.07868  0.22873  Biso   1.000  C
  C92      1.0000 0.92252  0.97325  0.41058  Biso   1.000  C
  C93      1.0000 0.05070  0.07750  0.41058  Biso   1.000  C
  C94      1.0000 0.96044  0.92379  0.22889  Biso   1.000  C
  H25      1.0000 0.86808  0.93674  0.22853  Biso   1.000  H
  C95      1.0000 0.07628  0.03668  0.22889  Biso   1.000  C
  H26      1.0000 0.06870  0.13196  0.22853  Biso   1.000  H
  C96      1.0000 0.95124  0.92541  0.41042  Biso   1.000  C
  H27      1.0000 0.87011  0.95508  0.41082  Biso   1.000  H
  C97      1.0000 0.07461  0.02585  0.41042  Biso   1.000  C
  H28      1.0000 0.08498  0.12994  0.41082  Biso   1.000  H
  O27      1.0000 0.91905  0.84460  0.22829  Biso   1.000  O
  C98      1.0000 0.03771  0.95906  0.22873  Biso   1.000  C
  O28      1.0000 0.15540  0.07448  0.22829  Biso   1.000  O
  O29      1.0000 0.89983  0.84707  0.41074  Biso   1.000  O
  C99      1.0000 0.02681  0.94930  0.41058  Biso   1.000  C
  O30      1.0000 0.15295  0.05277  0.41074  Biso   1.000  O
  C100     1.0000 0.89193  0.81067  0.27541  Biso   1.000  C
  H29      1.0000 0.06330  0.93136  0.22853  Biso   1.000  H
  C101     1.0000 0.18934  0.08126  0.27541  Biso   1.000  C
  C102     1.0000 0.88292  0.81247  0.36337  Biso   1.000  C
  H30      1.0000 0.04499  0.91504  0.41082  Biso   1.000  H
  C103     1.0000 0.18760  0.07049  0.36337  Biso   1.000  C
  N40      1.0000 0.84893  0.73603  0.27209  Biso   1.000  N
  N41      1.0000 0.91165  0.85195  0.31925  Biso   1.000  N
  N42      1.0000 0.26400  0.11295  0.27209  Biso   1.000  N
  N43      1.0000 0.14808  0.05973  0.31925  Biso   1.000  N
  N44      1.0000 0.83721  0.73805  0.36678  Biso   1.000  N
  N45      1.0000 0.26196  0.09915  0.36678  Biso   1.000  N
  C104     1.0000 0.82409  0.70558  0.31933  Biso   1.000  C
  C105     1.0000 0.29449  0.11855  0.31933  Biso   1.000  C
  Cl14     1.0000 0.76708  0.60867  0.31989  Biso   1.000  Cl
  Cl15     1.0000 0.39136  0.15843  0.31989  Biso   1.000  Cl
  C106     1.0000 0.11853  0.82405  0.68067  Biso   1.000  C
  N46      1.0000 0.09916  0.83717  0.63322  Biso   1.000  N
  Cl16     1.0000 0.15843  0.76707  0.68011  Biso   1.000  Cl
  N47      1.0000 0.11292  0.84895  0.72791  Biso   1.000  N
  C107     1.0000 0.07051  0.88293  0.63663  Biso   1.000  C
  C108     1.0000 0.08126  0.89191  0.72463  Biso   1.000  C
  O31      1.0000 0.05277  0.89981  0.58926  Biso   1.000  O
  N48      1.0000 0.05976  0.91165  0.68075  Biso   1.000  N
  O32      1.0000 0.07448  0.91905  0.77171  Biso   1.000  O
  C109     1.0000 0.02589  0.95124  0.58958  Biso   1.000  C
  C110     1.0000 0.03667  0.96038  0.77115  Biso   1.000  C
  C111     1.0000 0.94929  0.92247  0.58942  Biso   1.000  C
  C112     1.0000 0.07750  0.02678  0.58942  Biso   1.000  C
  C113     1.0000 0.95900  0.92129  0.77127  Biso   1.000  C
  C114     1.0000 0.07866  0.03766  0.77127  Biso   1.000  C
  C115     1.0000 0.92538  0.97412  0.58958  Biso   1.000  C
  H31      1.0000 0.91504  0.87009  0.58918  Biso   1.000  H
  C116     1.0000 0.04877  0.07462  0.58958  Biso   1.000  C
  H32      1.0000 0.12991  0.04495  0.58918  Biso   1.000  H
  C117     1.0000 0.92374  0.96335  0.77115  Biso   1.000  C
  H33      1.0000 0.93132  0.86807  0.77147  Biso   1.000  H
  C118     1.0000 0.03958  0.07624  0.77115  Biso   1.000  C
  H34      1.0000 0.13191  0.06323  0.77147  Biso   1.000  H
  O33      1.0000 0.84703  0.94720  0.58926  Biso   1.000  O
  C119     1.0000 0.97320  0.05073  0.58942  Biso   1.000  C
  O34      1.0000 0.10018  0.15296  0.58926  Biso   1.000  O
  O35      1.0000 0.84459  0.92550  0.77171  Biso   1.000  O
  C120     1.0000 0.96230  0.04097  0.77127  Biso   1.000  C
  O36      1.0000 0.08094  0.15537  0.77171  Biso   1.000  O
  C121     1.0000 0.81238  0.92948  0.63663  Biso   1.000  C
  H35      1.0000 0.95500  0.08494  0.58918  Biso   1.000  H
  C122     1.0000 0.11709  0.18756  0.63663  Biso   1.000  C
  C123     1.0000 0.81064  0.91871  0.72463  Biso   1.000  C
  H36      1.0000 0.93669  0.06862  0.77147  Biso   1.000  H
  C124     1.0000 0.10808  0.18936  0.72463  Biso   1.000  C
  N49      1.0000 0.85191  0.94025  0.68075  Biso   1.000  N
  N50      1.0000 0.73803  0.90082  0.63322  Biso   1.000  N
  N51      1.0000 0.08837  0.14808  0.68075  Biso   1.000  N
  N52      1.0000 0.16277  0.26193  0.63322  Biso   1.000  N
  N53      1.0000 0.73601  0.88708  0.72791  Biso   1.000  N
  N54      1.0000 0.15106  0.26395  0.72791  Biso   1.000  N
  C125     1.0000 0.70553  0.88148  0.68067  Biso   1.000  C
  C126     1.0000 0.17593  0.29445  0.68067  Biso   1.000  C
  Cl17     1.0000 0.60866  0.84160  0.68011  Biso   1.000  Cl
  Cl18     1.0000 0.23290  0.39130  0.68011  Biso   1.000  Cl
