data_image0
_cell_length_a       15.187
_cell_length_b       18.559
_cell_length_c       29.501
_cell_angle_alpha    90
_cell_angle_beta     90
_cell_angle_gamma    90

_symmetry_space_group_name_H-M    "P 1"
_symmetry_int_tables_number       1

loop_
  _symmetry_equiv_pos_as_xyz
  'x, y, z'

loop_
  _atom_site_label
  _atom_site_occupancy
  _atom_site_fract_x
  _atom_site_fract_y
  _atom_site_fract_z
  _atom_site_thermal_displace_type
  _atom_site_B_iso_or_equiv
  _atom_site_type_symbol
  O1       1.0000 0.47053  0.51926  0.51510  Biso   1.000  O
  C1       1.0000 0.51906  0.45530  0.50493  Biso   1.000  C
  H1       1.0000 0.50431  0.55057  0.52408  Biso   1.000  H
  C2       1.0000 0.58069  0.46781  0.46548  Biso   1.000  C
  C3       1.0000 0.45427  0.39636  0.49347  Biso   1.000  C
  H2       1.0000 0.55337  0.44097  0.53161  Biso   1.000  H
  C4       1.0000 0.62514  0.39824  0.45049  Biso   1.000  C
  H3       1.0000 0.54612  0.48639  0.43999  Biso   1.000  H
  O2       1.0000 0.64496  0.52050  0.47734  Biso   1.000  O
  O3       1.0000 0.50082  0.33218  0.48303  Biso   1.000  O
  O4       1.0000 0.40133  0.41829  0.45700  Biso   1.000  O
  H4       1.0000 0.41661  0.38747  0.51991  Biso   1.000  H
  O5       1.0000 0.66379  0.41322  0.40775  Biso   1.000  O
  H5       1.0000 0.67051  0.38407  0.47239  Biso   1.000  H
  C5       1.0000 0.55798  0.33763  0.44470  Biso   1.000  C
  H6       1.0000 0.68387  0.52869  0.45551  Biso   1.000  H
  C6       1.0000 0.30763  0.40573  0.46083  Biso   1.000  C
  C7       1.0000 0.75538  0.40498  0.40172  Biso   1.000  C
  H7       1.0000 0.52268  0.34679  0.41751  Biso   1.000  H
  C8       1.0000 0.60308  0.26440  0.44019  Biso   1.000  C
  C9       1.0000 0.26312  0.47858  0.46066  Biso   1.000  C
  C10      1.0000 0.27570  0.36133  0.42093  Biso   1.000  C
  H8       1.0000 0.29473  0.38052  0.48920  Biso   1.000  H
  C11      1.0000 0.78995  0.47330  0.37877  Biso   1.000  C
  O6       1.0000 0.77362  0.34436  0.37416  Biso   1.000  O
  H9       1.0000 0.78389  0.39911  0.43131  Biso   1.000  H
  H10      1.0000 0.64707  0.26618  0.41639  Biso   1.000  H
  H11      1.0000 0.63212  0.25190  0.46839  Biso   1.000  H
  O7       1.0000 0.53855  0.21246  0.42961  Biso   1.000  O
  C12      1.0000 0.16389  0.46791  0.46276  Biso   1.000  C
  H12      1.0000 0.27807  0.50391  0.43260  Biso   1.000  H
  O8       1.0000 0.28985  0.52109  0.49832  Biso   1.000  O
  O9       1.0000 0.18180  0.35411  0.42307  Biso   1.000  O
  H13      1.0000 0.29189  0.38569  0.39270  Biso   1.000  H
  C13      1.0000 0.31000  0.28520  0.41992  Biso   1.000  C
  C14      1.0000 0.74847  0.48181  0.33270  Biso   1.000  C
  H14      1.0000 0.85389  0.46937  0.37521  Biso   1.000  H
  O10      1.0000 0.77046  0.53500  0.40609  Biso   1.000  O
  C15      1.0000 0.73234  0.34695  0.33040  Biso   1.000  C
  H15      1.0000 0.51669  0.17382  0.41249  Biso   1.000  H
  C16      1.0000 0.13551  0.41877  0.42321  Biso   1.000  C
  H16      1.0000 0.14993  0.44307  0.49120  Biso   1.000  H
  O11      1.0000 0.11721  0.53252  0.46198  Biso   1.000  O
  H17      1.0000 0.34378  0.52190  0.49971  Biso   1.000  H
  H18      1.0000 0.29058  0.26171  0.39229  Biso   1.000  H
  H19      1.0000 0.37387  0.28590  0.41988  Biso   1.000  H
  O12      1.0000 0.27938  0.24576  0.45809  Biso   1.000  O
  C17      1.0000 0.76230  0.41425  0.30507  Biso   1.000  C
  H20      1.0000 0.68506  0.49000  0.33640  Biso   1.000  H
  O13      1.0000 0.78600  0.54195  0.30992  Biso   1.000  O
  H21      1.0000 0.80839  0.53947  0.42571  Biso   1.000  H
  H22      1.0000 0.66827  0.34910  0.33450  Biso   1.000  H
  C18      1.0000 0.75558  0.27685  0.30735  Biso   1.000  C
  O14      1.0000 0.14802  0.45778  0.38256  Biso   1.000  O
  H23      1.0000 0.07263  0.40810  0.42649  Biso   1.000  H
  H24      1.0000 0.12899  0.55461  0.43870  Biso   1.000  H
  H25      1.0000 0.31323  0.25179  0.47941  Biso   1.000  H
  O15      1.0000 0.71245  0.42432  0.26430  Biso   1.000  O
  H26      1.0000 0.82478  0.40961  0.29741  Biso   1.000  H
  H27      1.0000 0.78047  0.53677  0.28250  Biso   1.000  H
  H28      1.0000 0.73767  0.23697  0.32650  Biso   1.000  H
  H29      1.0000 0.72318  0.27318  0.27911  Biso   1.000  H
  O16      1.0000 0.84651  0.27114  0.29826  Biso   1.000  O
  C19      1.0000 0.07197  0.47368  0.35619  Biso   1.000  C
  C20      1.0000 0.75064  0.40099  0.22352  Biso   1.000  C
  H30      1.0000 0.85402  0.26348  0.27121  Biso   1.000  H
  C21      1.0000 0.08316  0.55008  0.33833  Biso   1.000  C
  C22      1.0000 0.06242  0.42023  0.31724  Biso   1.000  C
  H31      1.0000 0.01962  0.47142  0.37551  Biso   1.000  H
  C23      1.0000 0.75769  0.46446  0.19081  Biso   1.000  C
  O17      1.0000 0.70020  0.34538  0.20457  Biso   1.000  O
  H32      1.0000 0.80990  0.38267  0.22979  Biso   1.000  H
  C24      1.0000 0.00658  0.56781  0.30650  Biso   1.000  C
  H33      1.0000 0.13861  0.55321  0.32141  Biso   1.000  H
  O18      1.0000 0.08527  0.60025  0.37494  Biso   1.000  O
  O19      1.0000 0.98881  0.44140  0.28996  Biso   1.000  O
  H34      1.0000 0.11582  0.42201  0.29860  Biso   1.000  H
  C25      1.0000 0.04682  0.34371  0.33168  Biso   1.000  C
  C26      1.0000 0.66787  0.48774  0.17379  Biso   1.000  C
  H35      1.0000 0.79331  0.44959  0.16471  Biso   1.000  H
  O20      1.0000 0.80240  0.52180  0.21362  Biso   1.000  O
  C27      1.0000 0.61144  0.36678  0.19321  Biso   1.000  C
  C28      1.0000 0.99737  0.50983  0.27030  Biso   1.000  C
  O21      1.0000 0.01870  0.63597  0.28596  Biso   1.000  O
  H36      1.0000 0.95220  0.56921  0.32429  Biso   1.000  H
  H37      1.0000 0.09462  0.57869  0.39870  Biso   1.000  H
  H38      1.0000 0.03839  0.31392  0.30501  Biso   1.000  H
  H39      1.0000 0.09818  0.32610  0.34768  Biso   1.000  H
  O22      1.0000 0.97103  0.33757  0.36043  Biso   1.000  O
  C29      1.0000 0.61684  0.42308  0.15644  Biso   1.000  C
  H40      1.0000 0.63508  0.50962  0.19891  Biso   1.000  H
  O23      1.0000 0.68019  0.54022  0.13939  Biso   1.000  O
  H41      1.0000 0.79726  0.55908  0.19891  Biso   1.000  H
  H42      1.0000 0.58412  0.38838  0.21999  Biso   1.000  H
  C30      1.0000 0.56028  0.30012  0.18033  Biso   1.000  C
  O24      1.0000 0.07263  0.51366  0.24206  Biso   1.000  O
  H43      1.0000 0.94476  0.52002  0.25209  Biso   1.000  H
  H44      1.0000 0.97090  0.65187  0.27769  Biso   1.000  H
  H45      1.0000 0.93060  0.31882  0.34629  Biso   1.000  H
  O25      1.0000 0.53111  0.44873  0.14416  Biso   1.000  O
  H46      1.0000 0.64641  0.40299  0.12969  Biso   1.000  H
  H47      1.0000 0.63317  0.54809  0.12661  Biso   1.000  H
  H48      1.0000 0.56706  0.26429  0.20399  Biso   1.000  H
  H49      1.0000 0.49832  0.31219  0.17830  Biso   1.000  H
  O26      1.0000 0.58767  0.27038  0.13891  Biso   1.000  O
  C31      1.0000 0.06130  0.51086  0.19410  Biso   1.000  C
  C32      1.0000 0.50135  0.43424  0.10010  Biso   1.000  C
  H50      1.0000 0.57431  0.29759  0.11810  Biso   1.000  H
  C33      1.0000 0.10911  0.57649  0.17494  Biso   1.000  C
  C34      1.0000 0.10101  0.44081  0.17633  Biso   1.000  C
  H51      1.0000 0.99862  0.51317  0.18650  Biso   1.000  H
  O27      1.0000 0.43392  0.38262  0.09986  Biso   1.000  O
  C35      1.0000 0.46777  0.50471  0.07929  Biso   1.000  C
  H52      1.0000 0.55080  0.41629  0.08190  Biso   1.000  H
  C36      1.0000 0.11971  0.57142  0.12454  Biso   1.000  C
  H53      1.0000 0.16771  0.57907  0.18871  Biso   1.000  H
  O28      1.0000 0.06058  0.63974  0.18755  Biso   1.000  O
  O29      1.0000 0.10970  0.44221  0.12833  Biso   1.000  O
  H54      1.0000 0.15987  0.43537  0.18949  Biso   1.000  H
  C37      1.0000 0.04780  0.37427  0.18816  Biso   1.000  C
  C38      1.0000 0.35787  0.40320  0.12644  Biso   1.000  C
  C39      1.0000 0.38717  0.53069  0.10440  Biso   1.000  C
  H55      1.0000 0.45150  0.49561  0.04769  Biso   1.000  H
  O30      1.0000 0.53434  0.55827  0.08020  Biso   1.000  O
  C40      1.0000 0.16218  0.49965  0.11217  Biso   1.000  C
  H56      1.0000 0.06137  0.57390  0.11040  Biso   1.000  H
  O31      1.0000 0.17238  0.62810  0.10722  Biso   1.000  O
  H57      1.0000 0.09462  0.67369  0.19060  Biso   1.000  H
  H58      1.0000 0.07678  0.33181  0.17610  Biso   1.000  H
  H59      1.0000 0.04418  0.36931  0.22081  Biso   1.000  H
  O32      1.0000 0.96174  0.37987  0.16969  Biso   1.000  O
  C41      1.0000 0.29558  0.33989  0.12430  Biso   1.000  C
  C42      1.0000 0.31863  0.47142  0.10522  Biso   1.000  C
  H60      1.0000 0.37519  0.41247  0.15789  Biso   1.000  H
  H61      1.0000 0.40357  0.54308  0.13559  Biso   1.000  H
  O33      1.0000 0.35188  0.59292  0.08251  Biso   1.000  O
  H62      1.0000 0.58260  0.53888  0.08271  Biso   1.000  H
  O34      1.0000 0.24633  0.49782  0.13233  Biso   1.000  O
  H63      1.0000 0.16797  0.49609  0.07918  Biso   1.000  H
  H64      1.0000 0.14131  0.65639  0.09312  Biso   1.000  H
  H65      1.0000 0.96510  0.38881  0.14250  Biso   1.000  H
  O35      1.0000 0.34187  0.27825  0.14162  Biso   1.000  O
  H66      1.0000 0.24363  0.34937  0.14250  Biso   1.000  H
  H67      1.0000 0.27721  0.33138  0.09328  Biso   1.000  H
  H68      1.0000 0.29828  0.46118  0.07440  Biso   1.000  H
  H69      1.0000 0.39047  0.62358  0.08000  Biso   1.000  H
  H70      1.0000 0.30776  0.24419  0.14379  Biso   1.000  H
  C43      1.0000 0.33785  0.50035  0.61215  Biso   1.000  C
  O36      1.0000 0.25370  0.50218  0.63235  Biso   1.000  O
  H71      1.0000 0.33199  0.50391  0.57920  Biso   1.000  H
  C44      1.0000 0.38033  0.42858  0.62452  Biso   1.000  C
  O37      1.0000 0.39033  0.55779  0.62832  Biso   1.000  O
  C45      1.0000 0.18141  0.52858  0.60523  Biso   1.000  C
  H72      1.0000 0.43860  0.42610  0.61039  Biso   1.000  H
  O38      1.0000 0.32758  0.37190  0.60723  Biso   1.000  O
  C46      1.0000 0.39086  0.42351  0.67493  Biso   1.000  C
  C47      1.0000 0.39903  0.55919  0.67632  Biso   1.000  C
  C48      1.0000 0.11279  0.46931  0.60442  Biso   1.000  C
  H73      1.0000 0.20169  0.53877  0.57439  Biso   1.000  H
  C49      1.0000 0.14210  0.59680  0.62642  Biso   1.000  C
  H74      1.0000 0.35873  0.34361  0.59310  Biso   1.000  H
  H75      1.0000 0.33232  0.42087  0.68869  Biso   1.000  H
  O39      1.0000 0.43939  0.36020  0.68754  Biso   1.000  O
  C50      1.0000 0.43866  0.48914  0.69411  Biso   1.000  C
  H76      1.0000 0.34009  0.56458  0.68950  Biso   1.000  H
  C51      1.0000 0.45216  0.62573  0.68815  Biso   1.000  C
  O40      1.0000 0.14809  0.40708  0.58252  Biso   1.000  O
  C52      1.0000 0.03226  0.49529  0.57930  Biso   1.000  C
  H77      1.0000 0.09640  0.45687  0.63561  Biso   1.000  H
  O41      1.0000 0.06604  0.61738  0.59988  Biso   1.000  O
  H78      1.0000 0.12478  0.58748  0.65791  Biso   1.000  H
  C53      1.0000 0.20439  0.66011  0.62428  Biso   1.000  C
  H79      1.0000 0.40541  0.32631  0.69059  Biso   1.000  H
  H80      1.0000 0.50142  0.48677  0.68649  Biso   1.000  H
  O42      1.0000 0.42734  0.48634  0.74208  Biso   1.000  O
  H81      1.0000 0.42319  0.66819  0.67611  Biso   1.000  H
  H82      1.0000 0.45578  0.63069  0.72079  Biso   1.000  H
  O43      1.0000 0.53822  0.62013  0.66971  Biso   1.000  O
  H83      1.0000 0.10950  0.37637  0.58001  Biso   1.000  H
  H84      1.0000 0.04853  0.50439  0.54771  Biso   1.000  H
  C54      1.0000 0.99862  0.56576  0.60008  Biso   1.000  C
  O44      1.0000 0.96569  0.44173  0.58022  Biso   1.000  O
  H85      1.0000 0.25640  0.65057  0.64249  Biso   1.000  H
  H86      1.0000 0.22282  0.66857  0.59330  Biso   1.000  H
  O45      1.0000 0.15810  0.72175  0.64161  Biso   1.000  O
  C55      1.0000 0.50267  0.49017  0.77031  Biso   1.000  C
  H87      1.0000 0.53487  0.61119  0.64249  Biso   1.000  H
  O46      1.0000 0.96885  0.55127  0.64418  Biso   1.000  O
  H88      1.0000 0.94917  0.58371  0.58191  Biso   1.000  H
  H89      1.0000 0.91736  0.46107  0.58269  Biso   1.000  H
  H90      1.0000 0.19220  0.75581  0.64381  Biso   1.000  H
  H91      1.0000 0.55521  0.47998  0.75211  Biso   1.000  H
  C56      1.0000 0.49338  0.43219  0.80648  Biso   1.000  C
  O47      1.0000 0.51123  0.55860  0.78994  Biso   1.000  O
  C57      1.0000 0.88312  0.57692  0.65645  Biso   1.000  C
  H92      1.0000 0.54777  0.43079  0.82431  Biso   1.000  H
  O48      1.0000 0.48127  0.36403  0.78594  Biso   1.000  O
  C58      1.0000 0.41680  0.44992  0.83834  Biso   1.000  C
  C59      1.0000 0.43761  0.57977  0.81726  Biso   1.000  C
  C60      1.0000 0.83216  0.51220  0.67377  Biso   1.000  C
  H93      1.0000 0.85356  0.59701  0.62971  Biso   1.000  H
  C61      1.0000 0.88859  0.63317  0.69320  Biso   1.000  C
  H94      1.0000 0.52907  0.34808  0.77770  Biso   1.000  H
  H95      1.0000 0.36143  0.44679  0.82140  Biso   1.000  H
  O49      1.0000 0.41470  0.39975  0.87495  Biso   1.000  O
  C62      1.0000 0.42800  0.52632  0.85617  Biso   1.000  C
  H96      1.0000 0.38421  0.57799  0.79858  Biso   1.000  H
  C63      1.0000 0.45322  0.65629  0.83167  Biso   1.000  C
  C64      1.0000 0.74235  0.53548  0.69079  Biso   1.000  C
  H97      1.0000 0.86488  0.49038  0.69889  Biso   1.000  H
  O50      1.0000 0.81978  0.45972  0.63937  Biso   1.000  O
  H98      1.0000 0.91591  0.61162  0.72001  Biso   1.000  H
  O51      1.0000 0.79976  0.65462  0.70459  Biso   1.000  O
  C65      1.0000 0.93969  0.69982  0.68035  Biso   1.000  C
  H99      1.0000 0.40541  0.42131  0.89872  Biso   1.000  H
  H100     1.0000 0.48041  0.52858  0.87550  Biso   1.000  H
  O52      1.0000 0.35195  0.54222  0.88255  Biso   1.000  O
  H101     1.0000 0.46158  0.68608  0.80499  Biso   1.000  H
  H102     1.0000 0.40179  0.67390  0.84770  Biso   1.000  H
  O53      1.0000 0.52894  0.66243  0.86045  Biso   1.000  O
  C66      1.0000 0.74933  0.59901  0.72350  Biso   1.000  C
  H103     1.0000 0.70672  0.55041  0.66469  Biso   1.000  H
  O54      1.0000 0.69757  0.47815  0.71364  Biso   1.000  O
  H104     1.0000 0.86679  0.45191  0.62659  Biso   1.000  H
  H105     1.0000 0.00171  0.68781  0.67832  Biso   1.000  H
  H106     1.0000 0.93290  0.73571  0.70401  Biso   1.000  H
  O55      1.0000 0.91229  0.72962  0.63889  Biso   1.000  O
  C67      1.0000 0.36446  0.58117  0.92322  Biso   1.000  C
  H107     1.0000 0.56937  0.68118  0.84631  Biso   1.000  H
  H108     1.0000 0.69006  0.61727  0.72981  Biso   1.000  H
  O56      1.0000 0.78752  0.57562  0.76431  Biso   1.000  O
  H109     1.0000 0.70271  0.44092  0.69889  Biso   1.000  H
  H110     1.0000 0.92566  0.70241  0.61811  Biso   1.000  H
  H111     1.0000 0.42741  0.59190  0.92651  Biso   1.000  H
  C68      1.0000 0.33608  0.53209  0.96278  Biso   1.000  C
  O57      1.0000 0.31817  0.64583  0.92305  Biso   1.000  O
  C69      1.0000 0.73774  0.58575  0.80506  Biso   1.000  C
  H112     1.0000 0.35010  0.55687  0.99119  Biso   1.000  H
  O58      1.0000 0.38283  0.46748  0.96197  Biso   1.000  O
  C70      1.0000 0.23691  0.52142  0.96068  Biso   1.000  C
  C71      1.0000 0.22427  0.63867  0.92092  Biso   1.000  C
  C72      1.0000 0.75150  0.51819  0.83268  Biso   1.000  C
  H113     1.0000 0.67518  0.59039  0.79740  Biso   1.000  H
  C73      1.0000 0.76770  0.65305  0.83038  Biso   1.000  C
  H114     1.0000 0.37098  0.44539  0.93871  Biso   1.000  H
  H115     1.0000 0.22190  0.49609  0.93261  Biso   1.000  H
  O59      1.0000 0.21011  0.47885  0.99834  Biso   1.000  O
  C74      1.0000 0.19240  0.59427  0.96081  Biso   1.000  C
  H116     1.0000 0.20807  0.61431  0.89272  Biso   1.000  H
  C75      1.0000 0.18997  0.71480  0.91993  Biso   1.000  C
  C76      1.0000 0.71002  0.52664  0.87878  Biso   1.000  C
  H117     1.0000 0.81491  0.51000  0.83641  Biso   1.000  H
  O60      1.0000 0.71397  0.45805  0.80994  Biso   1.000  O
  H118     1.0000 0.83170  0.65090  0.83451  Biso   1.000  H
  O61      1.0000 0.72634  0.65558  0.87417  Biso   1.000  O
  C77      1.0000 0.74439  0.72315  0.80733  Biso   1.000  C
  H119     1.0000 0.15619  0.47810  0.99969  Biso   1.000  H
  O62      1.0000 0.09864  0.58171  0.95702  Biso   1.000  O
  H120     1.0000 0.20531  0.61948  0.98919  Biso   1.000  H
  H121     1.0000 0.20939  0.73829  0.89231  Biso   1.000  H
  H122     1.0000 0.12609  0.71410  0.91990  Biso   1.000  H
  O63      1.0000 0.22058  0.75419  0.95810  Biso   1.000  O
  C78      1.0000 0.74458  0.59497  0.90173  Biso   1.000  C
  H123     1.0000 0.64608  0.53058  0.87519  Biso   1.000  H
  O64      1.0000 0.72951  0.46500  0.90610  Biso   1.000  O
  H124     1.0000 0.71950  0.46317  0.78252  Biso   1.000  H
  H125     1.0000 0.76230  0.76297  0.82651  Biso   1.000  H
  H126     1.0000 0.77678  0.72676  0.77909  Biso   1.000  H
  O65      1.0000 0.65345  0.72886  0.79828  Biso   1.000  O
  C79      1.0000 0.04570  0.60364  0.99349  Biso   1.000  C
  H127     1.0000 0.18680  0.74821  0.97939  Biso   1.000  H
  H128     1.0000 0.71607  0.60089  0.93129  Biso   1.000  H
  O66      1.0000 0.83618  0.58672  0.90777  Biso   1.000  O
  H129     1.0000 0.69158  0.46048  0.92570  Biso   1.000  H
  H130     1.0000 0.64601  0.73646  0.77119  Biso   1.000  H
  C80      1.0000 0.98090  0.54470  0.00492  Biso   1.000  C
  O67      1.0000 0.99914  0.66776  0.98305  Biso   1.000  O
  H131     1.0000 0.08343  0.61248  0.01990  Biso   1.000  H
  C81      1.0000 0.87489  0.60176  0.95051  Biso   1.000  C
  C82      1.0000 0.91934  0.53219  0.96549  Biso   1.000  C
  H132     1.0000 0.94660  0.55897  0.03159  Biso   1.000  H
  O68      1.0000 0.02950  0.48068  0.01508  Biso   1.000  O
  C83      1.0000 0.94199  0.66237  0.94471  Biso   1.000  C
  H133     1.0000 0.82946  0.61587  0.97241  Biso   1.000  H
  H134     1.0000 0.95391  0.51361  0.94000  Biso   1.000  H
  O69      1.0000 0.85507  0.47950  0.97732  Biso   1.000  O
  H135     1.0000 0.99565  0.44938  0.02410  Biso   1.000  H
  H136     1.0000 0.97728  0.65321  0.91749  Biso   1.000  H
  C84      1.0000 0.89689  0.73555  0.94017  Biso   1.000  C
  H137     1.0000 0.81609  0.47131  0.95549  Biso   1.000  H
  H138     1.0000 0.85290  0.73377  0.91641  Biso   1.000  H
  H139     1.0000 0.86791  0.74810  0.96841  Biso   1.000  H
  O70      1.0000 0.96141  0.78754  0.92960  Biso   1.000  O
  H140     1.0000 0.98328  0.82618  0.91251  Biso   1.000  H
  O71      1.0000 0.77942  0.25422  0.54191  Biso   1.000  O
  C85      1.0000 0.80997  0.21477  0.58008  Biso   1.000  C
  H141     1.0000 0.81320  0.24818  0.52059  Biso   1.000  H
  C86      1.0000 0.77573  0.13869  0.57907  Biso   1.000  C
  H142     1.0000 0.79061  0.23832  0.60771  Biso   1.000  H
  H143     1.0000 0.87391  0.21407  0.58012  Biso   1.000  H
  O72      1.0000 0.68183  0.14586  0.57693  Biso   1.000  O
  C87      1.0000 0.80760  0.09429  0.53917  Biso   1.000  C
  H144     1.0000 0.79186  0.11428  0.60730  Biso   1.000  H
  C88      1.0000 0.63548  0.08120  0.57679  Biso   1.000  C
  C89      1.0000 0.76309  0.02139  0.53934  Biso   1.000  C
  O73      1.0000 0.90136  0.08169  0.54300  Biso   1.000  O
  H145     1.0000 0.79469  0.11951  0.51080  Biso   1.000  H
  C90      1.0000 0.66392  0.03211  0.53724  Biso   1.000  C
  H146     1.0000 0.57259  0.09192  0.57351  Biso   1.000  H
  O74      1.0000 0.64805  0.04224  0.61744  Biso   1.000  O
  H147     1.0000 0.77810  0.99607  0.56740  Biso   1.000  H
  O75      1.0000 0.78989  0.97888  0.50168  Biso   1.000  O
  C91      1.0000 0.95430  0.10367  0.50653  Biso   1.000  C
  H148     1.0000 0.64990  0.05690  0.50880  Biso   1.000  H
  O76      1.0000 0.61717  0.96751  0.53802  Biso   1.000  O
  C92      1.0000 0.57200  0.02629  0.64381  Biso   1.000  C
  H149     1.0000 0.84381  0.97807  0.50029  Biso   1.000  H
  H150     1.0000 0.91657  0.11251  0.48009  Biso   1.000  H
  C93      1.0000 0.01903  0.04467  0.49507  Biso   1.000  C
  O77      1.0000 0.00086  0.16779  0.51697  Biso   1.000  O
  H151     1.0000 0.62896  0.94536  0.56130  Biso   1.000  H
  H152     1.0000 0.51959  0.02861  0.62449  Biso   1.000  H
  C94      1.0000 0.56239  0.07975  0.68276  Biso   1.000  C
  C95      1.0000 0.58313  0.94989  0.66167  Biso   1.000  C
  O78      1.0000 0.97050  0.98071  0.48490  Biso   1.000  O
  H153     1.0000 0.05340  0.05900  0.46839  Biso   1.000  H
  C96      1.0000 0.08066  0.03222  0.53452  Biso   1.000  C
  C97      1.0000 0.05794  0.16235  0.55530  Biso   1.000  C
  H154     1.0000 0.61579  0.07802  0.70140  Biso   1.000  H
  O79      1.0000 0.48877  0.05857  0.71004  Biso   1.000  O
  C98      1.0000 0.54678  0.15631  0.66832  Biso   1.000  C
  C99      1.0000 0.50655  0.93216  0.69350  Biso   1.000  C
  H155     1.0000 0.63857  0.94676  0.67859  Biso   1.000  H
  O80      1.0000 0.58530  0.89973  0.62506  Biso   1.000  O
  H156     1.0000 0.00428  0.94940  0.47592  Biso   1.000  H
  O81      1.0000 0.14493  0.97947  0.52266  Biso   1.000  O
  H157     1.0000 0.04609  0.01358  0.56001  Biso   1.000  H
  C100     1.0000 0.12511  0.10178  0.54951  Biso   1.000  C
  H158     1.0000 0.02272  0.15319  0.58249  Biso   1.000  H
  C101     1.0000 0.10311  0.23557  0.55981  Biso   1.000  C
  C102     1.0000 0.49733  0.99014  0.72970  Biso   1.000  C
  H159     1.0000 0.53842  0.18611  0.69499  Biso   1.000  H
  H160     1.0000 0.59821  0.17388  0.65232  Biso   1.000  H
  O82      1.0000 0.47106  0.16240  0.63957  Biso   1.000  O
  H161     1.0000 0.45216  0.93076  0.67571  Biso   1.000  H
  O83      1.0000 0.51873  0.86400  0.71404  Biso   1.000  O
  H162     1.0000 0.59459  0.92128  0.60130  Biso   1.000  H
  H163     1.0000 0.18391  0.97128  0.54449  Biso   1.000  H
  H164     1.0000 0.17047  0.11590  0.52761  Biso   1.000  H
  O84      1.0000 0.16376  0.08675  0.59225  Biso   1.000  O
  H165     1.0000 0.14710  0.23379  0.58361  Biso   1.000  H
  H166     1.0000 0.13209  0.24807  0.53161  Biso   1.000  H
  O85      1.0000 0.03859  0.28757  0.57039  Biso   1.000  O
  H167     1.0000 0.44479  0.98001  0.74791  Biso   1.000  H
  O86      1.0000 0.57266  0.98631  0.75794  Biso   1.000  O
  H168     1.0000 0.43057  0.18121  0.65371  Biso   1.000  H
  H169     1.0000 0.47086  0.84811  0.72231  Biso   1.000  H
  C103     1.0000 0.25542  0.09499  0.59828  Biso   1.000  C
  H170     1.0000 0.01672  0.32620  0.58751  Biso   1.000  H
  C104     1.0000 0.56134  0.98912  0.80590  Biso   1.000  C
  H171     1.0000 0.28393  0.10092  0.56869  Biso   1.000  H
  C105     1.0000 0.28992  0.02667  0.62123  Biso   1.000  C
  O87      1.0000 0.27359  0.15561  0.62584  Biso   1.000  O
  C106     1.0000 0.60097  0.05916  0.82367  Biso   1.000  C
  C107     1.0000 0.60914  0.92349  0.82506  Biso   1.000  C
  H172     1.0000 0.49858  0.98680  0.81350  Biso   1.000  H
  O88      1.0000 0.27043  0.96498  0.59391  Biso   1.000  O
  H173     1.0000 0.35392  0.03061  0.62479  Biso   1.000  H
  C108     1.0000 0.24850  0.01816  0.66730  Biso   1.000  C
  C109     1.0000 0.23230  0.15308  0.66960  Biso   1.000  C
  H174     1.0000 0.65991  0.06460  0.81051  Biso   1.000  H
  O89      1.0000 0.60967  0.05782  0.87167  Biso   1.000  O
  C110     1.0000 0.54777  0.12571  0.81184  Biso   1.000  C
  C111     1.0000 0.61967  0.92855  0.87546  Biso   1.000  C
  H175     1.0000 0.66768  0.92090  0.81129  Biso   1.000  H
  O90      1.0000 0.56055  0.86023  0.81245  Biso   1.000  O
  H176     1.0000 0.30842  0.96050  0.57429  Biso   1.000  H
  O91      1.0000 0.28603  0.95803  0.69008  Biso   1.000  O
  H177     1.0000 0.18509  0.01002  0.66360  Biso   1.000  H
  C112     1.0000 0.26226  0.08578  0.69493  Biso   1.000  C
  H178     1.0000 0.16830  0.15092  0.66550  Biso   1.000  H
  C113     1.0000 0.25561  0.22313  0.69265  Biso   1.000  C
  C114     1.0000 0.66215  0.00032  0.88783  Biso   1.000  C
  H179     1.0000 0.57681  0.16822  0.82390  Biso   1.000  H
  H180     1.0000 0.54422  0.13072  0.77919  Biso   1.000  H
  O92      1.0000 0.46171  0.12010  0.83031  Biso   1.000  O
  H181     1.0000 0.56140  0.92607  0.88960  Biso   1.000  H
  O93      1.0000 0.67242  0.87187  0.89278  Biso   1.000  O
  H182     1.0000 0.59459  0.82628  0.80940  Biso   1.000  H
  H183     1.0000 0.28050  0.96320  0.71750  Biso   1.000  H
  H184     1.0000 0.32482  0.09041  0.70259  Biso   1.000  H
  O94      1.0000 0.21248  0.07565  0.73570  Biso   1.000  O
  H185     1.0000 0.23770  0.26300  0.67350  Biso   1.000  H
  H186     1.0000 0.22322  0.22679  0.72089  Biso   1.000  H
  O95      1.0000 0.34648  0.22884  0.70174  Biso   1.000  O
  H187     1.0000 0.66801  0.00388  0.92082  Biso   1.000  H
  O96      1.0000 0.74630  0.00221  0.86767  Biso   1.000  O
  H188     1.0000 0.46507  0.11121  0.85750  Biso   1.000  H
  H189     1.0000 0.64127  0.84358  0.90688  Biso   1.000  H
  C115     1.0000 0.25067  0.09904  0.77648  Biso   1.000  C
  H190     1.0000 0.35399  0.23649  0.72879  Biso   1.000  H
  C116     1.0000 0.81859  0.02856  0.89478  Biso   1.000  C
  H191     1.0000 0.30987  0.11730  0.77021  Biso   1.000  H
  C117     1.0000 0.25765  0.03551  0.80919  Biso   1.000  C
  O97      1.0000 0.20017  0.15464  0.79543  Biso   1.000  O
  H192     1.0000 0.79831  0.03880  0.92560  Biso   1.000  H
  C118     1.0000 0.85784  0.09677  0.87356  Biso   1.000  C
  C119     1.0000 0.88714  0.96934  0.89560  Biso   1.000  C
  O98      1.0000 0.30243  0.97818  0.78638  Biso   1.000  O
  H193     1.0000 0.29328  0.05038  0.83529  Biso   1.000  H
  C120     1.0000 0.16784  0.01223  0.82621  Biso   1.000  C
  C121     1.0000 0.11141  0.13320  0.80679  Biso   1.000  C
  H194     1.0000 0.87516  0.08750  0.84211  Biso   1.000  H
  O99      1.0000 0.93389  0.11741  0.90014  Biso   1.000  O
  C122     1.0000 0.79561  0.16008  0.87570  Biso   1.000  C
  C123     1.0000 0.96774  0.99526  0.92071  Biso   1.000  C
  H195     1.0000 0.90360  0.95689  0.86441  Biso   1.000  H
  O100     1.0000 0.85185  0.90705  0.91749  Biso   1.000  O
  H196     1.0000 0.29729  0.94089  0.80109  Biso   1.000  H
  H197     1.0000 0.13512  0.99041  0.80109  Biso   1.000  H
  O101     1.0000 0.18022  0.95975  0.86061  Biso   1.000  O
  C124     1.0000 0.11688  0.07689  0.84356  Biso   1.000  C
  H198     1.0000 0.08409  0.11159  0.78001  Biso   1.000  H
  C125     1.0000 0.06031  0.19985  0.81967  Biso   1.000  C
  C126     1.0000 0.00138  0.06579  0.89990  Biso   1.000  C
  H199     1.0000 0.74360  0.15060  0.85750  Biso   1.000  H
  H200     1.0000 0.77718  0.16860  0.90672  Biso   1.000  H
  O102     1.0000 0.84184  0.22173  0.85838  Biso   1.000  O
  H201     1.0000 0.95147  0.00442  0.95231  Biso   1.000  H
  O103     1.0000 0.03431  0.94170  0.91980  Biso   1.000  O
  H202     1.0000 0.89050  0.87639  0.92000  Biso   1.000  H
  H203     1.0000 0.13321  0.95188  0.87339  Biso   1.000  H
  O104     1.0000 0.03108  0.05130  0.85584  Biso   1.000  O
  H204     1.0000 0.14638  0.09699  0.87031  Biso   1.000  H
  H205     1.0000 0.99829  0.18778  0.82170  Biso   1.000  H
  H206     1.0000 0.06710  0.23568  0.79601  Biso   1.000  H
  O105     1.0000 0.08771  0.22965  0.86109  Biso   1.000  O
  H207     1.0000 0.05077  0.08368  0.91810  Biso   1.000  H
  H208     1.0000 0.80780  0.25578  0.85621  Biso   1.000  H
  H209     1.0000 0.08257  0.96110  0.91729  Biso   1.000  H
  H210     1.0000 0.07427  0.20238  0.88190  Biso   1.000  H
  O106     1.0000 0.41233  0.77035  0.36111  Biso   1.000  O
  C127     1.0000 0.43972  0.80015  0.31965  Biso   1.000  C
  H211     1.0000 0.42569  0.79756  0.38189  Biso   1.000  H
  C128     1.0000 0.38856  0.86680  0.30680  Biso   1.000  C
  H212     1.0000 0.43287  0.76427  0.29599  Biso   1.000  H
  H213     1.0000 0.50168  0.81217  0.32168  Biso   1.000  H
  O107     1.0000 0.29980  0.84536  0.29541  Biso   1.000  O
  C129     1.0000 0.38316  0.92311  0.34355  Biso   1.000  C
  H214     1.0000 0.41588  0.88841  0.27999  Biso   1.000  H
  C130     1.0000 0.24936  0.90096  0.27650  Biso   1.000  C
  C131     1.0000 0.33213  0.98777  0.32623  Biso   1.000  C
  H215     1.0000 0.35359  0.90301  0.37029  Biso   1.000  H
  O108     1.0000 0.46889  0.94870  0.35582  Biso   1.000  O
  O109     1.0000 0.28755  0.92435  0.23569  Biso   1.000  O
  H216     1.0000 0.19010  0.88270  0.27019  Biso   1.000  H
  C132     1.0000 0.24231  0.96449  0.30921  Biso   1.000  C
  H217     1.0000 0.36492  0.00959  0.30111  Biso   1.000  H
  O110     1.0000 0.31981  0.04025  0.36063  Biso   1.000  O
  C133     1.0000 0.49858  0.93421  0.39992  Biso   1.000  C
  C134     1.0000 0.23770  0.91422  0.19494  Biso   1.000  C
  H218     1.0000 0.20669  0.94957  0.33531  Biso   1.000  H
  O111     1.0000 0.19754  0.02182  0.28636  Biso   1.000  O
  H219     1.0000 0.36683  0.04812  0.37341  Biso   1.000  H
  H220     1.0000 0.44920  0.91627  0.41809  Biso   1.000  H
  O112     1.0000 0.56608  0.88259  0.40012  Biso   1.000  O
  C135     1.0000 0.53223  0.00469  0.42070  Biso   1.000  C
  C136     1.0000 0.26766  0.84692  0.16962  Biso   1.000  C
  C137     1.0000 0.25153  0.98179  0.16732  Biso   1.000  C
  H221     1.0000 0.17522  0.90959  0.20260  Biso   1.000  H
  H222     1.0000 0.20267  0.05911  0.30111  Biso   1.000  H
  C138     1.0000 0.64213  0.90317  0.37358  Biso   1.000  C
  H223     1.0000 0.54850  0.99558  0.45229  Biso   1.000  H
  O113     1.0000 0.46566  0.05825  0.41978  Biso   1.000  O
  C139     1.0000 0.61283  0.03066  0.39558  Biso   1.000  C
  C140     1.0000 0.24442  0.77682  0.19267  Biso   1.000  C
  H224     1.0000 0.33167  0.84908  0.16549  Biso   1.000  H
  O114     1.0000 0.22638  0.84439  0.12583  Biso   1.000  O
  C141     1.0000 0.21005  0.97333  0.12122  Biso   1.000  C
  H225     1.0000 0.31487  0.98998  0.16359  Biso   1.000  H
  O115     1.0000 0.21400  0.04197  0.19006  Biso   1.000  O
  C142     1.0000 0.68137  0.97139  0.39477  Biso   1.000  C
  H226     1.0000 0.62481  0.91250  0.34209  Biso   1.000  H
  C143     1.0000 0.70442  0.83986  0.37572  Biso   1.000  C
  H227     1.0000 0.41740  0.03890  0.41731  Biso   1.000  H
  H228     1.0000 0.59637  0.04311  0.36439  Biso   1.000  H
  O116     1.0000 0.64812  0.09295  0.41748  Biso   1.000  O
  O117     1.0000 0.15349  0.77116  0.20172  Biso   1.000  O
  H229     1.0000 0.26226  0.73700  0.17349  Biso   1.000  H
  H230     1.0000 0.27682  0.77321  0.22091  Biso   1.000  H
  C144     1.0000 0.24462  0.90501  0.09827  Biso   1.000  C
  H231     1.0000 0.14611  0.96939  0.12481  Biso   1.000  H
  O118     1.0000 0.22954  0.03502  0.09390  Biso   1.000  O
  H232     1.0000 0.21953  0.03680  0.21748  Biso   1.000  H
  H233     1.0000 0.70172  0.96120  0.42561  Biso   1.000  H
  O119     1.0000 0.75367  0.99779  0.36765  Biso   1.000  O
  H234     1.0000 0.75637  0.84940  0.35751  Biso   1.000  H
  H235     1.0000 0.72279  0.83140  0.40670  Biso   1.000  H
  O120     1.0000 0.65813  0.77822  0.35839  Biso   1.000  O
  H236     1.0000 0.60947  0.12361  0.41999  Biso   1.000  H
  H237     1.0000 0.14598  0.76351  0.22881  Biso   1.000  H
  H238     1.0000 0.21611  0.89908  0.06871  Biso   1.000  H
  O121     1.0000 0.33621  0.91325  0.09223  Biso   1.000  O
  H239     1.0000 0.19161  0.03950  0.07430  Biso   1.000  H
  C145     1.0000 0.83782  0.99962  0.38785  Biso   1.000  C
  H240     1.0000 0.69217  0.74417  0.35619  Biso   1.000  H
  C146     1.0000 0.37486  0.89822  0.04949  Biso   1.000  C
  H241     1.0000 0.83196  0.99607  0.42080  Biso   1.000  H
  O122     1.0000 0.89030  0.94218  0.37168  Biso   1.000  O
  C147     1.0000 0.88029  0.07139  0.37548  Biso   1.000  C
  C148     1.0000 0.41931  0.96778  0.03451  Biso   1.000  C
  H242     1.0000 0.32949  0.88410  0.02759  Biso   1.000  H
  C149     1.0000 0.44202  0.83765  0.05529  Biso   1.000  C
  C150     1.0000 0.89899  0.94078  0.32368  Biso   1.000  C
  H243     1.0000 0.93857  0.07387  0.38961  Biso   1.000  H
  O123     1.0000 0.82755  0.12808  0.39277  Biso   1.000  O
  C151     1.0000 0.89083  0.07646  0.32507  Biso   1.000  C
  H244     1.0000 0.45388  0.98637  0.06000  Biso   1.000  H
  C152     1.0000 0.48094  0.95528  0.99508  Biso   1.000  C
  O124     1.0000 0.35504  0.02053  0.02268  Biso   1.000  O
  H245     1.0000 0.47732  0.84681  0.08251  Biso   1.000  H
  O125     1.0000 0.49911  0.83221  0.01695  Biso   1.000  O
  C153     1.0000 0.39692  0.76443  0.05983  Biso   1.000  C
  H246     1.0000 0.84006  0.93540  0.31050  Biso   1.000  H
  C154     1.0000 0.95220  0.87429  0.31185  Biso   1.000  C
  C155     1.0000 0.93863  0.01088  0.30589  Biso   1.000  C
  H247     1.0000 0.85869  0.15642  0.40690  Biso   1.000  H
  H248     1.0000 0.83229  0.07910  0.31131  Biso   1.000  H
  O126     1.0000 0.93942  0.13977  0.31246  Biso   1.000  O
  C156     1.0000 0.54573  0.89633  0.00651  Biso   1.000  C
  H249     1.0000 0.44657  0.94100  0.96841  Biso   1.000  H
  O127     1.0000 0.52947  0.01929  0.98492  Biso   1.000  O
  H250     1.0000 0.31613  0.02872  0.04451  Biso   1.000  H
  H251     1.0000 0.35287  0.76621  0.08359  Biso   1.000  H
  H252     1.0000 0.36788  0.75187  0.03159  Biso   1.000  H
  O128     1.0000 0.46145  0.71243  0.07040  Biso   1.000  O
  H253     1.0000 0.92316  0.83178  0.32389  Biso   1.000  H
  H254     1.0000 0.95582  0.86928  0.27921  Biso   1.000  H
  O129     1.0000 0.03826  0.87984  0.33029  Biso   1.000  O
  O130     1.0000 0.92737  0.01363  0.25792  Biso   1.000  O
  H255     1.0000 0.00138  0.01320  0.31351  Biso   1.000  H
  H256     1.0000 0.90538  0.17372  0.30941  Biso   1.000  H
  O131     1.0000 0.59867  0.91826  0.04298  Biso   1.000  O
  H257     1.0000 0.58339  0.88749  0.98010  Biso   1.000  H
  H258     1.0000 0.49569  0.05060  0.97590  Biso   1.000  H
  H259     1.0000 0.48331  0.67380  0.08749  Biso   1.000  H
  H260     1.0000 0.03490  0.88879  0.35751  Biso   1.000  H
  C157     1.0000 0.00263  0.00986  0.22969  Biso   1.000  C
  C158     1.0000 0.69237  0.90571  0.03919  Biso   1.000  C
  O132     1.0000 0.01119  0.94138  0.21006  Biso   1.000  O
  C159     1.0000 0.99342  0.06778  0.19352  Biso   1.000  C
  H261     1.0000 0.05518  0.01999  0.24789  Biso   1.000  H
  C160     1.0000 0.73688  0.97861  0.03932  Biso   1.000  C
  H262     1.0000 0.70527  0.88049  0.01081  Biso   1.000  H
  C161     1.0000 0.72424  0.86131  0.07908  Biso   1.000  C
  C162     1.0000 0.93758  0.92020  0.18274  Biso   1.000  C
  C163     1.0000 0.91684  0.05011  0.16166  Biso   1.000  C
  O133     1.0000 0.98130  0.13594  0.21406  Biso   1.000  O
  H263     1.0000 0.04780  0.06918  0.17569  Biso   1.000  H
  C164     1.0000 0.83611  0.96789  0.03722  Biso   1.000  C
  H264     1.0000 0.72187  0.00388  0.06739  Biso   1.000  H
  O134     1.0000 0.71015  0.02112  0.00166  Biso   1.000  O
  H265     1.0000 0.70811  0.88566  0.10728  Biso   1.000  H
  O135     1.0000 0.81813  0.85414  0.07695  Biso   1.000  O
  C165     1.0000 0.69000  0.78517  0.08007  Biso   1.000  C
  C166     1.0000 0.92796  0.97365  0.14383  Biso   1.000  C
  H266     1.0000 0.88418  0.92198  0.20142  Biso   1.000  H
  C167     1.0000 0.95318  0.84369  0.16833  Biso   1.000  C
  H267     1.0000 0.86139  0.05318  0.17860  Biso   1.000  H
  O136     1.0000 0.91466  0.10027  0.12505  Biso   1.000  O
  H268     1.0000 0.02910  0.15189  0.22230  Biso   1.000  H
  C168     1.0000 0.86449  0.91880  0.07678  Biso   1.000  C
  H269     1.0000 0.85007  0.94310  0.00881  Biso   1.000  H
  O137     1.0000 0.88279  0.03249  0.03803  Biso   1.000  O
  H270     1.0000 0.65622  0.02188  0.00031  Biso   1.000  H
  H271     1.0000 0.70942  0.76168  0.10769  Biso   1.000  H
  H272     1.0000 0.62606  0.78587  0.08010  Biso   1.000  H
  O138     1.0000 0.72062  0.74578  0.04190  Biso   1.000  O
  O139     1.0000 0.85191  0.95776  0.11745  Biso   1.000  O
  H273     1.0000 0.98038  0.97139  0.12450  Biso   1.000  H
  H274     1.0000 0.96161  0.81389  0.19501  Biso   1.000  H
  H275     1.0000 0.90176  0.82607  0.15230  Biso   1.000  H
  O140     1.0000 0.02897  0.83755  0.13955  Biso   1.000  O
  H276     1.0000 0.90538  0.07872  0.10128  Biso   1.000  H
  H277     1.0000 0.92737  0.90808  0.07349  Biso   1.000  H
  H278     1.0000 0.87101  0.05458  0.06129  Biso   1.000  H
  H279     1.0000 0.68677  0.75176  0.02061  Biso   1.000  H
  H280     1.0000 0.06940  0.81879  0.15369  Biso   1.000  H
  Ne1      1.0000 0.39330  0.43955  0.28982  Biso   1.000  Ne
  He1      1.0000 0.40690  0.53744  0.28086  Biso   1.000  He
  He2      1.0000 0.37646  0.38603  0.27874  Biso   1.000  He
  Ar1      1.0000 0.38885  0.49759  0.28482  Biso   1.000  Ar
  Ne2      1.0000 0.60669  0.93955  0.21018  Biso   1.000  Ne
  He3      1.0000 0.57231  0.10652  0.18223  Biso   1.000  He
  He4      1.0000 0.62338  0.88750  0.22116  Biso   1.000  He
  Ar2      1.0000 0.57587  0.07198  0.20553  Biso   1.000  Ar
  Ne3      1.0000 0.10669  0.56044  0.78982  Biso   1.000  Ne
  He5      1.0000 0.10051  0.47410  0.77970  Biso   1.000  He
  He6      1.0000 0.13587  0.74516  0.77666  Biso   1.000  He
  Ar3      1.0000 0.11206  0.50232  0.78488  Biso   1.000  Ar
  Ne4      1.0000 0.89329  0.06044  0.71018  Biso   1.000  Ne
  He7      1.0000 0.90363  0.98531  0.70826  Biso   1.000  He
  He8      1.0000 0.86348  0.24056  0.72327  Biso   1.000  He
  Ar4      1.0000 0.88941  0.00004  0.71535  Biso   1.000  Ar
