data_image0
_cell_length_a       15.361
_cell_length_b       17.609
_cell_length_c       27.316
_cell_angle_alpha    90
_cell_angle_beta     90
_cell_angle_gamma    90

_symmetry_space_group_name_H-M    "P 1"
_symmetry_int_tables_number       1

loop_
  _symmetry_equiv_pos_as_xyz
  'x, y, z'

loop_
  _atom_site_label
  _atom_site_occupancy
  _atom_site_fract_x
  _atom_site_fract_y
  _atom_site_fract_z
  _atom_site_thermal_displace_type
  _atom_site_B_iso_or_equiv
  _atom_site_type_symbol
  O1       1.0000 0.47171  0.52030  0.51530  Biso   1.000  O
  C1       1.0000 0.51943  0.45607  0.50560  Biso   1.000  C
  H1       1.0000 0.50283  0.55182  0.52870  Biso   1.000  H
  C2       1.0000 0.58069  0.46800  0.46500  Biso   1.000  C
  C3       1.0000 0.45531  0.39571  0.49341  Biso   1.000  C
  H2       1.0000 0.55179  0.44142  0.53500  Biso   1.000  H
  C4       1.0000 0.62548  0.39849  0.45149  Biso   1.000  C
  H3       1.0000 0.54808  0.48617  0.43648  Biso   1.000  H
  O2       1.0000 0.64338  0.52132  0.47661  Biso   1.000  O
  O3       1.0000 0.50062  0.33273  0.48371  Biso   1.000  O
  O4       1.0000 0.40128  0.41871  0.45739  Biso   1.000  O
  H4       1.0000 0.42009  0.38611  0.52259  Biso   1.000  H
  O5       1.0000 0.66402  0.41411  0.40789  Biso   1.000  O
  H5       1.0000 0.66838  0.38378  0.47631  Biso   1.000  H
  C5       1.0000 0.55823  0.33892  0.44490  Biso   1.000  C
  H6       1.0000 0.67749  0.53030  0.45409  Biso   1.000  H
  C6       1.0000 0.30760  0.40633  0.46149  Biso   1.000  C
  C7       1.0000 0.75548  0.40599  0.40189  Biso   1.000  C
  H7       1.0000 0.52568  0.34851  0.41459  Biso   1.000  H
  C8       1.0000 0.60087  0.26492  0.44179  Biso   1.000  C
  C9       1.0000 0.26398  0.47953  0.46061  Biso   1.000  C
  C10      1.0000 0.27453  0.36061  0.42239  Biso   1.000  C
  H8       1.0000 0.29523  0.38111  0.49279  Biso   1.000  H
  C11      1.0000 0.79122  0.47249  0.37948  Biso   1.000  C
  O6       1.0000 0.77417  0.34431  0.37502  Biso   1.000  O
  H9       1.0000 0.78198  0.40002  0.43440  Biso   1.000  H
  H10      1.0000 0.64508  0.26560  0.41639  Biso   1.000  H
  H11      1.0000 0.62860  0.25260  0.47269  Biso   1.000  H
  O7       1.0000 0.53909  0.21302  0.43110  Biso   1.000  O
  C12      1.0000 0.16451  0.47112  0.46182  Biso   1.000  C
  H12      1.0000 0.27999  0.50531  0.43011  Biso   1.000  H
  O8       1.0000 0.29009  0.52308  0.49839  Biso   1.000  O
  O9       1.0000 0.18130  0.35431  0.42440  Biso   1.000  O
  H13      1.0000 0.28982  0.38543  0.39138  Biso   1.000  H
  C13      1.0000 0.30838  0.28610  0.42129  Biso   1.000  C
  C14      1.0000 0.75008  0.48152  0.33369  Biso   1.000  C
  H14      1.0000 0.85431  0.46772  0.37549  Biso   1.000  H
  O10      1.0000 0.77117  0.53490  0.40650  Biso   1.000  O
  C15      1.0000 0.73329  0.34772  0.33131  Biso   1.000  C
  H15      1.0000 0.51533  0.17991  0.41221  Biso   1.000  H
  C16      1.0000 0.13463  0.42132  0.42429  Biso   1.000  C
  H16      1.0000 0.14973  0.44733  0.49319  Biso   1.000  H
  O11      1.0000 0.12161  0.53620  0.45980  Biso   1.000  O
  H17      1.0000 0.34301  0.51939  0.50179  Biso   1.000  H
  H18      1.0000 0.29152  0.26140  0.39102  Biso   1.000  H
  H19      1.0000 0.37140  0.28809  0.42239  Biso   1.000  H
  O12      1.0000 0.27817  0.24601  0.45958  Biso   1.000  O
  C17      1.0000 0.76343  0.41462  0.30561  Biso   1.000  C
  H20      1.0000 0.68772  0.49077  0.33812  Biso   1.000  H
  O13      1.0000 0.78810  0.54211  0.31070  Biso   1.000  O
  H21      1.0000 0.81128  0.54432  0.42539  Biso   1.000  H
  H22      1.0000 0.67027  0.35079  0.33629  Biso   1.000  H
  C18      1.0000 0.75451  0.27747  0.30821  Biso   1.000  C
  O14      1.0000 0.15012  0.45698  0.38278  Biso   1.000  O
  H23      1.0000 0.07233  0.41121  0.42810  Biso   1.000  H
  H24      1.0000 0.07480  0.52967  0.44611  Biso   1.000  H
  H25      1.0000 0.31098  0.21018  0.46500  Biso   1.000  H
  O15      1.0000 0.71343  0.42518  0.26552  Biso   1.000  O
  H26      1.0000 0.82482  0.40939  0.29649  Biso   1.000  H
  H27      1.0000 0.78628  0.53569  0.28101  Biso   1.000  H
  H28      1.0000 0.72339  0.27372  0.27738  Biso   1.000  H
  H29      1.0000 0.73602  0.23579  0.32889  Biso   1.000  H
  O16      1.0000 0.84617  0.27151  0.29920  Biso   1.000  O
  C19      1.0000 0.07460  0.47328  0.35660  Biso   1.000  C
  C20      1.0000 0.75197  0.40173  0.22412  Biso   1.000  C
  H30      1.0000 0.85463  0.24510  0.27500  Biso   1.000  H
  C21      1.0000 0.08658  0.54921  0.33760  Biso   1.000  C
  C22      1.0000 0.06399  0.42030  0.31688  Biso   1.000  C
  H31      1.0000 0.02389  0.47169  0.37831  Biso   1.000  H
  C23      1.0000 0.75841  0.46408  0.19209  Biso   1.000  C
  O17      1.0000 0.69982  0.34579  0.20618  Biso   1.000  O
  H32      1.0000 0.80997  0.38140  0.23129  Biso   1.000  H
  C24      1.0000 0.00970  0.56693  0.30649  Biso   1.000  C
  H33      1.0000 0.13918  0.55051  0.31729  Biso   1.000  H
  O18      1.0000 0.09322  0.60162  0.37271  Biso   1.000  O
  O19      1.0000 0.98971  0.44091  0.29016  Biso   1.000  O
  H34      1.0000 0.11529  0.42172  0.29561  Biso   1.000  H
  C25      1.0000 0.04739  0.34369  0.33230  Biso   1.000  C
  C26      1.0000 0.66773  0.48731  0.17521  Biso   1.000  C
  H35      1.0000 0.79162  0.44801  0.16331  Biso   1.000  H
  O20      1.0000 0.80359  0.52172  0.21460  Biso   1.000  O
  C27      1.0000 0.61161  0.36782  0.19542  Biso   1.000  C
  C28      1.0000 0.99889  0.50980  0.27032  Biso   1.000  C
  O21      1.0000 0.02207  0.63581  0.28522  Biso   1.000  O
  H36      1.0000 0.95749  0.56891  0.32710  Biso   1.000  H
  H37      1.0000 0.06757  0.58692  0.39731  Biso   1.000  H
  H38      1.0000 0.04108  0.31137  0.30370  Biso   1.000  H
  H39      1.0000 0.09641  0.32517  0.35130  Biso   1.000  H
  O22      1.0000 0.97071  0.33960  0.36100  Biso   1.000  O
  C29      1.0000 0.61669  0.42461  0.15811  Biso   1.000  C
  H40      1.0000 0.63733  0.51099  0.20281  Biso   1.000  H
  O23      1.0000 0.68062  0.54109  0.13992  Biso   1.000  O
  H41      1.0000 0.81583  0.55449  0.19439  Biso   1.000  H
  H42      1.0000 0.58662  0.39122  0.22481  Biso   1.000  H
  C30      1.0000 0.55901  0.30172  0.18260  Biso   1.000  C
  O24      1.0000 0.07441  0.51229  0.24158  Biso   1.000  O
  H43      1.0000 0.94799  0.52149  0.25011  Biso   1.000  H
  H44      1.0000 0.97663  0.64978  0.27229  Biso   1.000  H
  H45      1.0000 0.96830  0.29820  0.37462  Biso   1.000  H
  O25      1.0000 0.53102  0.44960  0.14534  Biso   1.000  O
  H46      1.0000 0.64462  0.40281  0.12901  Biso   1.000  H
  H47      1.0000 0.63590  0.54608  0.12381  Biso   1.000  H
  H48      1.0000 0.56259  0.26430  0.20860  Biso   1.000  H
  H49      1.0000 0.49847  0.31671  0.17909  Biso   1.000  H
  O26      1.0000 0.58753  0.27100  0.14039  Biso   1.000  O
  C31      1.0000 0.06198  0.50980  0.19370  Biso   1.000  C
  C32      1.0000 0.50179  0.43608  0.10170  Biso   1.000  C
  H50      1.0000 0.63922  0.26021  0.14299  Biso   1.000  H
  C33      1.0000 0.10963  0.57499  0.17440  Biso   1.000  C
  C34      1.0000 0.10051  0.43960  0.17649  Biso   1.000  C
  H51      1.0000 0.00000  0.51258  0.18539  Biso   1.000  H
  O27      1.0000 0.43461  0.38282  0.10170  Biso   1.000  O
  C35      1.0000 0.46761  0.50571  0.08069  Biso   1.000  C
  H52      1.0000 0.54957  0.41740  0.08120  Biso   1.000  H
  C36      1.0000 0.11868  0.57119  0.12440  Biso   1.000  C
  H53      1.0000 0.16718  0.57760  0.18982  Biso   1.000  H
  O28      1.0000 0.06080  0.63899  0.18769  Biso   1.000  O
  O29      1.0000 0.10917  0.44199  0.12806  Biso   1.000  O
  H54      1.0000 0.15793  0.43302  0.19161  Biso   1.000  H
  C37      1.0000 0.04668  0.37390  0.18729  Biso   1.000  C
  C38      1.0000 0.35838  0.40388  0.12689  Biso   1.000  C
  C39      1.0000 0.38611  0.53018  0.10562  Biso   1.000  C
  H55      1.0000 0.45388  0.49588  0.04620  Biso   1.000  H
  O30      1.0000 0.53291  0.56011  0.08230  Biso   1.000  O
  C40      1.0000 0.16132  0.50009  0.11158  Biso   1.000  C
  H56      1.0000 0.06152  0.57402  0.10869  Biso   1.000  H
  O31      1.0000 0.17167  0.62758  0.10671  Biso   1.000  O
  H57      1.0000 0.09342  0.67551  0.19121  Biso   1.000  H
  H58      1.0000 0.07363  0.32921  0.17309  Biso   1.000  H
  H59      1.0000 0.04440  0.36691  0.22240  Biso   1.000  H
  O32      1.0000 0.96061  0.38037  0.16910  Biso   1.000  O
  C41      1.0000 0.29588  0.33841  0.12538  Biso   1.000  C
  C42      1.0000 0.31860  0.47180  0.10569  Biso   1.000  C
  H60      1.0000 0.37341  0.41439  0.16111  Biso   1.000  H
  H61      1.0000 0.40017  0.54268  0.13970  Biso   1.000  H
  O33      1.0000 0.35147  0.59339  0.08409  Biso   1.000  O
  H62      1.0000 0.56819  0.55449  0.06018  Biso   1.000  H
  O34      1.0000 0.24562  0.49742  0.13241  Biso   1.000  O
  H63      1.0000 0.16633  0.49679  0.07589  Biso   1.000  H
  H64      1.0000 0.14179  0.66108  0.09430  Biso   1.000  H
  H65      1.0000 0.93080  0.34568  0.18000  Biso   1.000  H
  O35      1.0000 0.34321  0.27781  0.14281  Biso   1.000  O
  H66      1.0000 0.24569  0.34817  0.14600  Biso   1.000  H
  H67      1.0000 0.27622  0.32898  0.09222  Biso   1.000  H
  H68      1.0000 0.30102  0.46113  0.07190  Biso   1.000  H
  H69      1.0000 0.38949  0.62582  0.08101  Biso   1.000  H
  H70      1.0000 0.31001  0.24277  0.14969  Biso   1.000  H
  C43      1.0000 0.33871  0.49991  0.61158  Biso   1.000  C
  O36      1.0000 0.25441  0.50258  0.63241  Biso   1.000  O
  H71      1.0000 0.33370  0.50321  0.57589  Biso   1.000  H
  C44      1.0000 0.38129  0.42881  0.62440  Biso   1.000  C
  O37      1.0000 0.39079  0.55801  0.62806  Biso   1.000  O
  C45      1.0000 0.18137  0.52820  0.60569  Biso   1.000  C
  H72      1.0000 0.43851  0.42598  0.60869  Biso   1.000  H
  O38      1.0000 0.32830  0.37242  0.60671  Biso   1.000  O
  C46      1.0000 0.39040  0.42501  0.67440  Biso   1.000  C
  C47      1.0000 0.39952  0.56040  0.67649  Biso   1.000  C
  C48      1.0000 0.11392  0.46982  0.60562  Biso   1.000  C
  H73      1.0000 0.19901  0.53887  0.57190  Biso   1.000  H
  C49      1.0000 0.14159  0.59612  0.62689  Biso   1.000  C
  H74      1.0000 0.35818  0.33892  0.59430  Biso   1.000  H
  H75      1.0000 0.33279  0.42240  0.68982  Biso   1.000  H
  O39      1.0000 0.43923  0.36101  0.68769  Biso   1.000  O
  C50      1.0000 0.43799  0.49020  0.69370  Biso   1.000  C
  H76      1.0000 0.34210  0.56698  0.69161  Biso   1.000  H
  C51      1.0000 0.45329  0.62610  0.68729  Biso   1.000  C
  O40      1.0000 0.14849  0.40661  0.58409  Biso   1.000  O
  C52      1.0000 0.03242  0.49429  0.58069  Biso   1.000  C
  H77      1.0000 0.09980  0.45732  0.63970  Biso   1.000  H
  O41      1.0000 0.06543  0.61718  0.60170  Biso   1.000  O
  H78      1.0000 0.12662  0.58561  0.66111  Biso   1.000  H
  C53      1.0000 0.20409  0.66159  0.62538  Biso   1.000  C
  H79      1.0000 0.40661  0.32449  0.69121  Biso   1.000  H
  H80      1.0000 0.49997  0.48742  0.68539  Biso   1.000  H
  O42      1.0000 0.42562  0.48771  0.74158  Biso   1.000  O
  H81      1.0000 0.42640  0.67079  0.67309  Biso   1.000  H
  H82      1.0000 0.45557  0.63309  0.72240  Biso   1.000  H
  O43      1.0000 0.53942  0.61963  0.66910  Biso   1.000  O
  H83      1.0000 0.11047  0.37418  0.58101  Biso   1.000  H
  H84      1.0000 0.04609  0.50412  0.54620  Biso   1.000  H
  C54      1.0000 0.99818  0.56392  0.60170  Biso   1.000  C
  O44      1.0000 0.96712  0.43989  0.58230  Biso   1.000  O
  H85      1.0000 0.25428  0.65183  0.64600  Biso   1.000  H
  H86      1.0000 0.22381  0.67102  0.59222  Biso   1.000  H
  O45      1.0000 0.15683  0.72219  0.64281  Biso   1.000  O
  C55      1.0000 0.50107  0.49020  0.77032  Biso   1.000  C
  H87      1.0000 0.56917  0.65432  0.68000  Biso   1.000  H
  O46      1.0000 0.96901  0.55040  0.64534  Biso   1.000  O
  H88      1.0000 0.95039  0.58260  0.58120  Biso   1.000  H
  H89      1.0000 0.93178  0.44551  0.56018  Biso   1.000  H
  H90      1.0000 0.19003  0.75723  0.64969  Biso   1.000  H
  H91      1.0000 0.55198  0.47851  0.75011  Biso   1.000  H
  C56      1.0000 0.49027  0.43307  0.80649  Biso   1.000  C
  O47      1.0000 0.51032  0.55909  0.79016  Biso   1.000  O
  C57      1.0000 0.88328  0.57539  0.65811  Biso   1.000  C
  H92      1.0000 0.54248  0.43109  0.82710  Biso   1.000  H
  O48      1.0000 0.47790  0.36419  0.78522  Biso   1.000  O
  C58      1.0000 0.41338  0.45079  0.83760  Biso   1.000  C
  C59      1.0000 0.43597  0.57970  0.81688  Biso   1.000  C
  C60      1.0000 0.83230  0.51269  0.67521  Biso   1.000  C
  H93      1.0000 0.85541  0.59719  0.62901  Biso   1.000  H
  C61      1.0000 0.88842  0.63218  0.69542  Biso   1.000  C
  H94      1.0000 0.52340  0.35022  0.77229  Biso   1.000  H
  H95      1.0000 0.36078  0.44949  0.81729  Biso   1.000  H
  O49      1.0000 0.40681  0.39838  0.87271  Biso   1.000  O
  C62      1.0000 0.42543  0.52672  0.85660  Biso   1.000  C
  H96      1.0000 0.38468  0.57828  0.79561  Biso   1.000  H
  C63      1.0000 0.45257  0.65631  0.83230  Biso   1.000  C
  C64      1.0000 0.74162  0.53592  0.69209  Biso   1.000  C
  H97      1.0000 0.86270  0.48901  0.70281  Biso   1.000  H
  O50      1.0000 0.81941  0.45891  0.63992  Biso   1.000  O
  H98      1.0000 0.91342  0.60878  0.72481  Biso   1.000  H
  O51      1.0000 0.80021  0.65421  0.70618  Biso   1.000  O
  C65      1.0000 0.94102  0.69828  0.68260  Biso   1.000  C
  H99      1.0000 0.43239  0.41308  0.89731  Biso   1.000  H
  H100     1.0000 0.47608  0.52831  0.87831  Biso   1.000  H
  O52      1.0000 0.34991  0.54302  0.88278  Biso   1.000  O
  H101     1.0000 0.45889  0.68863  0.80370  Biso   1.000  H
  H102     1.0000 0.40362  0.67483  0.85130  Biso   1.000  H
  O53      1.0000 0.52933  0.66040  0.86100  Biso   1.000  O
  C66      1.0000 0.74800  0.59827  0.72412  Biso   1.000  C
  H103     1.0000 0.70842  0.55199  0.66331  Biso   1.000  H
  O54      1.0000 0.69637  0.47828  0.71460  Biso   1.000  O
  H104     1.0000 0.86407  0.45392  0.62381  Biso   1.000  H
  H105     1.0000 0.00150  0.68329  0.67909  Biso   1.000  H
  H106     1.0000 0.93737  0.73570  0.70860  Biso   1.000  H
  O55      1.0000 0.91251  0.72900  0.64039  Biso   1.000  O
  C67      1.0000 0.36541  0.57868  0.92429  Biso   1.000  C
  H107     1.0000 0.53167  0.70180  0.87462  Biso   1.000  H
  H108     1.0000 0.68999  0.61860  0.73129  Biso   1.000  H
  O56      1.0000 0.78660  0.57482  0.76552  Biso   1.000  O
  H109     1.0000 0.68420  0.44551  0.69439  Biso   1.000  H
  H110     1.0000 0.86082  0.73979  0.64299  Biso   1.000  H
  H111     1.0000 0.42771  0.58879  0.92810  Biso   1.000  H
  C68      1.0000 0.33553  0.52888  0.96182  Biso   1.000  C
  O57      1.0000 0.31873  0.64569  0.92440  Biso   1.000  O
  C69      1.0000 0.73661  0.58538  0.80561  Biso   1.000  C
  H112     1.0000 0.35030  0.55267  0.99319  Biso   1.000  H
  O58      1.0000 0.37843  0.46380  0.95980  Biso   1.000  O
  C70      1.0000 0.23599  0.52047  0.96061  Biso   1.000  C
  C71      1.0000 0.22551  0.63939  0.92239  Biso   1.000  C
  C72      1.0000 0.74989  0.51848  0.83369  Biso   1.000  C
  H113     1.0000 0.67522  0.59061  0.79649  Biso   1.000  H
  C73      1.0000 0.76668  0.65228  0.83131  Biso   1.000  C
  H114     1.0000 0.42517  0.47033  0.94611  Biso   1.000  H
  H115     1.0000 0.21997  0.49469  0.93011  Biso   1.000  H
  O59      1.0000 0.20988  0.47692  0.99839  Biso   1.000  O
  C74      1.0000 0.19237  0.59367  0.96149  Biso   1.000  C
  H116     1.0000 0.21021  0.61457  0.89138  Biso   1.000  H
  C75      1.0000 0.19159  0.71390  0.92129  Biso   1.000  C
  C76      1.0000 0.70881  0.52751  0.87948  Biso   1.000  C
  H117     1.0000 0.81232  0.50923  0.83812  Biso   1.000  H
  O60      1.0000 0.71187  0.45789  0.81070  Biso   1.000  O
  H118     1.0000 0.82970  0.64921  0.83629  Biso   1.000  H
  O61      1.0000 0.72580  0.65569  0.87502  Biso   1.000  O
  C77      1.0000 0.74552  0.72253  0.80821  Biso   1.000  C
  H119     1.0000 0.15702  0.48061  0.00179  Biso   1.000  H
  O62      1.0000 0.09869  0.58129  0.95739  Biso   1.000  O
  H120     1.0000 0.20480  0.61889  0.99279  Biso   1.000  H
  H121     1.0000 0.20852  0.73860  0.89102  Biso   1.000  H
  H122     1.0000 0.12857  0.71191  0.92239  Biso   1.000  H
  O63      1.0000 0.22180  0.75399  0.95958  Biso   1.000  O
  C78      1.0000 0.74448  0.59401  0.90189  Biso   1.000  C
  H123     1.0000 0.64573  0.53228  0.87549  Biso   1.000  H
  O64      1.0000 0.72879  0.46510  0.90650  Biso   1.000  O
  H124     1.0000 0.71369  0.46431  0.78101  Biso   1.000  H
  H125     1.0000 0.77658  0.72628  0.77738  Biso   1.000  H
  H126     1.0000 0.76401  0.76421  0.82889  Biso   1.000  H
  O65      1.0000 0.65380  0.72849  0.79920  Biso   1.000  O
  C79      1.0000 0.04472  0.60429  0.99341  Biso   1.000  C
  H127     1.0000 0.18899  0.78982  0.96500  Biso   1.000  H
  H128     1.0000 0.71799  0.59998  0.93440  Biso   1.000  H
  O66      1.0000 0.83601  0.58589  0.90789  Biso   1.000  O
  H129     1.0000 0.68869  0.45568  0.92539  Biso   1.000  H
  H130     1.0000 0.64540  0.75490  0.77500  Biso   1.000  H
  C80      1.0000 0.98060  0.54393  0.00560  Biso   1.000  C
  O67      1.0000 0.99941  0.66727  0.98371  Biso   1.000  O
  H131     1.0000 0.07988  0.61389  0.02259  Biso   1.000  H
  C81      1.0000 0.87449  0.60151  0.95149  Biso   1.000  C
  C82      1.0000 0.91928  0.53200  0.96500  Biso   1.000  C
  H132     1.0000 0.94818  0.55858  0.03500  Biso   1.000  H
  O68      1.0000 0.02832  0.47970  0.01530  Biso   1.000  O
  C83      1.0000 0.94180  0.66108  0.94490  Biso   1.000  C
  H133     1.0000 0.83159  0.61622  0.97631  Biso   1.000  H
  H134     1.0000 0.95189  0.51383  0.93648  Biso   1.000  H
  O69      1.0000 0.85658  0.47868  0.97661  Biso   1.000  O
  H135     1.0000 0.99720  0.44818  0.02870  Biso   1.000  H
  H136     1.0000 0.97429  0.65149  0.91459  Biso   1.000  H
  C84      1.0000 0.89910  0.73508  0.94179  Biso   1.000  C
  H137     1.0000 0.82247  0.46970  0.95409  Biso   1.000  H
  H138     1.0000 0.85489  0.73440  0.91639  Biso   1.000  H
  H139     1.0000 0.87143  0.74740  0.97269  Biso   1.000  H
  O70      1.0000 0.96087  0.78698  0.93110  Biso   1.000  O
  H140     1.0000 0.98470  0.82009  0.91221  Biso   1.000  H
  O71      1.0000 0.77820  0.25402  0.54042  Biso   1.000  O
  C85      1.0000 0.80841  0.21392  0.57871  Biso   1.000  C
  H141     1.0000 0.81101  0.28979  0.53500  Biso   1.000  H
  C86      1.0000 0.77449  0.13942  0.57761  Biso   1.000  C
  H142     1.0000 0.79148  0.23863  0.60898  Biso   1.000  H
  H143     1.0000 0.87143  0.21188  0.57761  Biso   1.000  H
  O72      1.0000 0.68127  0.14572  0.57560  Biso   1.000  O
  C87      1.0000 0.80763  0.09370  0.53851  Biso   1.000  C
  H144     1.0000 0.78979  0.11460  0.60862  Biso   1.000  H
  C88      1.0000 0.63459  0.07871  0.57571  Biso   1.000  C
  C89      1.0000 0.76401  0.02050  0.53939  Biso   1.000  C
  O73      1.0000 0.90131  0.08132  0.54261  Biso   1.000  O
  H145     1.0000 0.79520  0.11892  0.50721  Biso   1.000  H
  C90      1.0000 0.66447  0.02891  0.53818  Biso   1.000  C
  H146     1.0000 0.57229  0.08882  0.57190  Biso   1.000  H
  O74      1.0000 0.65009  0.04299  0.61722  Biso   1.000  O
  H147     1.0000 0.78003  0.99472  0.56989  Biso   1.000  H
  O75      1.0000 0.79012  0.97689  0.50161  Biso   1.000  O
  C91      1.0000 0.95528  0.10432  0.50659  Biso   1.000  C
  H148     1.0000 0.64970  0.05270  0.50681  Biso   1.000  H
  O76      1.0000 0.62157  0.96383  0.54020  Biso   1.000  O
  C92      1.0000 0.57457  0.02669  0.64340  Biso   1.000  C
  H149     1.0000 0.84298  0.98058  0.49821  Biso   1.000  H
  H150     1.0000 0.92012  0.11392  0.47741  Biso   1.000  H
  C93      1.0000 0.01940  0.04390  0.49440  Biso   1.000  C
  O77      1.0000 0.00059  0.16730  0.51629  Biso   1.000  O
  H151     1.0000 0.57483  0.97030  0.55389  Biso   1.000  H
  H152     1.0000 0.52392  0.02828  0.62169  Biso   1.000  H
  C94      1.0000 0.56403  0.07968  0.68312  Biso   1.000  C
  C95      1.0000 0.58662  0.95082  0.66240  Biso   1.000  C
  O78      1.0000 0.97168  0.97973  0.48470  Biso   1.000  O
  H153     1.0000 0.05182  0.05861  0.46500  Biso   1.000  H
  C96      1.0000 0.08072  0.03197  0.53500  Biso   1.000  C
  C97      1.0000 0.05820  0.16111  0.55510  Biso   1.000  C
  H154     1.0000 0.61532  0.07831  0.70439  Biso   1.000  H
  O79      1.0000 0.48968  0.05912  0.70984  Biso   1.000  O
  C98      1.0000 0.54743  0.15628  0.66770  Biso   1.000  C
  C99      1.0000 0.50973  0.93310  0.69351  Biso   1.000  C
  H155     1.0000 0.63922  0.94951  0.68271  Biso   1.000  H
  O80      1.0000 0.59319  0.89840  0.62729  Biso   1.000  O
  H156     1.0000 0.00280  0.94821  0.47130  Biso   1.000  H
  O81      1.0000 0.14342  0.97870  0.52339  Biso   1.000  O
  H157     1.0000 0.04811  0.01380  0.56352  Biso   1.000  H
  C100     1.0000 0.12551  0.10148  0.54851  Biso   1.000  C
  H158     1.0000 0.02571  0.15151  0.58541  Biso   1.000  H
  C101     1.0000 0.10090  0.23511  0.55821  Biso   1.000  C
  C102     1.0000 0.49893  0.99018  0.72968  Biso   1.000  C
  H159     1.0000 0.54111  0.18860  0.69630  Biso   1.000  H
  H160     1.0000 0.59638  0.17480  0.64870  Biso   1.000  H
  O82      1.0000 0.47067  0.16037  0.63900  Biso   1.000  O
  H161     1.0000 0.45752  0.93111  0.67290  Biso   1.000  H
  O83      1.0000 0.52210  0.86422  0.71478  Biso   1.000  O
  H162     1.0000 0.56761  0.91311  0.60269  Biso   1.000  H
  H163     1.0000 0.17753  0.96967  0.54591  Biso   1.000  H
  H164     1.0000 0.16841  0.11619  0.52369  Biso   1.000  H
  O84      1.0000 0.16399  0.08592  0.59211  Biso   1.000  O
  H165     1.0000 0.14511  0.23443  0.58361  Biso   1.000  H
  H166     1.0000 0.12857  0.24737  0.52731  Biso   1.000  H
  O85      1.0000 0.03913  0.28701  0.56890  Biso   1.000  O
  H167     1.0000 0.44802  0.97848  0.74989  Biso   1.000  H
  O86      1.0000 0.57438  0.98768  0.75842  Biso   1.000  O
  H168     1.0000 0.46833  0.20177  0.62538  Biso   1.000  H
  H169     1.0000 0.47660  0.85019  0.72771  Biso   1.000  H
  C103     1.0000 0.25552  0.09399  0.59811  Biso   1.000  C
  H170     1.0000 0.01530  0.32012  0.58779  Biso   1.000  H
  C104     1.0000 0.56201  0.99018  0.80630  Biso   1.000  C
  H171     1.0000 0.28201  0.10001  0.56560  Biso   1.000  H
  C105     1.0000 0.29119  0.02749  0.62052  Biso   1.000  C
  O87      1.0000 0.27420  0.15572  0.62498  Biso   1.000  O
  C106     1.0000 0.60048  0.06042  0.82351  Biso   1.000  C
  C107     1.0000 0.60960  0.92498  0.82560  Biso   1.000  C
  H172     1.0000 0.49997  0.98739  0.81461  Biso   1.000  H
  O88      1.0000 0.27121  0.96507  0.59350  Biso   1.000  O
  H173     1.0000 0.35427  0.03231  0.62451  Biso   1.000  H
  C108     1.0000 0.25011  0.01851  0.66631  Biso   1.000  C
  C109     1.0000 0.23332  0.15231  0.66869  Biso   1.000  C
  H174     1.0000 0.65790  0.06701  0.80839  Biso   1.000  H
  O89      1.0000 0.60921  0.05798  0.87194  Biso   1.000  O
  C110     1.0000 0.54671  0.12607  0.81271  Biso   1.000  C
  C111     1.0000 0.61871  0.92879  0.87560  Biso   1.000  C
  H175     1.0000 0.66721  0.92243  0.81018  Biso   1.000  H
  O90      1.0000 0.56077  0.86098  0.81231  Biso   1.000  O
  H176     1.0000 0.31131  0.95570  0.57461  Biso   1.000  H
  O91      1.0000 0.28813  0.95792  0.68930  Biso   1.000  O
  H177     1.0000 0.18768  0.00920  0.66188  Biso   1.000  H
  C112     1.0000 0.26339  0.08541  0.69439  Biso   1.000  C
  H178     1.0000 0.17030  0.14919  0.66371  Biso   1.000  H
  C113     1.0000 0.25448  0.22250  0.69179  Biso   1.000  C
  C114     1.0000 0.66129  0.99989  0.88842  Biso   1.000  C
  H179     1.0000 0.57360  0.17082  0.82691  Biso   1.000  H
  H180     1.0000 0.54443  0.13311  0.77760  Biso   1.000  H
  O92      1.0000 0.46058  0.11960  0.83090  Biso   1.000  O
  H181     1.0000 0.56149  0.92600  0.89131  Biso   1.000  H
  O93      1.0000 0.67170  0.87239  0.89329  Biso   1.000  O
  H182     1.0000 0.59339  0.82452  0.80879  Biso   1.000  H
  H183     1.0000 0.28631  0.96428  0.71899  Biso   1.000  H
  H184     1.0000 0.32478  0.09058  0.70351  Biso   1.000  H
  O94      1.0000 0.21340  0.07479  0.73448  Biso   1.000  O
  H185     1.0000 0.22342  0.22630  0.72262  Biso   1.000  H
  H186     1.0000 0.23599  0.26418  0.67111  Biso   1.000  H
  O95      1.0000 0.34620  0.22852  0.70080  Biso   1.000  O
  H187     1.0000 0.66630  0.00318  0.92411  Biso   1.000  H
  O96      1.0000 0.74559  0.00261  0.86759  Biso   1.000  O
  H188     1.0000 0.43083  0.15430  0.82000  Biso   1.000  H
  H189     1.0000 0.64182  0.83889  0.90570  Biso   1.000  H
  C115     1.0000 0.25200  0.09830  0.77588  Biso   1.000  C
  H190     1.0000 0.35460  0.25493  0.72500  Biso   1.000  H
  C116     1.0000 0.81863  0.02822  0.89431  Biso   1.000  C
  H191     1.0000 0.31001  0.11858  0.76871  Biso   1.000  H
  C117     1.0000 0.25838  0.03589  0.80791  Biso   1.000  C
  O97      1.0000 0.19979  0.15418  0.79382  Biso   1.000  O
  H192     1.0000 0.80099  0.03890  0.92810  Biso   1.000  H
  C118     1.0000 0.85841  0.09609  0.87311  Biso   1.000  C
  C119     1.0000 0.88608  0.96979  0.89438  Biso   1.000  C
  O98      1.0000 0.30363  0.97831  0.78540  Biso   1.000  O
  H193     1.0000 0.29158  0.05202  0.83669  Biso   1.000  H
  C120     1.0000 0.16770  0.01272  0.82479  Biso   1.000  C
  C121     1.0000 0.11158  0.13221  0.80458  Biso   1.000  C
  H194     1.0000 0.87338  0.08558  0.83889  Biso   1.000  H
  O99      1.0000 0.93457  0.11721  0.89830  Biso   1.000  O
  C122     1.0000 0.79591  0.16162  0.87462  Biso   1.000  C
  C123     1.0000 0.96758  0.99432  0.91931  Biso   1.000  C
  H195     1.0000 0.90020  0.95729  0.86030  Biso   1.000  H
  O100     1.0000 0.85151  0.90658  0.91591  Biso   1.000  O
  H196     1.0000 0.31580  0.94548  0.80561  Biso   1.000  H
  H197     1.0000 0.13730  0.98898  0.79719  Biso   1.000  H
  O101     1.0000 0.18059  0.95888  0.86008  Biso   1.000  O
  C124     1.0000 0.11672  0.07542  0.84189  Biso   1.000  C
  H198     1.0000 0.08658  0.10881  0.77519  Biso   1.000  H
  C125     1.0000 0.05898  0.19831  0.81740  Biso   1.000  C
  C126     1.0000 0.00182  0.06389  0.89830  Biso   1.000  C
  H199     1.0000 0.74572  0.15180  0.85400  Biso   1.000  H
  H200     1.0000 0.77619  0.17099  0.90778  Biso   1.000  H
  O102     1.0000 0.84317  0.22222  0.85719  Biso   1.000  O
  H201     1.0000 0.95391  0.00409  0.95380  Biso   1.000  H
  O103     1.0000 0.03288  0.93992  0.91770  Biso   1.000  O
  H202     1.0000 0.88953  0.87421  0.91899  Biso   1.000  H
  H203     1.0000 0.13593  0.95389  0.87619  Biso   1.000  H
  O104     1.0000 0.03099  0.05037  0.85466  Biso   1.000  O
  H204     1.0000 0.14459  0.09722  0.87099  Biso   1.000  H
  H205     1.0000 0.99850  0.18332  0.82091  Biso   1.000  H
  H206     1.0000 0.06263  0.23567  0.79140  Biso   1.000  H
  O105     1.0000 0.08749  0.22897  0.85961  Biso   1.000  O
  H207     1.0000 0.04961  0.08263  0.91880  Biso   1.000  H
  H208     1.0000 0.80997  0.25720  0.85031  Biso   1.000  H
  H209     1.0000 0.06822  0.94548  0.93982  Biso   1.000  H
  H210     1.0000 0.13918  0.23982  0.85701  Biso   1.000  H
  O106     1.0000 0.41247  0.77103  0.35961  Biso   1.000  O
  C127     1.0000 0.44099  0.80169  0.31740  Biso   1.000  C
  H211     1.0000 0.36078  0.76018  0.35701  Biso   1.000  H
  C128     1.0000 0.38839  0.86779  0.30458  Biso   1.000  C
  H212     1.0000 0.43741  0.76433  0.29140  Biso   1.000  H
  H213     1.0000 0.50153  0.81668  0.32091  Biso   1.000  H
  O107     1.0000 0.30018  0.84582  0.29382  Biso   1.000  O
  C129     1.0000 0.38331  0.92458  0.34189  Biso   1.000  C
  H214     1.0000 0.41338  0.89119  0.27519  Biso   1.000  H
  C130     1.0000 0.24803  0.90170  0.27588  Biso   1.000  C
  C131     1.0000 0.33227  0.98728  0.32479  Biso   1.000  C
  H215     1.0000 0.35538  0.90278  0.37099  Biso   1.000  H
  O108     1.0000 0.46898  0.94963  0.35466  Biso   1.000  O
  O109     1.0000 0.28657  0.92521  0.23448  Biso   1.000  O
  H216     1.0000 0.19003  0.88142  0.26871  Biso   1.000  H
  C132     1.0000 0.24159  0.96411  0.30791  Biso   1.000  C
  H217     1.0000 0.36267  0.01102  0.29719  Biso   1.000  H
  O110     1.0000 0.31938  0.04112  0.36008  Biso   1.000  O
  C133     1.0000 0.49821  0.93611  0.39830  Biso   1.000  C
  C134     1.0000 0.23657  0.91459  0.19439  Biso   1.000  C
  H218     1.0000 0.20838  0.94798  0.33669  Biso   1.000  H
  O111     1.0000 0.19641  0.02169  0.28540  Biso   1.000  O
  H219     1.0000 0.36410  0.04611  0.37619  Biso   1.000  H
  H220     1.0000 0.45043  0.91737  0.41880  Biso   1.000  H
  O112     1.0000 0.56539  0.88279  0.39830  Biso   1.000  O
  C135     1.0000 0.53239  0.00568  0.41931  Biso   1.000  C
  C136     1.0000 0.26671  0.84769  0.16869  Biso   1.000  C
  C137     1.0000 0.24992  0.98149  0.16631  Biso   1.000  C
  H221     1.0000 0.17518  0.90942  0.20351  Biso   1.000  H
  H222     1.0000 0.18417  0.05452  0.30561  Biso   1.000  H
  C138     1.0000 0.64162  0.90391  0.37311  Biso   1.000  C
  H223     1.0000 0.54612  0.99591  0.45380  Biso   1.000  H
  O113     1.0000 0.46709  0.06008  0.41770  Biso   1.000  O
  C139     1.0000 0.61389  0.03021  0.39438  Biso   1.000  C
  C140     1.0000 0.24549  0.77750  0.19179  Biso   1.000  C
  H224     1.0000 0.32973  0.85081  0.16371  Biso   1.000  H
  O114     1.0000 0.22583  0.84428  0.12498  Biso   1.000  O
  C141     1.0000 0.20878  0.97251  0.12052  Biso   1.000  C
  H225     1.0000 0.31228  0.99080  0.16188  Biso   1.000  H
  O115     1.0000 0.21190  0.04208  0.18930  Biso   1.000  O
  C142     1.0000 0.68140  0.97178  0.39431  Biso   1.000  C
  H226     1.0000 0.62659  0.91442  0.33889  Biso   1.000  H
  C143     1.0000 0.70412  0.83838  0.37462  Biso   1.000  C
  H227     1.0000 0.43181  0.05452  0.43982  Biso   1.000  H
  H228     1.0000 0.59983  0.04271  0.36030  Biso   1.000  H
  O116     1.0000 0.64853  0.09342  0.41591  Biso   1.000  O
  O117     1.0000 0.15383  0.77148  0.20080  Biso   1.000  O
  H229     1.0000 0.27661  0.77370  0.22262  Biso   1.000  H
  H230     1.0000 0.26398  0.73582  0.17111  Biso   1.000  H
  C144     1.0000 0.24452  0.90601  0.09811  Biso   1.000  C
  H231     1.0000 0.14569  0.96769  0.12451  Biso   1.000  H
  O118     1.0000 0.22883  0.03493  0.09350  Biso   1.000  O
  H232     1.0000 0.21372  0.03572  0.21899  Biso   1.000  H
  H233     1.0000 0.69898  0.96110  0.42810  Biso   1.000  H
  O119     1.0000 0.75438  0.99739  0.36759  Biso   1.000  O
  H234     1.0000 0.75431  0.84820  0.35400  Biso   1.000  H
  H235     1.0000 0.72378  0.82901  0.40778  Biso   1.000  H
  O120     1.0000 0.65679  0.77778  0.35719  Biso   1.000  O
  H236     1.0000 0.61051  0.12579  0.41899  Biso   1.000  H
  H237     1.0000 0.14537  0.74507  0.22500  Biso   1.000  H
  H238     1.0000 0.21802  0.89999  0.06560  Biso   1.000  H
  O121     1.0000 0.33598  0.91408  0.09211  Biso   1.000  O
  H239     1.0000 0.18872  0.04430  0.07461  Biso   1.000  H
  C145     1.0000 0.83868  0.00011  0.38842  Biso   1.000  C
  H240     1.0000 0.68999  0.74280  0.35031  Biso   1.000  H
  C146     1.0000 0.37452  0.89852  0.04851  Biso   1.000  C
  H241     1.0000 0.83367  0.99682  0.42411  Biso   1.000  H
  O122     1.0000 0.89083  0.94202  0.37194  Biso   1.000  O
  C147     1.0000 0.88132  0.07121  0.37560  Biso   1.000  C
  C148     1.0000 0.41931  0.96803  0.03500  Biso   1.000  C
  H242     1.0000 0.33162  0.88381  0.02369  Biso   1.000  H
  C149     1.0000 0.44177  0.83889  0.05510  Biso   1.000  C
  C150     1.0000 0.89949  0.93958  0.32351  Biso   1.000  C
  H243     1.0000 0.93848  0.07400  0.39131  Biso   1.000  H
  O123     1.0000 0.82833  0.12761  0.39329  Biso   1.000  O
  C151     1.0000 0.89037  0.07502  0.32560  Biso   1.000  C
  H244     1.0000 0.45192  0.98620  0.06352  Biso   1.000  H
  C152     1.0000 0.48057  0.95610  0.99440  Biso   1.000  C
  O124     1.0000 0.35662  0.02130  0.02339  Biso   1.000  O
  H245     1.0000 0.47432  0.84849  0.08541  Biso   1.000  H
  O125     1.0000 0.49938  0.83270  0.01629  Biso   1.000  O
  C153     1.0000 0.39913  0.76489  0.05821  Biso   1.000  C
  H246     1.0000 0.84207  0.93299  0.30839  Biso   1.000  H
  C154     1.0000 0.95332  0.87393  0.31271  Biso   1.000  C
  C155     1.0000 0.93802  0.00982  0.30630  Biso   1.000  C
  H247     1.0000 0.85821  0.16111  0.40570  Biso   1.000  H
  H248     1.0000 0.83282  0.07757  0.31018  Biso   1.000  H
  O126     1.0000 0.93920  0.13902  0.31231  Biso   1.000  O
  C156     1.0000 0.54469  0.89568  0.00659  Biso   1.000  C
  H249     1.0000 0.44821  0.94139  0.96500  Biso   1.000  H
  O127     1.0000 0.52829  0.02027  0.98470  Biso   1.000  O
  H250     1.0000 0.32251  0.03033  0.04591  Biso   1.000  H
  H251     1.0000 0.35492  0.76557  0.08361  Biso   1.000  H
  H252     1.0000 0.37140  0.75263  0.02731  Biso   1.000  H
  O128     1.0000 0.46091  0.71299  0.06890  Biso   1.000  O
  H253     1.0000 0.92637  0.82918  0.32691  Biso   1.000  H
  H254     1.0000 0.95560  0.86689  0.27760  Biso   1.000  H
  O129     1.0000 0.03939  0.88040  0.33090  Biso   1.000  O
  O130     1.0000 0.92559  0.01232  0.25842  Biso   1.000  O
  H255     1.0000 1.00000  0.01261  0.31461  Biso   1.000  H
  H256     1.0000 0.90658  0.17548  0.30879  Biso   1.000  H
  O131     1.0000 0.59872  0.91868  0.04261  Biso   1.000  O
  H257     1.0000 0.57991  0.88608  0.97741  Biso   1.000  H
  H258     1.0000 0.49717  0.05179  0.97130  Biso   1.000  H
  H259     1.0000 0.48467  0.67988  0.08779  Biso   1.000  H
  H260     1.0000 0.06920  0.84570  0.32000  Biso   1.000  H
  C157     1.0000 0.00111  0.00982  0.22968  Biso   1.000  C
  C158     1.0000 0.69240  0.90630  0.03851  Biso   1.000  C
  O132     1.0000 0.01029  0.94088  0.20984  Biso   1.000  O
  C159     1.0000 0.99030  0.06690  0.19351  Biso   1.000  C
  H261     1.0000 0.05201  0.02152  0.24989  Biso   1.000  H
  C160     1.0000 0.73602  0.97950  0.03939  Biso   1.000  C
  H262     1.0000 0.70477  0.88108  0.00721  Biso   1.000  H
  C161     1.0000 0.72547  0.86058  0.07761  Biso   1.000  C
  C162     1.0000 0.93601  0.92032  0.18312  Biso   1.000  C
  C163     1.0000 0.91342  0.04918  0.16240  Biso   1.000  C
  O133     1.0000 0.97793  0.13578  0.21478  Biso   1.000  O
  H263     1.0000 0.04251  0.06889  0.17290  Biso   1.000  H
  C164     1.0000 0.83549  0.97109  0.03818  Biso   1.000  C
  H264     1.0000 0.72001  0.00528  0.06989  Biso   1.000  H
  O134     1.0000 0.70991  0.02311  0.00161  Biso   1.000  O
  H265     1.0000 0.71018  0.88540  0.10862  Biso   1.000  H
  O135     1.0000 0.81870  0.85428  0.07560  Biso   1.000  O
  C165     1.0000 0.69162  0.78608  0.07871  Biso   1.000  C
  C166     1.0000 0.92540  0.97331  0.14340  Biso   1.000  C
  H266     1.0000 0.88471  0.92169  0.20439  Biso   1.000  H
  C167     1.0000 0.95261  0.84372  0.16770  Biso   1.000  C
  H267     1.0000 0.86082  0.05049  0.18271  Biso   1.000  H
  O136     1.0000 0.90678  0.10160  0.12729  Biso   1.000  O
  H268     1.0000 0.02337  0.14981  0.22771  Biso   1.000  H
  C168     1.0000 0.86537  0.92129  0.07571  Biso   1.000  C
  H269     1.0000 0.85027  0.94730  0.00681  Biso   1.000  H
  O137     1.0000 0.87839  0.03617  0.04020  Biso   1.000  O
  H270     1.0000 0.65699  0.01942  0.99821  Biso   1.000  H
  H271     1.0000 0.70848  0.76137  0.10898  Biso   1.000  H
  H272     1.0000 0.62860  0.78812  0.07761  Biso   1.000  H
  O138     1.0000 0.72183  0.74598  0.04042  Biso   1.000  O
  O139     1.0000 0.84988  0.95701  0.11722  Biso   1.000  O
  H273     1.0000 0.97611  0.97172  0.12169  Biso   1.000  H
  H274     1.0000 0.95892  0.81140  0.19630  Biso   1.000  H
  H275     1.0000 0.90359  0.82520  0.14870  Biso   1.000  H
  O140     1.0000 0.02929  0.83963  0.13900  Biso   1.000  O
  H276     1.0000 0.93243  0.08689  0.10269  Biso   1.000  H
  H277     1.0000 0.92767  0.91118  0.07190  Biso   1.000  H
  H278     1.0000 0.92520  0.02970  0.05389  Biso   1.000  H
  H279     1.0000 0.68902  0.71021  0.03500  Biso   1.000  H
  H280     1.0000 0.03170  0.79823  0.12538  Biso   1.000  H
