data_image0
_cell_length_a       12.673
_cell_length_b       16.321
_cell_length_c       16.728
_cell_angle_alpha    90
_cell_angle_beta     80.34
_cell_angle_gamma    90

_symmetry_space_group_name_H-M    "P 1"
_symmetry_int_tables_number       1

loop_
  _symmetry_equiv_pos_as_xyz
  'x, y, z'

loop_
  _atom_site_label
  _atom_site_occupancy
  _atom_site_fract_x
  _atom_site_fract_y
  _atom_site_fract_z
  _atom_site_thermal_displace_type
  _atom_site_B_iso_or_equiv
  _atom_site_type_symbol
  O1       1.0000 0.52018  0.40451  0.47087  Biso   1.000  O
  C1       1.0000 0.58276  0.44268  0.42133  Biso   1.000  C
  N1       1.0000 0.55475  0.49133  0.36111  Biso   1.000  N
  N2       1.0000 0.69028  0.44617  0.41793  Biso   1.000  N
  C2       1.0000 0.44467  0.51523  0.36432  Biso   1.000  C
  C3       1.0000 0.64568  0.53722  0.31860  Biso   1.000  C
  C4       1.0000 0.74306  0.49562  0.35171  Biso   1.000  C
  C5       1.0000 0.74354  0.39949  0.47208  Biso   1.000  C
  N3       1.0000 0.39791  0.48612  0.29580  Biso   1.000  N
  H1       1.0000 0.44005  0.57509  0.36633  Biso   1.000  H
  H2       1.0000 0.40233  0.49390  0.41441  Biso   1.000  H
  N4       1.0000 0.67021  0.51768  0.23170  Biso   1.000  N
  C6       1.0000 0.63545  0.63017  0.33309  Biso   1.000  C
  N5       1.0000 0.79176  0.44832  0.28179  Biso   1.000  N
  C7       1.0000 0.82087  0.55419  0.38088  Biso   1.000  C
  H3       1.0000 0.80794  0.42932  0.48021  Biso   1.000  H
  H4       1.0000 0.69629  0.39618  0.52472  Biso   1.000  H
  N6       1.0000 0.77393  0.31812  0.44601  Biso   1.000  N
  C8       1.0000 0.30778  0.43992  0.30763  Biso   1.000  C
  C9       1.0000 0.41272  0.52619  0.21861  Biso   1.000  C
  C10      1.0000 0.61228  0.54911  0.17119  Biso   1.000  C
  C11      1.0000 0.75369  0.46578  0.21357  Biso   1.000  C
  H5       1.0000 0.62075  0.64101  0.39088  Biso   1.000  H
  H6       1.0000 0.57741  0.65137  0.30799  Biso   1.000  H
  H7       1.0000 0.70175  0.65688  0.30951  Biso   1.000  H
  C12      1.0000 0.88937  0.39942  0.27718  Biso   1.000  C
  H8       1.0000 0.85571  0.58697  0.33582  Biso   1.000  H
  H9       1.0000 0.87425  0.52331  0.40350  Biso   1.000  H
  H10      1.0000 0.78250  0.58979  0.42230  Biso   1.000  H
  C13      1.0000 0.87079  0.29698  0.39313  Biso   1.000  C
  C14      1.0000 0.72098  0.24998  0.48093  Biso   1.000  C
  N7       1.0000 0.26715  0.43570  0.23740  Biso   1.000  N
  O2       1.0000 0.26619  0.40990  0.37251  Biso   1.000  O
  C15      1.0000 0.33009  0.48612  0.17519  Biso   1.000  C
  H11      1.0000 0.40076  0.58599  0.22449  Biso   1.000  H
  N8       1.0000 0.51303  0.50787  0.16579  Biso   1.000  N
  H12      1.0000 0.65866  0.54568  0.11819  Biso   1.000  H
  H13      1.0000 0.59690  0.60719  0.18259  Biso   1.000  H
  O3       1.0000 0.78820  0.44072  0.14432  Biso   1.000  O
  H14      1.0000 0.92382  0.39581  0.22030  Biso   1.000  H
  H15      1.0000 0.93881  0.42798  0.30690  Biso   1.000  H
  N9       1.0000 0.87261  0.31842  0.30902  Biso   1.000  N
  C16      1.0000 0.87079  0.20299  0.39313  Biso   1.000  C
  H16      1.0000 0.93418  0.31910  0.41332  Biso   1.000  H
  N10      1.0000 0.77393  0.18191  0.44601  Biso   1.000  N
  O4       1.0000 0.64254  0.24998  0.53369  Biso   1.000  O
  C17      1.0000 0.16735  0.39887  0.22982  Biso   1.000  C
  N11      1.0000 0.39367  0.43931  0.11115  Biso   1.000  N
  O5       1.0000 0.25346  0.54041  0.15778  Biso   1.000  O
  C18      1.0000 0.49930  0.45892  0.10382  Biso   1.000  C
  C19      1.0000 0.87859  0.24998  0.25960  Biso   1.000  C
  N12      1.0000 0.87261  0.18161  0.30902  Biso   1.000  N
  H17      1.0000 0.93418  0.18087  0.41332  Biso   1.000  H
  C20      1.0000 0.74354  0.10048  0.47208  Biso   1.000  C
  N13      1.0000 0.17576  0.31800  0.19581  Biso   1.000  N
  H18      1.0000 0.13082  0.43410  0.19562  Biso   1.000  H
  H19      1.0000 0.12272  0.39648  0.28349  Biso   1.000  H
  C21      1.0000 0.34794  0.39808  0.04760  Biso   1.000  C
  H20      1.0000 0.20649  0.51492  0.13899  Biso   1.000  H
  O6       1.0000 0.56979  0.43723  0.04742  Biso   1.000  O
  O7       1.0000 0.88905  0.24998  0.18671  Biso   1.000  O
  C22      1.0000 0.88937  0.10061  0.27718  Biso   1.000  C
  N14      1.0000 0.69028  0.05380  0.41793  Biso   1.000  N
  H21      1.0000 0.80794  0.07071  0.48021  Biso   1.000  H
  H22      1.0000 0.69629  0.10379  0.52472  Biso   1.000  H
  C23      1.0000 0.15845  0.24998  0.24329  Biso   1.000  C
  C24      1.0000 0.19912  0.29857  0.10812  Biso   1.000  C
  N15      1.0000 0.30743  0.31787  0.06980  Biso   1.000  N
  H23      1.0000 0.28957  0.43171  0.03359  Biso   1.000  H
  H24      1.0000 0.40295  0.39360  0.99909  Biso   1.000  H
  N16      1.0000 0.79176  0.05171  0.28179  Biso   1.000  N
  H25      1.0000 0.92382  0.10422  0.22030  Biso   1.000  H
  H26      1.0000 0.93881  0.07199  0.30690  Biso   1.000  H
  C25      1.0000 0.58276  0.05729  0.42133  Biso   1.000  C
  C26      1.0000 0.74306  0.00441  0.35171  Biso   1.000  C
  N17      1.0000 0.17576  0.18197  0.19581  Biso   1.000  N
  O8       1.0000 0.12795  0.24998  0.31690  Biso   1.000  O
  C27      1.0000 0.19912  0.20140  0.10812  Biso   1.000  C
  C28      1.0000 0.11497  0.33791  0.06482  Biso   1.000  C
  C29      1.0000 0.36608  0.24998  0.04621  Biso   1.000  C
  C30      1.0000 0.75369  0.03419  0.21357  Biso   1.000  C
  N18      1.0000 0.55475  0.00870  0.36111  Biso   1.000  N
  O9       1.0000 0.52018  0.09552  0.47087  Biso   1.000  O
  C31      1.0000 0.64568  0.96281  0.31860  Biso   1.000  C
  C32      1.0000 0.82087  0.94578  0.38088  Biso   1.000  C
  C33      1.0000 0.16735  0.10110  0.22982  Biso   1.000  C
  C34      1.0000 0.11497  0.16212  0.06482  Biso   1.000  C
  N19      1.0000 0.30743  0.18210  0.06980  Biso   1.000  N
  H27      1.0000 0.04403  0.32290  0.09229  Biso   1.000  H
  H28      1.0000 0.12471  0.31879  0.00910  Biso   1.000  H
  H29      1.0000 0.12265  0.39697  0.06543  Biso   1.000  H
  O10      1.0000 0.45738  0.24998  0.00770  Biso   1.000  O
  N20      1.0000 0.67021  0.98229  0.23170  Biso   1.000  N
  O11      1.0000 0.78820  0.05931  0.14432  Biso   1.000  O
  C35      1.0000 0.44467  0.98480  0.36432  Biso   1.000  C
  C36      1.0000 0.63545  0.86980  0.33309  Biso   1.000  C
  H30      1.0000 0.85571  0.91300  0.33582  Biso   1.000  H
  H31      1.0000 0.87425  0.97672  0.40350  Biso   1.000  H
  H32      1.0000 0.78250  0.91018  0.42230  Biso   1.000  H
  H33      1.0000 0.13082  0.06593  0.19562  Biso   1.000  H
  H34      1.0000 0.12272  0.10349  0.28349  Biso   1.000  H
  N21      1.0000 0.26715  0.06427  0.23740  Biso   1.000  N
  H35      1.0000 0.04403  0.17707  0.09229  Biso   1.000  H
  H36      1.0000 0.12471  0.18118  0.00910  Biso   1.000  H
  H37      1.0000 0.12265  0.10300  0.06543  Biso   1.000  H
  C37      1.0000 0.34794  0.10189  0.04760  Biso   1.000  C
  C38      1.0000 0.61228  0.95092  0.17119  Biso   1.000  C
  N22      1.0000 0.39791  0.01391  0.29580  Biso   1.000  N
  H38      1.0000 0.40233  0.00613  0.41441  Biso   1.000  H
  H39      1.0000 0.44005  0.92488  0.36633  Biso   1.000  H
  H40      1.0000 0.62075  0.85902  0.39088  Biso   1.000  H
  H41      1.0000 0.57741  0.84860  0.30799  Biso   1.000  H
  H42      1.0000 0.70175  0.84309  0.30951  Biso   1.000  H
  C39      1.0000 0.33009  0.01391  0.17519  Biso   1.000  C
  C40      1.0000 0.30778  0.06011  0.30763  Biso   1.000  C
  H43      1.0000 0.28957  0.06832  0.03359  Biso   1.000  H
  N23      1.0000 0.39367  0.06072  0.11115  Biso   1.000  N
  H44      1.0000 0.40295  0.10643  0.99909  Biso   1.000  H
  N24      1.0000 0.51303  0.99210  0.16579  Biso   1.000  N
  H45      1.0000 0.65866  0.95429  0.11819  Biso   1.000  H
  H46      1.0000 0.59690  0.89278  0.18259  Biso   1.000  H
  C41      1.0000 0.41272  0.97378  0.21861  Biso   1.000  C
  O12      1.0000 0.25346  0.95962  0.15778  Biso   1.000  O
  O13      1.0000 0.26619  0.09013  0.37251  Biso   1.000  O
  C42      1.0000 0.49930  0.04111  0.10382  Biso   1.000  C
  H47      1.0000 0.40076  0.91398  0.22449  Biso   1.000  H
  H48      1.0000 0.20649  0.98511  0.13899  Biso   1.000  H
  O14      1.0000 0.56979  0.06280  0.04742  Biso   1.000  O
  O15      1.0000 0.47974  0.59549  0.52914  Biso   1.000  O
  C43      1.0000 0.41716  0.55732  0.57869  Biso   1.000  C
  N25      1.0000 0.30964  0.55383  0.58208  Biso   1.000  N
  N26      1.0000 0.44517  0.50867  0.63890  Biso   1.000  N
  C44      1.0000 0.25686  0.50438  0.64830  Biso   1.000  C
  C45      1.0000 0.25638  0.60051  0.52793  Biso   1.000  C
  C46      1.0000 0.35424  0.46278  0.68141  Biso   1.000  C
  C47      1.0000 0.55525  0.48477  0.63569  Biso   1.000  C
  C48      1.0000 0.17905  0.44581  0.61913  Biso   1.000  C
  N27      1.0000 0.20816  0.55168  0.71822  Biso   1.000  N
  H49      1.0000 0.19198  0.57068  0.51980  Biso   1.000  H
  H50      1.0000 0.30371  0.60382  0.47529  Biso   1.000  H
  N28      1.0000 0.22599  0.68188  0.55401  Biso   1.000  N
  C49      1.0000 0.36447  0.36983  0.66692  Biso   1.000  C
  N29      1.0000 0.32971  0.48232  0.76831  Biso   1.000  N
  H51      1.0000 0.55987  0.42491  0.63369  Biso   1.000  H
  H52      1.0000 0.59759  0.50610  0.58560  Biso   1.000  H
  N30      1.0000 0.60201  0.51388  0.70421  Biso   1.000  N
  H53      1.0000 0.14429  0.41303  0.66419  Biso   1.000  H
  H54      1.0000 0.12567  0.47669  0.59651  Biso   1.000  H
  H55      1.0000 0.21742  0.41021  0.57772  Biso   1.000  H
  C50      1.0000 0.24624  0.53422  0.78638  Biso   1.000  C
  C51      1.0000 0.11055  0.60058  0.72283  Biso   1.000  C
  C52      1.0000 0.12913  0.70302  0.60688  Biso   1.000  C
  C53      1.0000 0.27894  0.75002  0.51908  Biso   1.000  C
  H56      1.0000 0.37917  0.35899  0.60913  Biso   1.000  H
  H57      1.0000 0.42251  0.34863  0.69202  Biso   1.000  H
  H58      1.0000 0.29817  0.34312  0.69051  Biso   1.000  H
  C54      1.0000 0.38764  0.45089  0.82883  Biso   1.000  C
  C55      1.0000 0.58728  0.47381  0.78140  Biso   1.000  C
  C56      1.0000 0.69214  0.56008  0.69239  Biso   1.000  C
  O16      1.0000 0.21172  0.55928  0.85569  Biso   1.000  O
  H59      1.0000 0.07618  0.60419  0.77971  Biso   1.000  H
  H60      1.0000 0.06119  0.57202  0.69311  Biso   1.000  H
  N31      1.0000 0.12739  0.68158  0.69099  Biso   1.000  N
  C57      1.0000 0.12913  0.79701  0.60688  Biso   1.000  C
  H61      1.0000 0.06574  0.68090  0.58669  Biso   1.000  H
  N32      1.0000 0.22599  0.81809  0.55401  Biso   1.000  N
  O17      1.0000 0.35738  0.75002  0.46632  Biso   1.000  O
  H62      1.0000 0.34126  0.45432  0.88182  Biso   1.000  H
  H63      1.0000 0.40302  0.39281  0.81742  Biso   1.000  H
  N33      1.0000 0.48697  0.49213  0.83422  Biso   1.000  N
  C58      1.0000 0.66983  0.51388  0.82482  Biso   1.000  C
  H64      1.0000 0.59916  0.41401  0.77552  Biso   1.000  H
  N34      1.0000 0.73277  0.56430  0.76261  Biso   1.000  N
  O18      1.0000 0.73373  0.59010  0.62750  Biso   1.000  O
  C59      1.0000 0.12134  0.75002  0.74041  Biso   1.000  C
  N35      1.0000 0.12739  0.81839  0.69099  Biso   1.000  N
  H65      1.0000 0.06574  0.81913  0.58669  Biso   1.000  H
  C60      1.0000 0.25638  0.89952  0.52793  Biso   1.000  C
  C61      1.0000 0.50062  0.54108  0.89620  Biso   1.000  C
  N36      1.0000 0.60626  0.56069  0.88880  Biso   1.000  N
  O19      1.0000 0.74646  0.45959  0.84223  Biso   1.000  O
  C62      1.0000 0.83257  0.60113  0.77019  Biso   1.000  C
  O20      1.0000 0.11087  0.75002  0.81330  Biso   1.000  O
  C63      1.0000 0.11055  0.89939  0.72283  Biso   1.000  C
  H66      1.0000 0.19198  0.92929  0.51980  Biso   1.000  H
  H67      1.0000 0.30371  0.89621  0.47529  Biso   1.000  H
  N37      1.0000 0.30964  0.94620  0.58208  Biso   1.000  N
  O21      1.0000 0.43013  0.56277  0.95259  Biso   1.000  O
  C64      1.0000 0.65206  0.60192  0.95241  Biso   1.000  C
  H68      1.0000 0.79343  0.48508  0.86102  Biso   1.000  H
  H69      1.0000 0.86918  0.56590  0.80439  Biso   1.000  H
  H70      1.0000 0.87728  0.60352  0.71652  Biso   1.000  H
  N38      1.0000 0.82416  0.68200  0.80421  Biso   1.000  N
  H71      1.0000 0.07618  0.89578  0.77971  Biso   1.000  H
  H72      1.0000 0.06119  0.92801  0.69311  Biso   1.000  H
  N39      1.0000 0.20816  0.94829  0.71822  Biso   1.000  N
  C65      1.0000 0.25686  0.99559  0.64830  Biso   1.000  C
  C66      1.0000 0.41716  0.94271  0.57869  Biso   1.000  C
  H73      1.0000 0.71035  0.56829  0.96642  Biso   1.000  H
  N40      1.0000 0.69257  0.68213  0.93021  Biso   1.000  N
  H74      1.0000 0.59697  0.60640  0.00092  Biso   1.000  H
  C67      1.0000 0.80087  0.70143  0.89189  Biso   1.000  C
  C68      1.0000 0.84147  0.75002  0.75672  Biso   1.000  C
  C69      1.0000 0.24624  0.96581  0.78638  Biso   1.000  C
  C70      1.0000 0.35424  0.03719  0.68141  Biso   1.000  C
  C71      1.0000 0.17905  0.05422  0.61913  Biso   1.000  C
  N41      1.0000 0.44517  0.99130  0.63890  Biso   1.000  N
  O22      1.0000 0.47974  0.90448  0.52914  Biso   1.000  O
  C72      1.0000 0.63384  0.75002  0.95380  Biso   1.000  C
  C73      1.0000 0.80087  0.79860  0.89189  Biso   1.000  C
  C74      1.0000 0.88495  0.66209  0.93519  Biso   1.000  C
  N42      1.0000 0.82416  0.81803  0.80421  Biso   1.000  N
  O23      1.0000 0.87197  0.75002  0.68311  Biso   1.000  O
  O24      1.0000 0.21172  0.94069  0.85569  Biso   1.000  O
  N43      1.0000 0.32971  0.01771  0.76831  Biso   1.000  N
  C75      1.0000 0.36447  0.13020  0.66692  Biso   1.000  C
  H75      1.0000 0.14429  0.08700  0.66419  Biso   1.000  H
  H76      1.0000 0.12567  0.02328  0.59651  Biso   1.000  H
  H77      1.0000 0.21742  0.08982  0.57772  Biso   1.000  H
  C76      1.0000 0.55525  0.01520  0.63569  Biso   1.000  C
  N44      1.0000 0.69257  0.81790  0.93021  Biso   1.000  N
  O25      1.0000 0.54254  0.75002  0.99231  Biso   1.000  O
  C77      1.0000 0.88495  0.83788  0.93519  Biso   1.000  C
  H78      1.0000 0.95589  0.67710  0.90772  Biso   1.000  H
  H79      1.0000 0.87521  0.68121  0.99092  Biso   1.000  H
  H80      1.0000 0.87727  0.60303  0.93458  Biso   1.000  H
  C78      1.0000 0.83257  0.89890  0.77019  Biso   1.000  C
  C79      1.0000 0.38764  0.04908  0.82883  Biso   1.000  C
  H81      1.0000 0.37917  0.14098  0.60913  Biso   1.000  H
  H82      1.0000 0.42251  0.15140  0.69202  Biso   1.000  H
  H83      1.0000 0.29817  0.15691  0.69051  Biso   1.000  H
  H84      1.0000 0.59759  0.99387  0.58560  Biso   1.000  H
  N45      1.0000 0.60201  0.98609  0.70421  Biso   1.000  N
  H85      1.0000 0.55987  0.07512  0.63369  Biso   1.000  H
  C80      1.0000 0.65206  0.89811  0.95241  Biso   1.000  C
  H86      1.0000 0.95589  0.82293  0.90772  Biso   1.000  H
  H87      1.0000 0.87521  0.81882  0.99092  Biso   1.000  H
  H88      1.0000 0.87727  0.89700  0.93458  Biso   1.000  H
  H89      1.0000 0.86918  0.93407  0.80439  Biso   1.000  H
  H90      1.0000 0.87728  0.89651  0.71652  Biso   1.000  H
  N46      1.0000 0.73277  0.93573  0.76261  Biso   1.000  N
  H91      1.0000 0.34126  0.04571  0.88182  Biso   1.000  H
  H92      1.0000 0.40302  0.10722  0.81742  Biso   1.000  H
  N47      1.0000 0.48697  0.00790  0.83422  Biso   1.000  N
  C81      1.0000 0.58728  0.02622  0.78140  Biso   1.000  C
  C82      1.0000 0.69214  0.93989  0.69239  Biso   1.000  C
  H93      1.0000 0.71035  0.93168  0.96642  Biso   1.000  H
  N48      1.0000 0.60626  0.93928  0.88880  Biso   1.000  N
  H94      1.0000 0.59697  0.89357  0.00092  Biso   1.000  H
  C83      1.0000 0.66983  0.98609  0.82482  Biso   1.000  C
  C84      1.0000 0.50062  0.95889  0.89620  Biso   1.000  C
  H95      1.0000 0.59916  0.08602  0.77552  Biso   1.000  H
  O26      1.0000 0.73373  0.90987  0.62750  Biso   1.000  O
  O27      1.0000 0.74646  0.04038  0.84223  Biso   1.000  O
  O28      1.0000 0.43013  0.93720  0.95259  Biso   1.000  O
  H96      1.0000 0.79343  0.01489  0.86102  Biso   1.000  H
