data_image0
_cell_length_a       11.483
_cell_length_b       16.512
_cell_length_c       13.051
_cell_angle_alpha    90
_cell_angle_beta     94.82
_cell_angle_gamma    90

_symmetry_space_group_name_H-M    "P 1"
_symmetry_int_tables_number       1

loop_
  _symmetry_equiv_pos_as_xyz
  'x, y, z'

loop_
  _atom_site_label
  _atom_site_occupancy
  _atom_site_fract_x
  _atom_site_fract_y
  _atom_site_fract_z
  _atom_site_thermal_displace_type
  _atom_site_B_iso_or_equiv
  _atom_site_type_symbol
  C1       1.0000 0.43520  0.48110  0.44353  Biso   1.000  C
  N1       1.0000 0.31054  0.47220  0.47052  Biso   1.000  N
  H1       1.0000 0.48469  0.44319  0.48390  Biso   1.000  H
  H2       1.0000 0.43981  0.46839  0.37140  Biso   1.000  H
  C2       1.0000 0.47686  0.56407  0.46398  Biso   1.000  C
  C3       1.0000 0.28578  0.38917  0.50481  Biso   1.000  C
  C4       1.0000 0.23091  0.50073  0.38347  Biso   1.000  C
  N2       1.0000 0.48726  0.58648  0.57471  Biso   1.000  N
  H3       1.0000 0.42352  0.60150  0.42699  Biso   1.000  H
  H4       1.0000 0.55269  0.57031  0.43730  Biso   1.000  H
  H5       1.0000 0.35179  0.35429  0.49482  Biso   1.000  H
  H6       1.0000 0.21792  0.36779  0.46452  Biso   1.000  H
  C5       1.0000 0.26382  0.39038  0.61500  Biso   1.000  C
  H7       1.0000 0.23916  0.46572  0.32488  Biso   1.000  H
  H8       1.0000 0.25438  0.55481  0.36479  Biso   1.000  H
  C6       1.0000 0.10374  0.50273  0.40508  Biso   1.000  C
  H9       1.0000 0.42300  0.56728  0.60301  Biso   1.000  H
  C7       1.0000 0.49006  0.67448  0.58847  Biso   1.000  C
  C8       1.0000 0.59219  0.55111  0.63299  Biso   1.000  C
  N3       1.0000 0.24702  0.30911  0.65522  Biso   1.000  N
  H10      1.0000 0.32947  0.41582  0.65406  Biso   1.000  H
  H11      1.0000 0.19481  0.42272  0.62369  Biso   1.000  H
  N4       1.0000 0.07940  0.55148  0.49489  Biso   1.000  N
  H12      1.0000 0.05829  0.52398  0.34503  Biso   1.000  H
  H13      1.0000 0.07766  0.44767  0.41561  Biso   1.000  H
  N5       1.0000 0.48662  0.69222  0.69659  Biso   1.000  N
  H14      1.0000 0.56093  0.69658  0.56371  Biso   1.000  H
  H15      1.0000 0.42346  0.69901  0.54949  Biso   1.000  H
  N6       1.0000 0.59723  0.57201  0.74049  Biso   1.000  N
  H16      1.0000 0.59030  0.49267  0.62592  Biso   1.000  H
  H17      1.0000 0.66208  0.57080  0.60424  Biso   1.000  H
  C9       1.0000 0.32139  0.28797  0.73819  Biso   1.000  C
  C10      1.0000 0.12873  0.29312  0.67859  Biso   1.000  C
  C11      1.0000 0.09152  0.63990  0.47590  Biso   1.000  C
  C12      1.0000 0.95388  0.53888  0.51558  Biso   1.000  C
  C13      1.0000 0.47123  0.78113  0.71320  Biso   1.000  C
  C14      1.0000 0.59151  0.65952  0.75257  Biso   1.000  C
  C15      1.0000 0.51131  0.52628  0.79647  Biso   1.000  C
  N7       1.0000 0.29961  0.33043  0.83753  Biso   1.000  N
  H18      1.0000 0.40070  0.29960  0.72242  Biso   1.000  H
  H19      1.0000 0.31560  0.23008  0.74872  Biso   1.000  H
  N8       1.0000 0.09892  0.33503  0.77502  Biso   1.000  N
  H20      1.0000 0.11841  0.23522  0.68644  Biso   1.000  H
  H21      1.0000 0.07521  0.31099  0.62161  Biso   1.000  H
  N9       1.0000 0.06509  0.68362  0.56579  Biso   1.000  N
  H22      1.0000 0.17063  0.65201  0.45991  Biso   1.000  H
  H23      1.0000 0.03841  0.65613  0.41769  Biso   1.000  H
  N10      1.0000 0.92040  0.58382  0.60093  Biso   1.000  N
  H24      1.0000 0.90428  0.55438  0.45491  Biso   1.000  H
  H25      1.0000 0.94121  0.48177  0.52788  Biso   1.000  H
  C16      1.0000 0.35324  0.81123  0.68052  Biso   1.000  C
  H26      1.0000 0.48843  0.79288  0.78571  Biso   1.000  H
  H27      1.0000 0.52747  0.81032  0.67567  Biso   1.000  H
  H28      1.0000 0.59111  0.67272  0.82500  Biso   1.000  H
  H29      1.0000 0.66023  0.68411  0.72711  Biso   1.000  H
  H30      1.0000 0.44622  0.56171  0.80793  Biso   1.000  H
  H31      1.0000 0.48129  0.48171  0.75380  Biso   1.000  H
  C17      1.0000 0.56014  0.49400  0.89644  Biso   1.000  C
  C18      1.0000 0.38440  0.30663  0.92742  Biso   1.000  C
  C19      1.0000 0.17540  0.30820  0.85999  Biso   1.000  C
  C20      1.0000 0.97687  0.32510  0.79740  Biso   1.000  C
  C21      1.0000 0.09951  0.76768  0.56779  Biso   1.000  C
  C22      1.0000 0.94448  0.66951  0.58317  Biso   1.000  C
  C23      1.0000 0.97479  0.55971  0.70174  Biso   1.000  C
  N11      1.0000 0.25423  0.76369  0.71889  Biso   1.000  N
  H32      1.0000 0.34386  0.81159  0.60600  Biso   1.000  H
  H33      1.0000 0.34726  0.86670  0.70358  Biso   1.000  H
  N12      1.0000 0.47173  0.44440  0.94373  Biso   1.000  N
  H34      1.0000 0.58432  0.53852  0.94180  Biso   1.000  H
  H35      1.0000 0.62823  0.46118  0.88636  Biso   1.000  H
  C24      1.0000 0.49203  0.35750  0.92919  Biso   1.000  C
  H36      1.0000 0.34781  0.31371  0.99109  Biso   1.000  H
  H37      1.0000 0.40517  0.24988  0.92150  Biso   1.000  H
  H38      1.0000 0.16862  0.25000  0.86837  Biso   1.000  H
  H39      1.0000 0.15562  0.33430  0.92281  Biso   1.000  H
  H40      1.0000 0.92751  0.33049  0.73373  Biso   1.000  H
  H41      1.0000 0.96661  0.27071  0.82308  Biso   1.000  H
  C25      1.0000 0.93714  0.38257  0.87191  Biso   1.000  C
  H42      1.0000 0.03416  0.80008  0.53918  Biso   1.000  H
  H43      1.0000 0.16308  0.77471  0.52404  Biso   1.000  H
  C26      1.0000 0.13834  0.79912  0.67436  Biso   1.000  C
  H44      1.0000 0.89512  0.68829  0.52404  Biso   1.000  H
  H45      1.0000 0.92497  0.70070  0.64238  Biso   1.000  H
  H46      1.0000 0.05111  0.53652  0.69382  Biso   1.000  H
  C27      1.0000 0.90172  0.49982  0.75087  Biso   1.000  C
  H47      1.0000 0.98559  0.60701  0.74549  Biso   1.000  H
  H48      1.0000 0.25916  0.71142  0.69759  Biso   1.000  H
  C28      1.0000 0.25969  0.76538  0.83438  Biso   1.000  C
  C29      1.0000 0.46270  0.46203  0.05338  Biso   1.000  C
  H49      1.0000 0.54744  0.33860  0.98417  Biso   1.000  H
  H50      1.0000 0.52743  0.34999  0.86491  Biso   1.000  H
  N13      1.0000 0.95826  0.47281  0.85422  Biso   1.000  N
  H51      1.0000 0.97446  0.36852  0.93903  Biso   1.000  H
  H52      1.0000 0.85383  0.37482  0.87498  Biso   1.000  H
  H53      1.0000 0.07853  0.78640  0.72019  Biso   1.000  H
  H54      1.0000 0.14538  0.85762  0.67152  Biso   1.000  H
  H55      1.0000 0.88936  0.45300  0.70628  Biso   1.000  H
  H56      1.0000 0.82596  0.52350  0.76010  Biso   1.000  H
  H57      1.0000 0.22862  0.81650  0.85653  Biso   1.000  H
  H58      1.0000 0.34069  0.76187  0.86191  Biso   1.000  H
  C30      1.0000 0.19153  0.69640  0.87760  Biso   1.000  C
  H59      1.0000 0.53740  0.44998  0.09059  Biso   1.000  H
  H60      1.0000 0.40539  0.42563  0.07883  Biso   1.000  H
  C31      1.0000 0.42931  0.54730  0.07768  Biso   1.000  C
  H61      1.0000 0.03682  0.48008  0.85337  Biso   1.000  H
  C32      1.0000 0.91953  0.52180  0.93742  Biso   1.000  C
  N14      1.0000 0.20112  0.69622  0.98709  Biso   1.000  N
  H62      1.0000 0.10981  0.70119  0.85261  Biso   1.000  H
  H63      1.0000 0.22028  0.64529  0.85307  Biso   1.000  H
  N15      1.0000 0.31700  0.57498  0.02323  Biso   1.000  N
  H64      1.0000 0.42353  0.55178  0.15119  Biso   1.000  H
  H65      1.0000 0.49119  0.58339  0.05991  Biso   1.000  H
  H66      1.0000 0.84557  0.50042  0.95634  Biso   1.000  H
  H67      1.0000 0.90527  0.57649  0.91212  Biso   1.000  H
  C33      1.0000 0.00402  0.52580  0.03331  Biso   1.000  C
  C34      1.0000 0.30611  0.66388  0.03508  Biso   1.000  C
  C35      1.0000 0.10369  0.65558  0.02739  Biso   1.000  C
  C36      1.0000 0.21574  0.53821  0.06537  Biso   1.000  C
  H68      1.0000 0.96824  0.55481  0.08721  Biso   1.000  H
  N16      1.0000 0.11039  0.56728  0.00909  Biso   1.000  N
  H69      1.0000 0.02272  0.47148  0.05768  Biso   1.000  H
  H70      1.0000 0.31054  0.67678  0.10789  Biso   1.000  H
  H71      1.0000 0.37173  0.68992  0.00639  Biso   1.000  H
  H72      1.0000 0.03113  0.67672  0.99440  Biso   1.000  H
  H73      1.0000 0.10441  0.66588  0.10059  Biso   1.000  H
  H74      1.0000 0.22000  0.47971  0.05984  Biso   1.000  H
  H75      1.0000 0.21496  0.55220  0.13750  Biso   1.000  H
  C37      1.0000 0.64681  0.31123  0.31950  Biso   1.000  C
  C38      1.0000 0.52883  0.28113  0.28682  Biso   1.000  C
  N17      1.0000 0.74582  0.26369  0.28113  Biso   1.000  N
  H76      1.0000 0.65611  0.31159  0.39401  Biso   1.000  H
  H77      1.0000 0.65271  0.36670  0.29643  Biso   1.000  H
  N18      1.0000 0.51343  0.19222  0.30343  Biso   1.000  N
  H78      1.0000 0.51163  0.29288  0.21430  Biso   1.000  H
  H79      1.0000 0.47249  0.31032  0.32426  Biso   1.000  H
  H80      1.0000 0.74080  0.21142  0.30243  Biso   1.000  H
  C39      1.0000 0.86171  0.29912  0.32557  Biso   1.000  C
  C40      1.0000 0.74028  0.26538  0.16563  Biso   1.000  C
  C41      1.0000 0.40854  0.15952  0.24737  Biso   1.000  C
  C42      1.0000 0.50990  0.17448  0.41146  Biso   1.000  C
  C43      1.0000 0.90046  0.26768  0.43222  Biso   1.000  C
  H81      1.0000 0.92152  0.28640  0.27982  Biso   1.000  H
  H82      1.0000 0.85459  0.35762  0.32849  Biso   1.000  H
  H83      1.0000 0.77143  0.31650  0.14348  Biso   1.000  H
  H84      1.0000 0.65927  0.26187  0.13810  Biso   1.000  H
  C44      1.0000 0.80852  0.19640  0.12242  Biso   1.000  C
  N19      1.0000 0.40282  0.07201  0.25952  Biso   1.000  N
  H85      1.0000 0.40886  0.17272  0.17501  Biso   1.000  H
  H86      1.0000 0.33983  0.18411  0.27290  Biso   1.000  H
  N20      1.0000 0.51271  0.08648  0.42530  Biso   1.000  N
  H87      1.0000 0.43912  0.19658  0.43630  Biso   1.000  H
  H88      1.0000 0.57651  0.19901  0.45052  Biso   1.000  H
  N21      1.0000 0.93488  0.18362  0.43422  Biso   1.000  N
  H89      1.0000 0.96581  0.30008  0.46083  Biso   1.000  H
  H90      1.0000 0.83689  0.27471  0.47598  Biso   1.000  H
  N22      1.0000 0.79893  0.19622  0.01292  Biso   1.000  N
  H91      1.0000 0.89024  0.20119  0.14741  Biso   1.000  H
  H92      1.0000 0.77968  0.14529  0.14687  Biso   1.000  H
  C45      1.0000 0.40777  0.05111  0.36702  Biso   1.000  C
  C46      1.0000 0.48873  0.02628  0.20346  Biso   1.000  C
  H93      1.0000 0.57697  0.06728  0.39701  Biso   1.000  H
  C47      1.0000 0.52311  0.06407  0.53603  Biso   1.000  C
  C48      1.0000 0.90854  0.13990  0.52411  Biso   1.000  C
  C49      1.0000 0.05548  0.16951  0.41677  Biso   1.000  C
  C50      1.0000 0.69394  0.16388  0.96494  Biso   1.000  C
  C51      1.0000 0.89628  0.15558  0.97263  Biso   1.000  C
  H94      1.0000 0.33789  0.07080  0.39578  Biso   1.000  H
  H95      1.0000 0.40967  0.99267  0.37409  Biso   1.000  H
  H96      1.0000 0.55383  0.06171  0.19208  Biso   1.000  H
  H97      1.0000 0.51868  0.98171  0.24622  Biso   1.000  H
  C52      1.0000 0.43992  0.99400  0.10358  Biso   1.000  C
  H98      1.0000 0.57654  0.10150  0.57302  Biso   1.000  H
  H99      1.0000 0.44728  0.07031  0.56271  Biso   1.000  H
  C53      1.0000 0.56477  0.98110  0.55648  Biso   1.000  C
  N23      1.0000 0.92057  0.05148  0.50512  Biso   1.000  N
  H100     1.0000 0.82943  0.15201  0.54011  Biso   1.000  H
  H101     1.0000 0.96156  0.15613  0.58232  Biso   1.000  H
  N24      1.0000 0.07956  0.08382  0.39908  Biso   1.000  N
  H102     1.0000 0.10493  0.18829  0.47598  Biso   1.000  H
  H103     1.0000 0.07500  0.20070  0.35764  Biso   1.000  H
  N25      1.0000 0.68297  0.07498  0.97678  Biso   1.000  N
  H104     1.0000 0.68951  0.17678  0.89212  Biso   1.000  H
  H105     1.0000 0.62832  0.18992  0.99362  Biso   1.000  H
  H106     1.0000 0.96892  0.17672  0.00561  Biso   1.000  H
  N26      1.0000 0.88958  0.06728  0.99093  Biso   1.000  N
  H107     1.0000 0.89556  0.16588  0.89942  Biso   1.000  H
  H108     1.0000 0.41573  0.03852  0.05821  Biso   1.000  H
  N27      1.0000 0.52832  0.94440  0.05629  Biso   1.000  N
  H109     1.0000 0.37181  0.96118  0.11357  Biso   1.000  H
  N28      1.0000 0.68951  0.97220  0.52949  Biso   1.000  N
  H110     1.0000 0.51528  0.94319  0.51612  Biso   1.000  H
  H111     1.0000 0.56016  0.96839  0.62861  Biso   1.000  H
  C54      1.0000 0.89632  0.00273  0.59493  Biso   1.000  C
  C55      1.0000 0.04609  0.03888  0.48443  Biso   1.000  C
  C56      1.0000 0.02518  0.05971  0.29827  Biso   1.000  C
  C57      1.0000 0.57074  0.04730  0.92234  Biso   1.000  C
  C58      1.0000 0.78431  0.03821  0.93456  Biso   1.000  C
  C59      1.0000 0.99604  0.02580  0.96670  Biso   1.000  C
  C60      1.0000 0.53727  0.96203  0.94664  Biso   1.000  C
  C61      1.0000 0.50803  0.85750  0.07082  Biso   1.000  C
  C62      1.0000 0.76914  0.00073  0.61646  Biso   1.000  C
  C63      1.0000 0.71419  0.88917  0.49520  Biso   1.000  C
  H112     1.0000 0.94168  0.02398  0.65499  Biso   1.000  H
  H113     1.0000 0.92231  0.94767  0.58440  Biso   1.000  H
  H114     1.0000 0.05876  0.98177  0.47213  Biso   1.000  H
  H115     1.0000 0.09569  0.05438  0.54510  Biso   1.000  H
  H116     1.0000 0.94886  0.03652  0.30619  Biso   1.000  H
  C64      1.0000 0.09834  0.99982  0.24914  Biso   1.000  C
  H117     1.0000 0.01438  0.10701  0.25452  Biso   1.000  H
  H118     1.0000 0.57652  0.05178  0.84883  Biso   1.000  H
  H119     1.0000 0.50878  0.08339  0.94010  Biso   1.000  H
  H120     1.0000 0.77997  0.97971  0.94018  Biso   1.000  H
  H121     1.0000 0.78501  0.05220  0.86251  Biso   1.000  H
  H122     1.0000 0.97734  0.97148  0.94233  Biso   1.000  H
  H123     1.0000 0.03182  0.05481  0.91280  Biso   1.000  H
  C65      1.0000 0.08052  0.02180  0.06259  Biso   1.000  C
  H124     1.0000 0.46257  0.94998  0.90942  Biso   1.000  H
  H125     1.0000 0.59458  0.92563  0.92118  Biso   1.000  H
  H126     1.0000 0.45261  0.83860  0.01576  Biso   1.000  H
  H127     1.0000 0.47263  0.84999  0.13510  Biso   1.000  H
  C66      1.0000 0.61557  0.80663  0.07259  Biso   1.000  C
  H128     1.0000 0.74559  0.05481  0.63522  Biso   1.000  H
  H129     1.0000 0.76081  0.96572  0.67513  Biso   1.000  H
  H130     1.0000 0.64818  0.85429  0.50520  Biso   1.000  H
  H131     1.0000 0.78213  0.86779  0.53549  Biso   1.000  H
  C67      1.0000 0.73624  0.89038  0.38501  Biso   1.000  C
  N29      1.0000 0.04170  0.97281  0.14579  Biso   1.000  N
  H132     1.0000 0.11061  0.95300  0.29374  Biso   1.000  H
  H133     1.0000 0.17400  0.02350  0.23991  Biso   1.000  H
  H134     1.0000 0.15439  0.00042  0.04368  Biso   1.000  H
  H135     1.0000 0.09469  0.07649  0.08789  Biso   1.000  H
  N30      1.0000 0.70035  0.83043  0.16248  Biso   1.000  N
  H136     1.0000 0.65216  0.81371  0.00892  Biso   1.000  H
  H137     1.0000 0.59480  0.74988  0.07851  Biso   1.000  H
  N31      1.0000 0.75304  0.80911  0.34479  Biso   1.000  N
  H138     1.0000 0.67049  0.91582  0.34587  Biso   1.000  H
  H139     1.0000 0.80516  0.92272  0.37632  Biso   1.000  H
  C68      1.0000 0.06292  0.88257  0.12811  Biso   1.000  C
  H140     1.0000 0.96323  0.98008  0.14664  Biso   1.000  H
  C69      1.0000 0.67858  0.78797  0.26183  Biso   1.000  C
  C70      1.0000 0.82457  0.80820  0.14002  Biso   1.000  C
  C71      1.0000 0.87133  0.79312  0.32142  Biso   1.000  C
  C72      1.0000 0.02309  0.82510  0.20262  Biso   1.000  C
  H141     1.0000 0.02550  0.86852  0.06098  Biso   1.000  H
  H142     1.0000 0.14623  0.87482  0.12503  Biso   1.000  H
  H143     1.0000 0.59927  0.79960  0.27759  Biso   1.000  H
  H144     1.0000 0.68437  0.73008  0.25129  Biso   1.000  H
  N32      1.0000 0.90113  0.83503  0.22499  Biso   1.000  N
  H145     1.0000 0.83143  0.75000  0.13157  Biso   1.000  H
  H146     1.0000 0.84444  0.83430  0.07720  Biso   1.000  H
  H147     1.0000 0.88164  0.73522  0.31358  Biso   1.000  H
  H148     1.0000 0.92484  0.81099  0.37840  Biso   1.000  H
  H149     1.0000 0.07246  0.83049  0.26629  Biso   1.000  H
  H150     1.0000 0.03344  0.77071  0.17693  Biso   1.000  H
