data_image0
_cell_length_a       12.101
_cell_length_b       23.967
_cell_length_c       26.794
_cell_angle_alpha    66.53
_cell_angle_beta     81.38
_cell_angle_gamma    83.47

_symmetry_space_group_name_H-M    "P 1"
_symmetry_int_tables_number       1

loop_
  _symmetry_equiv_pos_as_xyz
  'x, y, z'

loop_
  _atom_site_label
  _atom_site_occupancy
  _atom_site_fract_x
  _atom_site_fract_y
  _atom_site_fract_z
  _atom_site_thermal_displace_type
  _atom_site_B_iso_or_equiv
  _atom_site_type_symbol
  C1       1.0000 0.47773  0.54532  0.55519  Biso   1.000  C
  O1       1.0000 0.36842  0.54016  0.58456  Biso   1.000  O
  H1       1.0000 0.49203  0.51549  0.53861  Biso   1.000  H
  H2       1.0000 0.48448  0.58568  0.52640  Biso   1.000  H
  C2       1.0000 0.55962  0.53439  0.59501  Biso   1.000  C
  C3       1.0000 0.27860  0.54889  0.55569  Biso   1.000  C
  H3       1.0000 0.55642  0.49330  0.62159  Biso   1.000  H
  H4       1.0000 0.63374  0.54071  0.57580  Biso   1.000  H
  H5       1.0000 0.54146  0.56219  0.61319  Biso   1.000  H
  C4       1.0000 0.28889  0.56221  0.49945  Biso   1.000  C
  C5       1.0000 0.17324  0.54391  0.58522  Biso   1.000  C
  C6       1.0000 0.19534  0.57265  0.47197  Biso   1.000  C
  H6       1.0000 0.35977  0.56411  0.48008  Biso   1.000  H
  C7       1.0000 0.07912  0.55396  0.55794  Biso   1.000  C
  C8       1.0000 0.15873  0.53131  0.64620  Biso   1.000  C
  C9       1.0000 0.20753  0.59131  0.41036  Biso   1.000  C
  C10      1.0000 0.08978  0.56890  0.50174  Biso   1.000  C
  H7       1.0000 0.00826  0.55069  0.57748  Biso   1.000  H
  C11      1.0000 0.14882  0.59038  0.65538  Biso   1.000  C
  H8       1.0000 0.22253  0.50613  0.66279  Biso   1.000  H
  H9       1.0000 0.09206  0.50910  0.66369  Biso   1.000  H
  C12      1.0000 0.21829  0.65901  0.38079  Biso   1.000  C
  H10      1.0000 0.14262  0.57969  0.40021  Biso   1.000  H
  H11      1.0000 0.27320  0.56980  0.39939  Biso   1.000  H
  O2       1.0000 0.99985  0.58130  0.47197  Biso   1.000  O
  C13      1.0000 0.24483  0.61700  0.65579  Biso   1.000  C
  C14      1.0000 0.04532  0.62064  0.66087  Biso   1.000  C
  C15      1.0000 0.32102  0.68429  0.36834  Biso   1.000  C
  C16      1.0000 0.12417  0.69810  0.36670  Biso   1.000  C
  C17      1.0000 0.89005  0.58180  0.50019  Biso   1.000  C
  C18      1.0000 0.23915  0.67279  0.66070  Biso   1.000  C
  H12      1.0000 0.31443  0.59693  0.65268  Biso   1.000  H
  C19      1.0000 0.03958  0.67553  0.66730  Biso   1.000  C
  O3       1.0000 0.95046  0.59264  0.66193  Biso   1.000  O
  O4       1.0000 0.41282  0.64399  0.38153  Biso   1.000  O
  C20      1.0000 0.33072  0.74790  0.34377  Biso   1.000  C
  C21      1.0000 0.13649  0.76258  0.34061  Biso   1.000  C
  H13      1.0000 0.05369  0.68260  0.37420  Biso   1.000  H
  C22      1.0000 0.80880  0.60051  0.45841  Biso   1.000  C
  H14      1.0000 0.87515  0.54161  0.52779  Biso   1.000  H
  H15      1.0000 0.88316  0.61039  0.51800  Biso   1.000  H
  O5       1.0000 0.33135  0.70206  0.65984  Biso   1.000  O
  C23      1.0000 0.13501  0.70251  0.66697  Biso   1.000  C
  H16      1.0000 0.96982  0.69470  0.67201  Biso   1.000  H
  C24      1.0000 0.86158  0.63009  0.63539  Biso   1.000  C
  C25      1.0000 0.52202  0.66729  0.36510  Biso   1.000  C
  H17      1.0000 0.40083  0.76351  0.33680  Biso   1.000  H
  C26      1.0000 0.23808  0.78690  0.33000  Biso   1.000  C
  O6       1.0000 0.04420  0.80318  0.32595  Biso   1.000  O
  H18      1.0000 0.81841  0.57290  0.43998  Biso   1.000  H
  H19      1.0000 0.73374  0.59958  0.47631  Biso   1.000  H
  H20      1.0000 0.82218  0.64101  0.43219  Biso   1.000  H
  C27      1.0000 0.43954  0.67297  0.65435  Biso   1.000  C
  C28      1.0000 0.12583  0.76211  0.67385  Biso   1.000  C
  H21      1.0000 0.83267  0.65802  0.65300  Biso   1.000  H
  H22      1.0000 0.88747  0.65388  0.59750  Biso   1.000  H
  C29      1.0000 0.77120  0.59071  0.63838  Biso   1.000  C
  H23      1.0000 0.52968  0.69350  0.32648  Biso   1.000  H
  H24      1.0000 0.53391  0.69078  0.38579  Biso   1.000  H
  C30      1.0000 0.60483  0.61421  0.37571  Biso   1.000  C
  C31      1.0000 0.24630  0.85508  0.30301  Biso   1.000  C
  C32      1.0000 0.94399  0.78070  0.32169  Biso   1.000  C
  H25      1.0000 0.44828  0.63530  0.68597  Biso   1.000  H
  H26      1.0000 0.44956  0.66352  0.62187  Biso   1.000  H
  C33      1.0000 0.52426  0.71668  0.64981  Biso   1.000  C
  C34      1.0000 0.13697  0.81776  0.62093  Biso   1.000  C
  C35      1.0000 0.10937  0.76459  0.72325  Biso   1.000  C
  H27      1.0000 0.74207  0.56960  0.67598  Biso   1.000  H
  H28      1.0000 0.71214  0.61560  0.61819  Biso   1.000  H
  H29      1.0000 0.80160  0.56149  0.62290  Biso   1.000  H
  H30      1.0000 0.59136  0.59082  0.35548  Biso   1.000  H
  H31      1.0000 0.67914  0.62842  0.36429  Biso   1.000  H
  H32      1.0000 0.59767  0.58911  0.41409  Biso   1.000  H
  C36      1.0000 0.22849  0.88538  0.34409  Biso   1.000  C
  H33      1.0000 0.31946  0.86398  0.28220  Biso   1.000  H
  H34      1.0000 0.19059  0.87218  0.27749  Biso   1.000  H
  H35      1.0000 0.92584  0.74017  0.33541  Biso   1.000  H
  C37      1.0000 0.87193  0.83719  0.28958  Biso   1.000  C
  H36      1.0000 0.51121  0.72710  0.68131  Biso   1.000  H
  H37      1.0000 0.59820  0.69790  0.64768  Biso   1.000  H
  H38      1.0000 0.51706  0.75289  0.61729  Biso   1.000  H
  C38      1.0000 0.04347  0.84459  0.59312  Biso   1.000  C
  C39      1.0000 0.24036  0.84139  0.59840  Biso   1.000  C
  C40      1.0000 0.09429  0.82293  0.73209  Biso   1.000  C
  C41      1.0000 0.10605  0.70797  0.77444  Biso   1.000  C
  C42      1.0000 0.12109  0.90879  0.35700  Biso   1.000  C
  C43      1.0000 0.31631  0.89071  0.36969  Biso   1.000  C
  H39      1.0000 0.91488  0.86140  0.25628  Biso   1.000  H
  H40      1.0000 0.80699  0.82468  0.28110  Biso   1.000  H
  H41      1.0000 0.84893  0.86090  0.31141  Biso   1.000  H
  C44      1.0000 0.05638  0.89369  0.54332  Biso   1.000  C
  O7       1.0000 0.94332  0.81867  0.61716  Biso   1.000  O
  C45      1.0000 0.25290  0.89019  0.54839  Biso   1.000  C
  H42      1.0000 0.30253  0.82420  0.61720  Biso   1.000  H
  C46      1.0000 0.00394  0.86440  0.71522  Biso   1.000  C
  C47      1.0000 0.17100  0.83642  0.75823  Biso   1.000  C
  C48      1.0000 0.20134  0.66984  0.78882  Biso   1.000  C
  C49      1.0000 0.00677  0.69273  0.80877  Biso   1.000  C
  C50      1.0000 0.10284  0.93540  0.39517  Biso   1.000  C
  H43      1.0000 0.06184  0.90638  0.33971  Biso   1.000  H
  O8       1.0000 0.42058  0.86694  0.35548  Biso   1.000  O
  C51      1.0000 0.29806  0.91841  0.40688  Biso   1.000  C
  C52      1.0000 0.16032  0.91673  0.52001  Biso   1.000  C
  H44      1.0000 0.99384  0.91168  0.52509  Biso   1.000  H
  C53      1.0000 0.84342  0.85038  0.59488  Biso   1.000  C
  O9       1.0000 0.35467  0.91564  0.52427  Biso   1.000  O
  H45      1.0000 0.95177  0.85640  0.69707  Biso   1.000  H
  C54      1.0000 0.99079  0.91742  0.72509  Biso   1.000  C
  H46      1.0000 0.23165  0.80900  0.76990  Biso   1.000  H
  C55      1.0000 0.15987  0.88999  0.76760  Biso   1.000  C
  H47      1.0000 0.26880  0.67970  0.76638  Biso   1.000  H
  C56      1.0000 0.19740  0.61753  0.83596  Biso   1.000  C
  C57      1.0000 0.00251  0.63912  0.85550  Biso   1.000  C
  H48      1.0000 0.94259  0.71839  0.80049  Biso   1.000  H
  C58      1.0000 0.19105  0.94101  0.42040  Biso   1.000  C
  O10      1.0000 0.99821  0.95807  0.41045  Biso   1.000  O
  C59      1.0000 0.51209  0.86830  0.38288  Biso   1.000  C
  H49      1.0000 0.35793  0.92208  0.42318  Biso   1.000  H
  C60      1.0000 0.17243  0.96743  0.46357  Biso   1.000  C
  H50      1.0000 0.83647  0.89112  0.59488  Biso   1.000  H
  H51      1.0000 0.84555  0.85380  0.55749  Biso   1.000  H
  C61      1.0000 0.74651  0.81499  0.62978  Biso   1.000  C
  C62      1.0000 0.45364  0.88119  0.54278  Biso   1.000  C
  C63      1.0000 0.06868  0.92980  0.75118  Biso   1.000  C
  H52      1.0000 0.92956  0.94459  0.71411  Biso   1.000  H
  H53      1.0000 0.21321  0.89879  0.78468  Biso   1.000  H
  H54      1.0000 0.26217  0.59291  0.84551  Biso   1.000  H
  C64      1.0000 0.09757  0.60163  0.86918  Biso   1.000  C
  H55      1.0000 0.93496  0.62861  0.87770  Biso   1.000  H
  C65      1.0000 0.90372  0.94991  0.38870  Biso   1.000  C
  H56      1.0000 0.52780  0.91001  0.37469  Biso   1.000  H
  H57      1.0000 0.49458  0.84771  0.42220  Biso   1.000  H
  C66      1.0000 0.61081  0.83627  0.36261  Biso   1.000  C
  H58      1.0000 0.23538  0.99098  0.46009  Biso   1.000  H
  H59      1.0000 0.10536  0.99439  0.45861  Biso   1.000  H
  H60      1.0000 0.74664  0.81072  0.66689  Biso   1.000  H
  H61      1.0000 0.67788  0.83621  0.61651  Biso   1.000  H
  H62      1.0000 0.75249  0.77540  0.62818  Biso   1.000  H
  H63      1.0000 0.45711  0.87549  0.58051  Biso   1.000  H
  H64      1.0000 0.45479  0.84148  0.54110  Biso   1.000  H
  C67      1.0000 0.55209  0.91530  0.50658  Biso   1.000  C
  H65      1.0000 0.05962  0.96542  0.75777  Biso   1.000  H
  H66      1.0000 0.09459  0.56582  0.90047  Biso   1.000  H
  H67      1.0000 0.91631  0.96608  0.34901  Biso   1.000  H
  H68      1.0000 0.89097  0.90687  0.40180  Biso   1.000  H
  C68      1.0000 0.80402  0.98340  0.40742  Biso   1.000  C
  H69      1.0000 0.60845  0.84479  0.32460  Biso   1.000  H
  H70      1.0000 0.67860  0.85038  0.36691  Biso   1.000  H
  H71      1.0000 0.60882  0.79319  0.38341  Biso   1.000  H
  H72      1.0000 0.55827  0.95108  0.51350  Biso   1.000  H
  H73      1.0000 0.61942  0.88951  0.51419  Biso   1.000  H
  H74      1.0000 0.54139  0.92700  0.46889  Biso   1.000  H
  H75      1.0000 0.73924  0.97968  0.39251  Biso   1.000  H
  H76      1.0000 0.79090  0.96619  0.44669  Biso   1.000  H
  H77      1.0000 0.81843  0.02564  0.39509  Biso   1.000  H
  C69      1.0000 0.52248  0.45471  0.44477  Biso   1.000  C
  O11      1.0000 0.63179  0.45985  0.41544  Biso   1.000  O
  H78      1.0000 0.50819  0.48448  0.46140  Biso   1.000  H
  H79      1.0000 0.51565  0.41429  0.47360  Biso   1.000  H
  C70      1.0000 0.44058  0.46562  0.40500  Biso   1.000  C
  C71      1.0000 0.72161  0.45114  0.44428  Biso   1.000  C
  H80      1.0000 0.44378  0.50671  0.37842  Biso   1.000  H
  H81      1.0000 0.36646  0.45930  0.42421  Biso   1.000  H
  H82      1.0000 0.45876  0.43778  0.38681  Biso   1.000  H
  C72      1.0000 0.82696  0.45610  0.41479  Biso   1.000  C
  C73      1.0000 0.71132  0.43782  0.50051  Biso   1.000  C
  C74      1.0000 0.84147  0.46870  0.35380  Biso   1.000  C
  C75      1.0000 0.92108  0.44605  0.44207  Biso   1.000  C
  H83      1.0000 0.64036  0.43592  0.51989  Biso   1.000  H
  C76      1.0000 0.80486  0.42736  0.52804  Biso   1.000  C
  C77      1.0000 0.85132  0.40960  0.34458  Biso   1.000  C
  H84      1.0000 0.77768  0.49388  0.33721  Biso   1.000  H
  H85      1.0000 0.90814  0.49091  0.33631  Biso   1.000  H
  H86      1.0000 0.99196  0.44929  0.42249  Biso   1.000  H
  C78      1.0000 0.91034  0.43111  0.49826  Biso   1.000  C
  C79      1.0000 0.79268  0.40872  0.58960  Biso   1.000  C
  C80      1.0000 0.75537  0.38301  0.34422  Biso   1.000  C
  C81      1.0000 0.95480  0.37937  0.33914  Biso   1.000  C
  O12      1.0000 0.00045  0.41869  0.52800  Biso   1.000  O
  C82      1.0000 0.78192  0.34102  0.61917  Biso   1.000  C
  H87      1.0000 0.85759  0.42032  0.59980  Biso   1.000  H
  H88      1.0000 0.72701  0.43023  0.60058  Biso   1.000  H
  C83      1.0000 0.76106  0.32722  0.33930  Biso   1.000  C
  H89      1.0000 0.68578  0.40310  0.34729  Biso   1.000  H
  C84      1.0000 0.96063  0.32444  0.33271  Biso   1.000  C
  O13      1.0000 0.04975  0.40737  0.33807  Biso   1.000  O
  C85      1.0000 0.11016  0.41823  0.49978  Biso   1.000  C
  C86      1.0000 0.67918  0.31572  0.63166  Biso   1.000  C
  C87      1.0000 0.87595  0.30191  0.63330  Biso   1.000  C
  O14      1.0000 0.66887  0.29791  0.34016  Biso   1.000  O
  C88      1.0000 0.86511  0.29750  0.33303  Biso   1.000  C
  H90      1.0000 0.03038  0.30531  0.32800  Biso   1.000  H
  C89      1.0000 0.13872  0.36988  0.36461  Biso   1.000  C
  C90      1.0000 0.19148  0.39950  0.54160  Biso   1.000  C
  H91      1.0000 0.12513  0.45840  0.47221  Biso   1.000  H
  H92      1.0000 0.11713  0.38962  0.48200  Biso   1.000  H
  O15      1.0000 0.58739  0.35604  0.61843  Biso   1.000  O
  C91      1.0000 0.66949  0.25211  0.65624  Biso   1.000  C
  C92      1.0000 0.86371  0.23743  0.65939  Biso   1.000  C
  H93      1.0000 0.94651  0.31741  0.62581  Biso   1.000  H
  C93      1.0000 0.56066  0.32704  0.34565  Biso   1.000  C
  C94      1.0000 0.87437  0.23790  0.32615  Biso   1.000  C
  H94      1.0000 0.16762  0.34199  0.34700  Biso   1.000  H
  H95      1.0000 0.11274  0.34609  0.40250  Biso   1.000  H
  C95      1.0000 0.22893  0.40932  0.36158  Biso   1.000  C
  H96      1.0000 0.18163  0.42713  0.55999  Biso   1.000  H
  H97      1.0000 0.26655  0.40043  0.52370  Biso   1.000  H
  H98      1.0000 0.17802  0.35900  0.56781  Biso   1.000  H
  C96      1.0000 0.47818  0.33272  0.63490  Biso   1.000  C
  H99      1.0000 0.59938  0.23650  0.66320  Biso   1.000  H
  C97      1.0000 0.76213  0.21311  0.67000  Biso   1.000  C
  O16      1.0000 0.95602  0.19681  0.67401  Biso   1.000  O
  C98      1.0000 0.47594  0.28333  0.35020  Biso   1.000  C
  H100     1.0000 0.55194  0.36469  0.31399  Biso   1.000  H
  H101     1.0000 0.55065  0.33651  0.37809  Biso   1.000  H
  C99      1.0000 0.86325  0.18223  0.37903  Biso   1.000  C
  C100     1.0000 0.89083  0.23542  0.27676  Biso   1.000  C
  H102     1.0000 0.25822  0.43042  0.32398  Biso   1.000  H
  H103     1.0000 0.28807  0.38441  0.38182  Biso   1.000  H
  H104     1.0000 0.19862  0.43848  0.37711  Biso   1.000  H
  H105     1.0000 0.47053  0.30652  0.67348  Biso   1.000  H
  H106     1.0000 0.46631  0.30920  0.61417  Biso   1.000  H
  C101     1.0000 0.39529  0.38580  0.62429  Biso   1.000  C
  C102     1.0000 0.75390  0.14493  0.69699  Biso   1.000  C
  C103     1.0000 0.05630  0.21933  0.67827  Biso   1.000  C
  H107     1.0000 0.48891  0.27291  0.31870  Biso   1.000  H
  H108     1.0000 0.40193  0.30213  0.35228  Biso   1.000  H
  H109     1.0000 0.48315  0.24713  0.38268  Biso   1.000  H
  C104     1.0000 0.95674  0.15538  0.40688  Biso   1.000  C
  C105     1.0000 0.75985  0.15858  0.40160  Biso   1.000  C
  C106     1.0000 0.90591  0.17708  0.26791  Biso   1.000  C
  C107     1.0000 0.89416  0.29204  0.22556  Biso   1.000  C
  H110     1.0000 0.40885  0.40921  0.64448  Biso   1.000  H
  H111     1.0000 0.32099  0.37160  0.63568  Biso   1.000  H
  H112     1.0000 0.40254  0.41090  0.58591  Biso   1.000  H
  C108     1.0000 0.77163  0.11463  0.65591  Biso   1.000  C
  H113     1.0000 0.68066  0.13603  0.71780  Biso   1.000  H
  H114     1.0000 0.80961  0.12783  0.72251  Biso   1.000  H
  H115     1.0000 0.07445  0.25980  0.66459  Biso   1.000  H
  C109     1.0000 0.12828  0.16284  0.71039  Biso   1.000  C
  C110     1.0000 0.94383  0.10628  0.45669  Biso   1.000  C
  O17      1.0000 0.05689  0.18130  0.38284  Biso   1.000  O
  H116     1.0000 0.69767  0.17581  0.38280  Biso   1.000  H
  C111     1.0000 0.74722  0.10982  0.45161  Biso   1.000  C
  C112     1.0000 0.99618  0.13561  0.28479  Biso   1.000  C
  C113     1.0000 0.82921  0.16360  0.24174  Biso   1.000  C
  C114     1.0000 0.79886  0.33017  0.21118  Biso   1.000  C
  C115     1.0000 0.99344  0.30730  0.19119  Biso   1.000  C
  C116     1.0000 0.87903  0.09122  0.64301  Biso   1.000  C
  C117     1.0000 0.68390  0.10930  0.63031  Biso   1.000  C
  H117     1.0000 0.08533  0.13863  0.74369  Biso   1.000  H
  H118     1.0000 0.19321  0.17533  0.71891  Biso   1.000  H
  H119     1.0000 0.15135  0.13911  0.68860  Biso   1.000  H
  C118     1.0000 0.83988  0.08328  0.47999  Biso   1.000  C
  H120     1.0000 0.00646  0.08829  0.47491  Biso   1.000  H
  C119     1.0000 0.15679  0.14959  0.40512  Biso   1.000  C
  O18      1.0000 0.64553  0.08437  0.47573  Biso   1.000  O
  H121     1.0000 0.04844  0.14363  0.30289  Biso   1.000  H
  C120     1.0000 0.00933  0.08259  0.27491  Biso   1.000  C
  H122     1.0000 0.76847  0.19101  0.23011  Biso   1.000  H
  C121     1.0000 0.84033  0.11002  0.23240  Biso   1.000  C
  H123     1.0000 0.73142  0.32033  0.23359  Biso   1.000  H
  C122     1.0000 0.80280  0.38248  0.16404  Biso   1.000  C
  C123     1.0000 0.99769  0.36089  0.14450  Biso   1.000  C
  H124     1.0000 0.05754  0.28158  0.19951  Biso   1.000  H
  C124     1.0000 0.89736  0.06461  0.60484  Biso   1.000  C
  H125     1.0000 0.93836  0.09363  0.66029  Biso   1.000  H
  C125     1.0000 0.70216  0.08162  0.59308  Biso   1.000  C
  O19      1.0000 0.57956  0.13304  0.64448  Biso   1.000  O
  C126     1.0000 0.82779  0.03260  0.53639  Biso   1.000  C
  H126     1.0000 0.16374  0.10891  0.40508  Biso   1.000  H
  H127     1.0000 0.15474  0.14622  0.44248  Biso   1.000  H
  C127     1.0000 0.25371  0.18500  0.37018  Biso   1.000  C
  C128     1.0000 0.54658  0.11883  0.45718  Biso   1.000  C
  C129     1.0000 0.93153  0.07023  0.24878  Biso   1.000  C
  H128     1.0000 0.07072  0.05542  0.28589  Biso   1.000  H
  H129     1.0000 0.78701  0.10120  0.21528  Biso   1.000  H
  H130     1.0000 0.73804  0.40710  0.15450  Biso   1.000  H
  C130     1.0000 0.90265  0.39840  0.13078  Biso   1.000  C
  H131     1.0000 0.06525  0.37140  0.12230  Biso   1.000  H
  C131     1.0000 0.80915  0.05900  0.57960  Biso   1.000  C
  O20      1.0000 0.00199  0.04194  0.58956  Biso   1.000  O
  H132     1.0000 0.64229  0.07790  0.57678  Biso   1.000  H
  C132     1.0000 0.48813  0.13173  0.61708  Biso   1.000  C
  H133     1.0000 0.76484  0.00901  0.53988  Biso   1.000  H
  H134     1.0000 0.89484  0.00562  0.54139  Biso   1.000  H
  H135     1.0000 0.25348  0.18928  0.33312  Biso   1.000  H
  H136     1.0000 0.32233  0.16379  0.38350  Biso   1.000  H
  H137     1.0000 0.24781  0.22462  0.37178  Biso   1.000  H
  H138     1.0000 0.54301  0.12452  0.41950  Biso   1.000  H
  H139     1.0000 0.54534  0.15849  0.45890  Biso   1.000  H
  C133     1.0000 0.44804  0.08472  0.49339  Biso   1.000  C
  H140     1.0000 0.94059  0.03461  0.24219  Biso   1.000  H
  H141     1.0000 0.90563  0.43421  0.09949  Biso   1.000  H
  C134     1.0000 0.09648  0.05010  0.61131  Biso   1.000  C
  H142     1.0000 0.47241  0.09002  0.62527  Biso   1.000  H
  H143     1.0000 0.50562  0.15230  0.57780  Biso   1.000  H
  C135     1.0000 0.38940  0.16369  0.63740  Biso   1.000  C
  H144     1.0000 0.44195  0.04889  0.48651  Biso   1.000  H
  H145     1.0000 0.38078  0.11050  0.48581  Biso   1.000  H
  H146     1.0000 0.45873  0.07301  0.53111  Biso   1.000  H
  H147     1.0000 0.08381  0.03393  0.65100  Biso   1.000  H
  H148     1.0000 0.10924  0.09310  0.59820  Biso   1.000  H
  C136     1.0000 0.19626  0.01661  0.59259  Biso   1.000  C
  H149     1.0000 0.39167  0.15522  0.67541  Biso   1.000  H
  H150     1.0000 0.32160  0.14963  0.63310  Biso   1.000  H
  H151     1.0000 0.39138  0.20682  0.61659  Biso   1.000  H
  H152     1.0000 0.18178  0.97439  0.60488  Biso   1.000  H
  H153     1.0000 0.26105  0.02033  0.60750  Biso   1.000  H
  H154     1.0000 0.20922  0.03382  0.55331  Biso   1.000  H
  C137     1.0000 0.46860  0.45633  0.74721  Biso   1.000  C
  C138     1.0000 0.48412  0.38900  0.75732  Biso   1.000  C
  C139     1.0000 0.44781  0.46401  0.80140  Biso   1.000  C
  H155     1.0000 0.40575  0.47472  0.72640  Biso   1.000  H
  H156     1.0000 0.53515  0.47683  0.72599  Biso   1.000  H
  C140     1.0000 0.39133  0.35450  0.77100  Biso   1.000  C
  C141     1.0000 0.59020  0.35962  0.75720  Biso   1.000  C
  C142     1.0000 0.53877  0.46586  0.82687  Biso   1.000  C
  C143     1.0000 0.34088  0.46525  0.82818  Biso   1.000  C
  C144     1.0000 0.40186  0.29262  0.78427  Biso   1.000  C
  H157     1.0000 0.32016  0.37373  0.77121  Biso   1.000  H
  C145     1.0000 0.60063  0.29711  0.77019  Biso   1.000  C
  O21      1.0000 0.67914  0.39567  0.74336  Biso   1.000  O
  C146     1.0000 0.52353  0.47120  0.87762  Biso   1.000  C
  H158     1.0000 0.61090  0.46353  0.80979  Biso   1.000  H
  O22      1.0000 0.25298  0.46320  0.80160  Biso   1.000  O
  C147     1.0000 0.32614  0.46946  0.87922  Biso   1.000  C
  O23      1.0000 0.31097  0.25634  0.79914  Biso   1.000  O
  C148     1.0000 0.50677  0.26274  0.78423  Biso   1.000  C
  H159     1.0000 0.67164  0.27784  0.76949  Biso   1.000  H
  C149     1.0000 0.78934  0.36711  0.74520  Biso   1.000  C
  O24      1.0000 0.61005  0.47521  0.90404  Biso   1.000  O
  C150     1.0000 0.41664  0.47253  0.90449  Biso   1.000  C
  C151     1.0000 0.14494  0.45913  0.83011  Biso   1.000  C
  H160     1.0000 0.25407  0.47022  0.89691  Biso   1.000  H
  C152     1.0000 0.19892  0.28721  0.79759  Biso   1.000  C
  C153     1.0000 0.52099  0.19450  0.79841  Biso   1.000  C
  H161     1.0000 0.79924  0.33891  0.78231  Biso   1.000  H
  H162     1.0000 0.80107  0.34462  0.72161  Biso   1.000  H
  C154     1.0000 0.87068  0.41543  0.72628  Biso   1.000  C
  C155     1.0000 0.72096  0.47773  0.87766  Biso   1.000  C
  C156     1.0000 0.39703  0.47627  0.96003  Biso   1.000  C
  C157     1.0000 0.06242  0.45924  0.79357  Biso   1.000  C
  H163     1.0000 0.14146  0.42192  0.86287  Biso   1.000  H
  H164     1.0000 0.12697  0.49340  0.84108  Biso   1.000  H
  H165     1.0000 0.18495  0.31071  0.75999  Biso   1.000  H
  H166     1.0000 0.19366  0.31491  0.81630  Biso   1.000  H
  C158     1.0000 0.12205  0.24441  0.82269  Biso   1.000  C
  C159     1.0000 0.52059  0.15720  0.85931  Biso   1.000  C
  H167     1.0000 0.59119  0.18554  0.77948  Biso   1.000  H
  H168     1.0000 0.46105  0.18240  0.78530  Biso   1.000  H
  H169     1.0000 0.85811  0.43770  0.74979  Biso   1.000  H
  H170     1.0000 0.94554  0.39701  0.72759  Biso   1.000  H
  H171     1.0000 0.86113  0.44283  0.68937  Biso   1.000  H
  H172     1.0000 0.74663  0.43852  0.87598  Biso   1.000  H
  H173     1.0000 0.72406  0.50831  0.84059  Biso   1.000  H
  C160     1.0000 0.79326  0.49350  0.91030  Biso   1.000  C
  H174     1.0000 0.45299  0.50069  0.96261  Biso   1.000  H
  H175     1.0000 0.32399  0.49632  0.96408  Biso   1.000  H
  C161     1.0000 0.40268  0.41357  0.00574  Biso   1.000  C
  H176     1.0000 0.08634  0.42861  0.77891  Biso   1.000  H
  H177     1.0000 0.05808  0.49851  0.76408  Biso   1.000  H
  H178     1.0000 0.99016  0.45050  0.81430  Biso   1.000  H
  H179     1.0000 0.11815  0.23181  0.86169  Biso   1.000  H
  H180     1.0000 0.04993  0.26142  0.81110  Biso   1.000  H
  H181     1.0000 0.14362  0.20992  0.81299  Biso   1.000  H
  C162     1.0000 0.42292  0.13404  0.89118  Biso   1.000  C
  C163     1.0000 0.61824  0.14503  0.88458  Biso   1.000  C
  H182     1.0000 0.79261  0.46184  0.94618  Biso   1.000  H
  H183     1.0000 0.86842  0.49750  0.89228  Biso   1.000  H
  H184     1.0000 0.76486  0.53132  0.91317  Biso   1.000  H
  C164     1.0000 0.30896  0.38090  0.03044  Biso   1.000  C
  C165     1.0000 0.50749  0.38668  0.02241  Biso   1.000  C
  C166     1.0000 0.42106  0.09972  0.94721  Biso   1.000  C
  H185     1.0000 0.35714  0.14140  0.87500  Biso   1.000  H
  O25      1.0000 0.71329  0.16941  0.85030  Biso   1.000  O
  C167     1.0000 0.61629  0.11153  0.94057  Biso   1.000  C
  O26      1.0000 0.20500  0.40858  0.01438  Biso   1.000  O
  C168     1.0000 0.31790  0.32305  0.07164  Biso   1.000  C
  C169     1.0000 0.51649  0.32802  0.06226  Biso   1.000  C
  H186     1.0000 0.57140  0.40837  0.00660  Biso   1.000  H
  O27      1.0000 0.32613  0.07500  0.98063  Biso   1.000  O
  C170     1.0000 0.51784  0.08881  0.97277  Biso   1.000  C
  C171     1.0000 0.81651  0.15063  0.87201  Biso   1.000  C
  H187     1.0000 0.68208  0.10423  0.95671  Biso   1.000  H
  C172     1.0000 0.13300  0.37279  0.00488  Biso   1.000  C
  C173     1.0000 0.42163  0.29606  0.08815  Biso   1.000  C
  H188     1.0000 0.25362  0.30200  0.08839  Biso   1.000  H
  O28      1.0000 0.61774  0.29884  0.07926  Biso   1.000  O
  C174     1.0000 0.22857  0.07901  0.95589  Biso   1.000  C
  C175     1.0000 0.51572  0.05449  0.03408  Biso   1.000  C
  H189     1.0000 0.81942  0.16445  0.90117  Biso   1.000  H
  H190     1.0000 0.82741  0.10653  0.88651  Biso   1.000  H
  C176     1.0000 0.90540  0.17921  0.82478  Biso   1.000  C
  H191     1.0000 0.17170  0.35574  0.97928  Biso   1.000  H
  C177     1.0000 0.03228  0.41161  0.98198  Biso   1.000  C
  H192     1.0000 0.11012  0.33937  0.03900  Biso   1.000  H
  C178     1.0000 0.42983  0.23384  0.13332  Biso   1.000  C
  C179     1.0000 0.71654  0.33154  0.05694  Biso   1.000  C
  H193     1.0000 0.20006  0.12110  0.94000  Biso   1.000  H
  H194     1.0000 0.24516  0.06343  0.92718  Biso   1.000  H
  C180     1.0000 0.14475  0.04205  0.99947  Biso   1.000  C
  C181     1.0000 0.49427  0.09748  0.06406  Biso   1.000  C
  H195     1.0000 0.45748  0.02568  0.04711  Biso   1.000  H
  H196     1.0000 0.58678  0.03170  0.04211  Biso   1.000  H
  H197     1.0000 0.88250  0.22103  0.80467  Biso   1.000  H
  H198     1.0000 0.97492  0.17731  0.83871  Biso   1.000  H
  H199     1.0000 0.91499  0.15752  0.80090  Biso   1.000  H
  H200     1.0000 0.05577  0.44692  0.95048  Biso   1.000  H
  H201     1.0000 0.98709  0.38864  0.97137  Biso   1.000  H
  H202     1.0000 0.98910  0.42418  0.00918  Biso   1.000  H
  C182     1.0000 0.45052  0.18267  0.11342  Biso   1.000  C
  C183     1.0000 0.42068  0.22745  0.18538  Biso   1.000  C
  H203     1.0000 0.72689  0.34459  0.01737  Biso   1.000  H
  H204     1.0000 0.71073  0.36740  0.06578  Biso   1.000  H
  C184     1.0000 0.81303  0.28978  0.08139  Biso   1.000  C
  H205     1.0000 0.07743  0.04332  0.98407  Biso   1.000  H
  H206     1.0000 0.12827  0.05817  0.02749  Biso   1.000  H
  H207     1.0000 0.17416  0.00057  0.01520  Biso   1.000  H
  C185     1.0000 0.38517  0.11766  0.07606  Biso   1.000  C
  C186     1.0000 0.58143  0.11961  0.07750  Biso   1.000  C
  C187     1.0000 0.36264  0.15966  0.10076  Biso   1.000  C
  C188     1.0000 0.55951  0.16206  0.10203  Biso   1.000  C
  C189     1.0000 0.40332  0.28194  0.20021  Biso   1.000  C
  C190     1.0000 0.42426  0.16756  0.23294  Biso   1.000  C
  H208     1.0000 0.81983  0.25528  0.07111  Biso   1.000  H
  H209     1.0000 0.88063  0.31119  0.06808  Biso   1.000  H
  H210     1.0000 0.80049  0.27608  0.12050  Biso   1.000  H
  H211     1.0000 0.32611  0.10281  0.06738  Biso   1.000  H
  O29      1.0000 0.68822  0.09847  0.06439  Biso   1.000  O
  O30      1.0000 0.25710  0.18153  0.11334  Biso   1.000  O
  H212     1.0000 0.61868  0.17666  0.11080  Biso   1.000  H
  C191     1.0000 0.48984  0.31947  0.19120  Biso   1.000  C
  C192     1.0000 0.30053  0.29569  0.22323  Biso   1.000  C
  C193     1.0000 0.50908  0.15330  0.26615  Biso   1.000  C
  C194     1.0000 0.34089  0.12690  0.24756  Biso   1.000  C
  C195     1.0000 0.77922  0.11940  0.07778  Biso   1.000  C
  C196     1.0000 0.16391  0.15828  0.10289  Biso   1.000  C
  H213     1.0000 0.56025  0.31088  0.17559  Biso   1.000  H
  C197     1.0000 0.47177  0.36994  0.20541  Biso   1.000  C
  H214     1.0000 0.24231  0.27039  0.23007  Biso   1.000  H
  C198     1.0000 0.28151  0.34627  0.23650  Biso   1.000  C
  H215     1.0000 0.56546  0.18018  0.25731  Biso   1.000  H
  C199     1.0000 0.51183  0.09970  0.31219  Biso   1.000  C
  H216     1.0000 0.28341  0.13508  0.22569  Biso   1.000  H
  C200     1.0000 0.34266  0.07378  0.29470  Biso   1.000  C
  H217     1.0000 0.78117  0.16330  0.05927  Biso   1.000  H
  H218     1.0000 0.77368  0.10861  0.11698  Biso   1.000  H
  C201     1.0000 0.88338  0.08809  0.05857  Biso   1.000  C
  H219     1.0000 0.16918  0.16558  0.06439  Biso   1.000  H
  H220     1.0000 0.16260  0.11470  0.12399  Biso   1.000  H
  C202     1.0000 0.05995  0.18997  0.11899  Biso   1.000  C
  C203     1.0000 0.36854  0.38312  0.22790  Biso   1.000  C
  H221     1.0000 0.53011  0.39467  0.19960  Biso   1.000  H
  H222     1.0000 0.21067  0.35568  0.25108  Biso   1.000  H
  C204     1.0000 0.42843  0.06069  0.32677  Biso   1.000  C
  H223     1.0000 0.57091  0.09030  0.33328  Biso   1.000  H
  H224     1.0000 0.28565  0.04710  0.30457  Biso   1.000  H
  H225     1.0000 0.88576  0.09791  0.02007  Biso   1.000  H
  H226     1.0000 0.94875  0.10191  0.06537  Biso   1.000  H
  H227     1.0000 0.88116  0.04480  0.07819  Biso   1.000  H
  H228     1.0000 0.99586  0.17519  0.11198  Biso   1.000  H
  H229     1.0000 0.06221  0.23309  0.09810  Biso   1.000  H
  H230     1.0000 0.05497  0.18208  0.15728  Biso   1.000  H
  H231     1.0000 0.35662  0.41678  0.23748  Biso   1.000  H
  H232     1.0000 0.42934  0.02530  0.35827  Biso   1.000  H
  C205     1.0000 0.53153  0.54370  0.25276  Biso   1.000  C
  C206     1.0000 0.55231  0.53600  0.19861  Biso   1.000  C
  C207     1.0000 0.51608  0.61101  0.24268  Biso   1.000  C
  H233     1.0000 0.59445  0.52529  0.27360  Biso   1.000  H
  H234     1.0000 0.46505  0.52318  0.27401  Biso   1.000  H
  C208     1.0000 0.46144  0.53415  0.17313  Biso   1.000  C
  C209     1.0000 0.65934  0.53474  0.17178  Biso   1.000  C
  C210     1.0000 0.41001  0.64039  0.24280  Biso   1.000  C
  C211     1.0000 0.60887  0.64551  0.22900  Biso   1.000  C
  C212     1.0000 0.47668  0.52883  0.12234  Biso   1.000  C
  H235     1.0000 0.38922  0.53648  0.19021  Biso   1.000  H
  C213     1.0000 0.67407  0.53055  0.12079  Biso   1.000  C
  O31      1.0000 0.74723  0.53676  0.19840  Biso   1.000  O
  O32      1.0000 0.32106  0.60434  0.25665  Biso   1.000  O
  C214     1.0000 0.39957  0.70290  0.22982  Biso   1.000  C
  C215     1.0000 0.59836  0.70741  0.21569  Biso   1.000  C
  H236     1.0000 0.68004  0.62628  0.22879  Biso   1.000  H
  O33      1.0000 0.39016  0.52482  0.09593  Biso   1.000  O
  C216     1.0000 0.58357  0.52748  0.09552  Biso   1.000  C
  H237     1.0000 0.74614  0.52979  0.10309  Biso   1.000  H
  C217     1.0000 0.85526  0.54088  0.16990  Biso   1.000  C
  C218     1.0000 0.21087  0.63290  0.25480  Biso   1.000  C
  C219     1.0000 0.49334  0.73727  0.21577  Biso   1.000  C
  H238     1.0000 0.32856  0.72217  0.23051  Biso   1.000  H
  O34      1.0000 0.68923  0.74367  0.20086  Biso   1.000  O
  C220     1.0000 0.27925  0.52228  0.12234  Biso   1.000  C
  C221     1.0000 0.60310  0.52370  0.03998  Biso   1.000  C
  C222     1.0000 0.93771  0.54079  0.20639  Biso   1.000  C
  H239     1.0000 0.85875  0.57811  0.13709  Biso   1.000  H
  H240     1.0000 0.87325  0.50658  0.15888  Biso   1.000  H
  H241     1.0000 0.20096  0.66110  0.21769  Biso   1.000  H
  H242     1.0000 0.19905  0.65539  0.27840  Biso   1.000  H
  C223     1.0000 0.12945  0.58460  0.27369  Biso   1.000  C
  C224     1.0000 0.47921  0.80551  0.20160  Biso   1.000  C
  C225     1.0000 0.80128  0.71280  0.20242  Biso   1.000  C
  C226     1.0000 0.20694  0.50651  0.08970  Biso   1.000  C
  H243     1.0000 0.25359  0.56151  0.12398  Biso   1.000  H
  H244     1.0000 0.27615  0.49170  0.15941  Biso   1.000  H
  H245     1.0000 0.54723  0.49928  0.03740  Biso   1.000  H
  H246     1.0000 0.67622  0.50371  0.03588  Biso   1.000  H
  C227     1.0000 0.59745  0.58645  0.99422  Biso   1.000  C
  H247     1.0000 0.91387  0.57140  0.22109  Biso   1.000  H
  H248     1.0000 0.94214  0.50152  0.23588  Biso   1.000  H
  H249     1.0000 0.01013  0.54947  0.18571  Biso   1.000  H
  H250     1.0000 0.14211  0.56227  0.25022  Biso   1.000  H
  H251     1.0000 0.05466  0.60300  0.27242  Biso   1.000  H
  H252     1.0000 0.13908  0.55720  0.31059  Biso   1.000  H
  C228     1.0000 0.47953  0.84281  0.14069  Biso   1.000  C
  H253     1.0000 0.40902  0.81449  0.22048  Biso   1.000  H
  H254     1.0000 0.53916  0.81757  0.21470  Biso   1.000  H
  H255     1.0000 0.81525  0.68930  0.24002  Biso   1.000  H
  H256     1.0000 0.80654  0.68510  0.18370  Biso   1.000  H
  C229     1.0000 0.87815  0.75560  0.17731  Biso   1.000  C
  H257     1.0000 0.20751  0.53817  0.05382  Biso   1.000  H
  H258     1.0000 0.13172  0.50248  0.10768  Biso   1.000  H
  H259     1.0000 0.23535  0.46871  0.08679  Biso   1.000  H
  C230     1.0000 0.69125  0.61911  0.96957  Biso   1.000  C
  C231     1.0000 0.49272  0.61335  0.97755  Biso   1.000  C
  C232     1.0000 0.57729  0.86599  0.10879  Biso   1.000  C
  C233     1.0000 0.38197  0.85500  0.11538  Biso   1.000  C
  H260     1.0000 0.88205  0.76820  0.13832  Biso   1.000  H
  H261     1.0000 0.95028  0.73859  0.18890  Biso   1.000  H
  H262     1.0000 0.85658  0.79009  0.18702  Biso   1.000  H
  O35      1.0000 0.79513  0.59145  0.98558  Biso   1.000  O
  C234     1.0000 0.68230  0.67696  0.92836  Biso   1.000  C
  C235     1.0000 0.48364  0.67201  0.93770  Biso   1.000  C
  H263     1.0000 0.42880  0.59164  0.99341  Biso   1.000  H
  C236     1.0000 0.57914  0.90029  0.05280  Biso   1.000  C
  H264     1.0000 0.64308  0.85857  0.12501  Biso   1.000  H
  O36      1.0000 0.28683  0.83060  0.14970  Biso   1.000  O
  C237     1.0000 0.38384  0.88849  0.05939  Biso   1.000  C
  C238     1.0000 0.86713  0.62724  0.99508  Biso   1.000  C
  C239     1.0000 0.57858  0.70397  0.91182  Biso   1.000  C
  H265     1.0000 0.74659  0.69801  0.91161  Biso   1.000  H
  O37      1.0000 0.38247  0.70118  0.92070  Biso   1.000  O
  O38      1.0000 0.67408  0.92501  0.01937  Biso   1.000  O
  C240     1.0000 0.48236  0.91120  0.02724  Biso   1.000  C
  C241     1.0000 0.18370  0.84938  0.12800  Biso   1.000  C
  H266     1.0000 0.31804  0.89578  0.04329  Biso   1.000  H
  H267     1.0000 0.82852  0.64428  0.02068  Biso   1.000  H
  C242     1.0000 0.96795  0.58838  0.01798  Biso   1.000  C
  H268     1.0000 0.89009  0.66064  0.96101  Biso   1.000  H
  C243     1.0000 0.57038  0.76617  0.86668  Biso   1.000  C
  C244     1.0000 0.28368  0.66843  0.94307  Biso   1.000  C
  C245     1.0000 0.77164  0.92096  0.04411  Biso   1.000  C
  C246     1.0000 0.48448  0.94552  0.96592  Biso   1.000  C
  H269     1.0000 0.18080  0.83557  0.09879  Biso   1.000  H
  H270     1.0000 0.17279  0.89348  0.11350  Biso   1.000  H
  C247     1.0000 0.09482  0.82078  0.17518  Biso   1.000  C
  H271     1.0000 0.94444  0.55309  0.04952  Biso   1.000  H
  H272     1.0000 0.01103  0.57585  0.99078  Biso   1.000  H
  H273     1.0000 0.01320  0.61139  0.02859  Biso   1.000  H
  C248     1.0000 0.54968  0.81734  0.88659  Biso   1.000  C
  C249     1.0000 0.57944  0.77256  0.81462  Biso   1.000  C
  H274     1.0000 0.27332  0.65544  0.98259  Biso   1.000  H
  H275     1.0000 0.28947  0.63261  0.93422  Biso   1.000  H
  C250     1.0000 0.18718  0.71023  0.91862  Biso   1.000  C
  H276     1.0000 0.80015  0.87886  0.06000  Biso   1.000  H
  H277     1.0000 0.75506  0.93659  0.07278  Biso   1.000  H
  C251     1.0000 0.85546  0.95798  0.00049  Biso   1.000  C
  C252     1.0000 0.50585  0.90253  0.93594  Biso   1.000  C
  H278     1.0000 0.54273  0.97433  0.95290  Biso   1.000  H
  H279     1.0000 0.41343  0.96831  0.95789  Biso   1.000  H
  H280     1.0000 0.11772  0.77900  0.19529  Biso   1.000  H
  H281     1.0000 0.02528  0.82270  0.16129  Biso   1.000  H
  H282     1.0000 0.08521  0.84249  0.19910  Biso   1.000  H
  C253     1.0000 0.63757  0.84036  0.89920  Biso   1.000  C
  C254     1.0000 0.44069  0.83795  0.89797  Biso   1.000  C
  C255     1.0000 0.59688  0.71807  0.79979  Biso   1.000  C
  C256     1.0000 0.57595  0.83246  0.76703  Biso   1.000  C
  H283     1.0000 0.18037  0.74473  0.92890  Biso   1.000  H
  H284     1.0000 0.11958  0.68884  0.93189  Biso   1.000  H
  H285     1.0000 0.19972  0.72393  0.87950  Biso   1.000  H
  H286     1.0000 0.92271  0.95666  0.01589  Biso   1.000  H
  H287     1.0000 0.87186  0.94179  0.97252  Biso   1.000  H
  H288     1.0000 0.82597  0.99940  0.98480  Biso   1.000  H
  C257     1.0000 0.61495  0.88235  0.92394  Biso   1.000  C
  C258     1.0000 0.41878  0.88042  0.92247  Biso   1.000  C
  O39      1.0000 0.74310  0.81848  0.88667  Biso   1.000  O
  H289     1.0000 0.38145  0.82330  0.88921  Biso   1.000  H
  C259     1.0000 0.51037  0.68050  0.80881  Biso   1.000  C
  C260     1.0000 0.69968  0.70434  0.77673  Biso   1.000  C
  C261     1.0000 0.49104  0.84671  0.73385  Biso   1.000  C
  C262     1.0000 0.65923  0.87311  0.75245  Biso   1.000  C
  H290     1.0000 0.67410  0.89722  0.93258  Biso   1.000  H
  O40      1.0000 0.31199  0.90150  0.93561  Biso   1.000  O
  C263     1.0000 0.83629  0.84173  0.89711  Biso   1.000  C
  H291     1.0000 0.43995  0.68913  0.82441  Biso   1.000  H
  C264     1.0000 0.52844  0.63008  0.79455  Biso   1.000  C
  H292     1.0000 0.75782  0.72964  0.76989  Biso   1.000  H
  C265     1.0000 0.71861  0.65374  0.76351  Biso   1.000  C
  H293     1.0000 0.43474  0.81983  0.74270  Biso   1.000  H
  C266     1.0000 0.48837  0.90031  0.68781  Biso   1.000  C
  H294     1.0000 0.71679  0.86493  0.77432  Biso   1.000  H
  C267     1.0000 0.65754  0.92623  0.70530  Biso   1.000  C
  C268     1.0000 0.22099  0.88061  0.92222  Biso   1.000  C
  H295     1.0000 0.83094  0.83443  0.93561  Biso   1.000  H
  H296     1.0000 0.83761  0.88531  0.87602  Biso   1.000  H
  C269     1.0000 0.94026  0.81000  0.88102  Biso   1.000  C
  C270     1.0000 0.63168  0.61691  0.77207  Biso   1.000  C
  H297     1.0000 0.47001  0.60534  0.80041  Biso   1.000  H
  H298     1.0000 0.78954  0.64434  0.74888  Biso   1.000  H
  C271     1.0000 0.57178  0.93934  0.67319  Biso   1.000  C
  H299     1.0000 0.42921  0.90971  0.66672  Biso   1.000  H
  H300     1.0000 0.71457  0.95293  0.69539  Biso   1.000  H
  H301     1.0000 0.21904  0.83673  0.94069  Biso   1.000  H
  H302     1.0000 0.22653  0.89142  0.88298  Biso   1.000  H
  C272     1.0000 0.11683  0.91194  0.94139  Biso   1.000  C
  H303     1.0000 0.93799  0.76692  0.90190  Biso   1.000  H
  H304     1.0000 0.94523  0.81793  0.84272  Biso   1.000  H
  H305     1.0000 0.00434  0.82482  0.88802  Biso   1.000  H
  H306     1.0000 0.64350  0.58323  0.76252  Biso   1.000  H
  H307     1.0000 0.57088  0.97473  0.64169  Biso   1.000  H
  H308     1.0000 0.11445  0.90212  0.97989  Biso   1.000  H
  H309     1.0000 0.05138  0.89812  0.93459  Biso   1.000  H
  H310     1.0000 0.11904  0.95521  0.92181  Biso   1.000  H
