data_image0
_cell_length_a       14.677
_cell_length_b       14.894
_cell_length_c       24.639
_cell_angle_alpha    75.45
_cell_angle_beta     82.77
_cell_angle_gamma    76.39

_symmetry_space_group_name_H-M    "P 1"
_symmetry_int_tables_number       1

loop_
  _symmetry_equiv_pos_as_xyz
  'x, y, z'

loop_
  _atom_site_label
  _atom_site_occupancy
  _atom_site_fract_x
  _atom_site_fract_y
  _atom_site_fract_z
  _atom_site_thermal_displace_type
  _atom_site_B_iso_or_equiv
  _atom_site_type_symbol
  O1       1.0000 0.64365  0.84943  0.43054  Biso   1.000  O
  C1       1.0000 0.67466  0.92110  0.40822  Biso   1.000  C
  N1       1.0000 0.62506  0.00321  0.37732  Biso   1.000  N
  N2       1.0000 0.76508  0.92979  0.40931  Biso   1.000  N
  C2       1.0000 0.52427  0.02401  0.37711  Biso   1.000  C
  C3       1.0000 0.67916  0.07623  0.36059  Biso   1.000  C
  C4       1.0000 0.77494  0.02652  0.38489  Biso   1.000  C
  C5       1.0000 0.82515  0.86905  0.45261  Biso   1.000  C
  N3       1.0000 0.49142  0.02614  0.32410  Biso   1.000  N
  H1       1.0000 0.49915  0.97550  0.40671  Biso   1.000  H
  H2       1.0000 0.49887  0.08642  0.38649  Biso   1.000  H
  N4       1.0000 0.70361  0.10162  0.30031  Biso   1.000  N
  H3       1.0000 0.64904  0.13325  0.37581  Biso   1.000  H
  N5       1.0000 0.84073  0.03624  0.33600  Biso   1.000  N
  H4       1.0000 0.78912  0.05731  0.41360  Biso   1.000  H
  N6       1.0000 0.91247  0.81865  0.42941  Biso   1.000  N
  H5       1.0000 0.83985  0.90834  0.47598  Biso   1.000  H
  H6       1.0000 0.79089  0.82241  0.47720  Biso   1.000  H
  C6       1.0000 0.44186  0.96295  0.31729  Biso   1.000  C
  C7       1.0000 0.48451  0.10720  0.27652  Biso   1.000  C
  C8       1.0000 0.63781  0.16481  0.26138  Biso   1.000  C
  C9       1.0000 0.79872  0.08390  0.28812  Biso   1.000  C
  C10      1.0000 0.94126  0.02103  0.34012  Biso   1.000  C
  C11      1.0000 0.93900  0.72211  0.44391  Biso   1.000  C
  C12      1.0000 0.99180  0.86370  0.40998  Biso   1.000  C
  N7       1.0000 0.41008  0.99035  0.26521  Biso   1.000  N
  O2       1.0000 0.42796  0.89290  0.35361  Biso   1.000  O
  C13      1.0000 0.43031  0.08172  0.23482  Biso   1.000  C
  N8       1.0000 0.57354  0.11821  0.24512  Biso   1.000  N
  H7       1.0000 0.45053  0.16710  0.28770  Biso   1.000  H
  H8       1.0000 0.60126  0.21642  0.27900  Biso   1.000  H
  H9       1.0000 0.67334  0.19400  0.22729  Biso   1.000  H
  O3       1.0000 0.83966  0.10662  0.24150  Biso   1.000  O
  N9       1.0000 0.98688  0.92201  0.35319  Biso   1.000  N
  H10      1.0000 0.96985  0.05280  0.30401  Biso   1.000  H
  H11      1.0000 0.95236  0.05079  0.36971  Biso   1.000  H
  N10      1.0000 0.03202  0.69633  0.42650  Biso   1.000  N
  O4       1.0000 0.88811  0.66683  0.46602  Biso   1.000  O
  C14      1.0000 0.07398  0.77936  0.40498  Biso   1.000  C
  H12      1.0000 0.00317  0.89911  0.43710  Biso   1.000  H
  C15      1.0000 0.34349  0.94719  0.24701  Biso   1.000  C
  N11      1.0000 0.49666  0.07781  0.18580  Biso   1.000  N
  H13      1.0000 0.37146  0.13043  0.22519  Biso   1.000  H
  C16      1.0000 0.57604  0.10540  0.19232  Biso   1.000  C
  C17      1.0000 0.05395  0.88324  0.31692  Biso   1.000  C
  C18      1.0000 0.08670  0.60082  0.44370  Biso   1.000  C
  N12      1.0000 0.10129  0.79659  0.34651  Biso   1.000  N
  H14      1.0000 0.12677  0.77735  0.42760  Biso   1.000  H
  N13      1.0000 0.38278  0.89954  0.20228  Biso   1.000  N
  H15      1.0000 0.32191  0.90090  0.27959  Biso   1.000  H
  H16      1.0000 0.28798  0.99713  0.23402  Biso   1.000  H
  C19      1.0000 0.46833  0.08063  0.13191  Biso   1.000  C
  O5       1.0000 0.63967  0.11652  0.15495  Biso   1.000  O
  O6       1.0000 0.06886  0.91880  0.26677  Biso   1.000  O
  N14      1.0000 0.11628  0.55510  0.39792  Biso   1.000  N
  H17      1.0000 0.14280  0.60300  0.46140  Biso   1.000  H
  H18      1.0000 0.04867  0.56271  0.47228  Biso   1.000  H
  C20      1.0000 0.18872  0.74633  0.32330  Biso   1.000  C
  C21      1.0000 0.39341  0.80139  0.21132  Biso   1.000  C
  C22      1.0000 0.38406  0.94491  0.14431  Biso   1.000  C
  N15      1.0000 0.46398  0.98945  0.12300  Biso   1.000  N
  H19      1.0000 0.51295  0.10858  0.10261  Biso   1.000  H
  H20      1.0000 0.40565  0.12310  0.12678  Biso   1.000  H
  C23      1.0000 0.08201  0.48019  0.39229  Biso   1.000  C
  C24      1.0000 0.19688  0.56919  0.35912  Biso   1.000  C
  N16      1.0000 0.18267  0.65563  0.31511  Biso   1.000  N
  H21      1.0000 0.20699  0.78598  0.28682  Biso   1.000  H
  H22      1.0000 0.23868  0.73664  0.34899  Biso   1.000  H
  N17      1.0000 0.41240  0.77892  0.15940  Biso   1.000  N
  O7       1.0000 0.38729  0.74661  0.25672  Biso   1.000  O
  C25      1.0000 0.40077  0.86200  0.11409  Biso   1.000  C
  H23      1.0000 0.32326  0.99053  0.13481  Biso   1.000  H
  C26      1.0000 0.51797  0.94962  0.08340  Biso   1.000  C
  N18      1.0000 0.13150  0.44540  0.34861  Biso   1.000  N
  O8       1.0000 0.01622  0.44961  0.42125  Biso   1.000  O
  C27      1.0000 0.21028  0.48933  0.32692  Biso   1.000  C
  H24      1.0000 0.25372  0.56270  0.37959  Biso   1.000  H
  C28      1.0000 0.19232  0.63781  0.26349  Biso   1.000  C
  C29      1.0000 0.40295  0.68832  0.15238  Biso   1.000  C
  N19      1.0000 0.48565  0.87408  0.07760  Biso   1.000  N
  H25      1.0000 0.34655  0.86662  0.09202  Biso   1.000  H
  O9       1.0000 0.58705  0.97763  0.05465  Biso   1.000  O
  C30      1.0000 0.12924  0.35439  0.33961  Biso   1.000  C
  N20      1.0000 0.20553  0.54290  0.26790  Biso   1.000  N
  H26      1.0000 0.27168  0.44314  0.33360  Biso   1.000  H
  O10      1.0000 0.19122  0.69770  0.21775  Biso   1.000  O
  N21      1.0000 0.48910  0.63523  0.12968  Biso   1.000  N
  H27      1.0000 0.35259  0.69874  0.12678  Biso   1.000  H
  H28      1.0000 0.38378  0.65012  0.18921  Biso   1.000  H
  C31      1.0000 0.51536  0.82790  0.03178  Biso   1.000  C
  N22      1.0000 0.09457  0.35783  0.28732  Biso   1.000  N
  H29      1.0000 0.19359  0.31462  0.34151  Biso   1.000  H
  H30      1.0000 0.08919  0.32299  0.37051  Biso   1.000  H
  C32      1.0000 0.23720  0.49754  0.22120  Biso   1.000  C
  C33      1.0000 0.52960  0.54494  0.15709  Biso   1.000  C
  C34      1.0000 0.51457  0.65301  0.06999  Biso   1.000  C
  N23      1.0000 0.56341  0.73023  0.04918  Biso   1.000  N
  H31      1.0000 0.55766  0.86311  0.00458  Biso   1.000  H
  H32      1.0000 0.45958  0.83060  0.01219  Biso   1.000  H
  C35      1.0000 0.01169  0.33449  0.28320  Biso   1.000  C
  C36      1.0000 0.15429  0.36074  0.23549  Biso   1.000  C
  N24      1.0000 0.16758  0.45493  0.20640  Biso   1.000  N
  H33      1.0000 0.25447  0.54532  0.18799  Biso   1.000  H
  H34      1.0000 0.29443  0.44780  0.23099  Biso   1.000  H
  O11      1.0000 0.51516  0.50804  0.20590  Biso   1.000  O
  N25      1.0000 0.59253  0.50369  0.11938  Biso   1.000  N
  C37      1.0000 0.59158  0.56392  0.06352  Biso   1.000  C
  H35      1.0000 0.45960  0.66059  0.04780  Biso   1.000  H
  C38      1.0000 0.65592  0.69891  0.03342  Biso   1.000  C
  N26      1.0000 0.00829  0.32643  0.22939  Biso   1.000  N
  O12      1.0000 0.95201  0.32109  0.32217  Biso   1.000  O
  C39      1.0000 0.09649  0.33471  0.19631  Biso   1.000  C
  H36      1.0000 0.21568  0.31451  0.24159  Biso   1.000  H
  C40      1.0000 0.13688  0.48014  0.15390  Biso   1.000  C
  C41      1.0000 0.64498  0.40752  0.13330  Biso   1.000  C
  N27      1.0000 0.67541  0.60192  0.04498  Biso   1.000  N
  H37      1.0000 0.57607  0.53237  0.03552  Biso   1.000  H
  O13      1.0000 0.71107  0.75010  0.01152  Biso   1.000  O
  C42      1.0000 0.94439  0.27637  0.21561  Biso   1.000  C
  N28      1.0000 0.09080  0.41458  0.14751  Biso   1.000  N
  H38      1.0000 0.12851  0.27375  0.18589  Biso   1.000  H
  O14      1.0000 0.15027  0.54901  0.11653  Biso   1.000  O
  N29      1.0000 0.74511  0.40043  0.13662  Biso   1.000  N
  H39      1.0000 0.63710  0.37441  0.10450  Biso   1.000  H
  H40      1.0000 0.61896  0.37452  0.16991  Biso   1.000  H
  C43      1.0000 0.75672  0.55151  0.01698  Biso   1.000  C
  N30      1.0000 0.88131  0.33372  0.17428  Biso   1.000  N
  H41      1.0000 0.98153  0.22120  0.20148  Biso   1.000  H
  H42      1.0000 0.90719  0.25203  0.25020  Biso   1.000  H
  C44      1.0000 0.05988  0.41270  0.09538  Biso   1.000  C
  C45      1.0000 0.78703  0.35691  0.18538  Biso   1.000  C
  C46      1.0000 0.81169  0.39600  0.08769  Biso   1.000  C
  N31      1.0000 0.82381  0.48822  0.05511  Biso   1.000  N
  H43      1.0000 0.73526  0.51428  0.99491  Biso   1.000  H
  H44      1.0000 0.78847  0.59828  0.99029  Biso   1.000  H
  C47      1.0000 0.90733  0.35333  0.11379  Biso   1.000  C
  N32      1.0000 0.95919  0.42822  0.09420  Biso   1.000  N
  H45      1.0000 0.08879  0.35038  0.08668  Biso   1.000  H
  H46      1.0000 0.08290  0.46202  0.06549  Biso   1.000  H
  O15      1.0000 0.74610  0.33990  0.23259  Biso   1.000  O
  H47      1.0000 0.79717  0.35632  0.06390  Biso   1.000  H
  C48      1.0000 0.91021  0.50541  0.05852  Biso   1.000  C
  H48      1.0000 0.94027  0.29424  0.10139  Biso   1.000  H
  O16      1.0000 0.93897  0.57659  0.03355  Biso   1.000  O
  O17      1.0000 0.35628  0.15065  0.56947  Biso   1.000  O
  C49      1.0000 0.32529  0.07891  0.59179  Biso   1.000  C
  N33      1.0000 0.23487  0.07022  0.59070  Biso   1.000  N
  N34      1.0000 0.37496  0.99680  0.62269  Biso   1.000  N
  C50      1.0000 0.17479  0.13103  0.54740  Biso   1.000  C
  C51      1.0000 0.22502  0.97351  0.61508  Biso   1.000  C
  C52      1.0000 0.32087  0.92379  0.63942  Biso   1.000  C
  C53      1.0000 0.47575  0.97600  0.62290  Biso   1.000  C
  N35      1.0000 0.08747  0.18143  0.57061  Biso   1.000  N
  H49      1.0000 0.16009  0.09176  0.52399  Biso   1.000  H
  H50      1.0000 0.20913  0.17760  0.52281  Biso   1.000  H
  N36      1.0000 0.15921  0.96384  0.66401  Biso   1.000  N
  H51      1.0000 0.21084  0.94270  0.58641  Biso   1.000  H
  N37      1.0000 0.29633  0.89846  0.69970  Biso   1.000  N
  H52      1.0000 0.35097  0.86683  0.62420  Biso   1.000  H
  H53      1.0000 0.50081  0.02451  0.59331  Biso   1.000  H
  N38      1.0000 0.50851  0.97394  0.67591  Biso   1.000  N
  H54      1.0000 0.50115  0.91361  0.61348  Biso   1.000  H
  C54      1.0000 0.06102  0.27790  0.55610  Biso   1.000  C
  C55      1.0000 0.00823  0.13633  0.58999  Biso   1.000  C
  C56      1.0000 0.05874  0.97905  0.65989  Biso   1.000  C
  C57      1.0000 0.20124  0.91611  0.71189  Biso   1.000  C
  C58      1.0000 0.36215  0.83522  0.73859  Biso   1.000  C
  C59      1.0000 0.55807  0.03713  0.68272  Biso   1.000  C
  C60      1.0000 0.51544  0.89281  0.72349  Biso   1.000  C
  O18      1.0000 0.11189  0.33325  0.53399  Biso   1.000  O
  N39      1.0000 0.96798  0.30375  0.57351  Biso   1.000  N
  N40      1.0000 0.01308  0.07800  0.64682  Biso   1.000  N
  H55      1.0000 0.99679  0.10090  0.56291  Biso   1.000  H
  C61      1.0000 0.92596  0.22074  0.59499  Biso   1.000  C
  H56      1.0000 0.03010  0.94721  0.69600  Biso   1.000  H
  H57      1.0000 0.04766  0.94922  0.63030  Biso   1.000  H
  O19      1.0000 0.16034  0.89346  0.75851  Biso   1.000  O
  N41      1.0000 0.42648  0.88180  0.75490  Biso   1.000  N
  H58      1.0000 0.39876  0.78359  0.72101  Biso   1.000  H
  H59      1.0000 0.32662  0.80601  0.77272  Biso   1.000  H
  N42      1.0000 0.58993  0.00973  0.73480  Biso   1.000  N
  O20      1.0000 0.57200  0.10711  0.64640  Biso   1.000  O
  C62      1.0000 0.56962  0.91836  0.76519  Biso   1.000  C
  H60      1.0000 0.54942  0.83291  0.71231  Biso   1.000  H
  C63      1.0000 0.91326  0.39919  0.55631  Biso   1.000  C
  C64      1.0000 0.94599  0.11684  0.68310  Biso   1.000  C
  N43      1.0000 0.89866  0.20342  0.65350  Biso   1.000  N
  H61      1.0000 0.87316  0.22273  0.57241  Biso   1.000  H
  C65      1.0000 0.42392  0.89461  0.80769  Biso   1.000  C
  C66      1.0000 0.65653  0.05282  0.75300  Biso   1.000  C
  N44      1.0000 0.50337  0.92220  0.81421  Biso   1.000  N
  H62      1.0000 0.62855  0.86965  0.77482  Biso   1.000  H
  N45      1.0000 0.88367  0.44491  0.60209  Biso   1.000  N
  H63      1.0000 0.85715  0.39701  0.53862  Biso   1.000  H
  H64      1.0000 0.95129  0.43731  0.52769  Biso   1.000  H
  O21      1.0000 0.93109  0.08121  0.73325  Biso   1.000  O
  C67      1.0000 0.81129  0.25375  0.67671  Biso   1.000  C
  O22      1.0000 0.36034  0.88356  0.84506  Biso   1.000  O
  N46      1.0000 0.61723  0.10055  0.79769  Biso   1.000  N
  H65      1.0000 0.67812  0.09912  0.72038  Biso   1.000  H
  H66      1.0000 0.71203  0.00295  0.76599  Biso   1.000  H
  C68      1.0000 0.53161  0.91945  0.86810  Biso   1.000  C
  C69      1.0000 0.91795  0.51984  0.60768  Biso   1.000  C
  C70      1.0000 0.80308  0.43082  0.64089  Biso   1.000  C
  N47      1.0000 0.81726  0.34445  0.68490  Biso   1.000  N
  H67      1.0000 0.79296  0.21403  0.71320  Biso   1.000  H
  H68      1.0000 0.76126  0.26344  0.65102  Biso   1.000  H
  C71      1.0000 0.60661  0.19862  0.78869  Biso   1.000  C
  C72      1.0000 0.61589  0.05510  0.85570  Biso   1.000  C
  N48      1.0000 0.53602  0.01063  0.87701  Biso   1.000  N
  H69      1.0000 0.48707  0.89143  0.89740  Biso   1.000  H
  H70      1.0000 0.59438  0.87693  0.87319  Biso   1.000  H
  N49      1.0000 0.86846  0.55461  0.65140  Biso   1.000  N
  O23      1.0000 0.98381  0.55040  0.57876  Biso   1.000  O
  H71      1.0000 0.74630  0.43732  0.62042  Biso   1.000  H
  C73      1.0000 0.78965  0.51075  0.67309  Biso   1.000  C
  C74      1.0000 0.80771  0.36222  0.73648  Biso   1.000  C
  N50      1.0000 0.58760  0.22116  0.84061  Biso   1.000  N
  O24      1.0000 0.61273  0.25342  0.74325  Biso   1.000  O
  C75      1.0000 0.59918  0.13803  0.88588  Biso   1.000  C
  H72      1.0000 0.67668  0.00955  0.86520  Biso   1.000  H
  C76      1.0000 0.48197  0.05046  0.91661  Biso   1.000  C
  C77      1.0000 0.87078  0.64562  0.66040  Biso   1.000  C
  N51      1.0000 0.79449  0.45711  0.73211  Biso   1.000  N
  H73      1.0000 0.72826  0.55694  0.66641  Biso   1.000  H
  O25      1.0000 0.80880  0.30232  0.78226  Biso   1.000  O
  C78      1.0000 0.59701  0.31171  0.84759  Biso   1.000  C
  N52      1.0000 0.51430  0.12593  0.92241  Biso   1.000  N
  H74      1.0000 0.65338  0.13346  0.90799  Biso   1.000  H
  O26      1.0000 0.41288  0.02245  0.94536  Biso   1.000  O
  N53      1.0000 0.90537  0.64225  0.71269  Biso   1.000  N
  H75      1.0000 0.80634  0.68546  0.65851  Biso   1.000  H
  H76      1.0000 0.91076  0.67703  0.62950  Biso   1.000  H
  C79      1.0000 0.76274  0.50254  0.77881  Biso   1.000  C
  N54      1.0000 0.51091  0.36487  0.87029  Biso   1.000  N
  H77      1.0000 0.64742  0.30136  0.87319  Biso   1.000  H
  H78      1.0000 0.61615  0.34996  0.81080  Biso   1.000  H
  C80      1.0000 0.48460  0.17213  0.96819  Biso   1.000  C
  C81      1.0000 0.98827  0.66552  0.71681  Biso   1.000  C
  C82      1.0000 0.84565  0.63934  0.76452  Biso   1.000  C
  N55      1.0000 0.83236  0.54515  0.79361  Biso   1.000  N
  H79      1.0000 0.74549  0.45471  0.81198  Biso   1.000  H
  H80      1.0000 0.70559  0.55221  0.76902  Biso   1.000  H
  C83      1.0000 0.47040  0.45514  0.84292  Biso   1.000  C
  C84      1.0000 0.48538  0.34700  0.93002  Biso   1.000  C
  N56      1.0000 0.43660  0.26986  0.95079  Biso   1.000  N
  H81      1.0000 0.44230  0.13691  0.99539  Biso   1.000  H
  H82      1.0000 0.54038  0.16941  0.98782  Biso   1.000  H
  O27      1.0000 0.04794  0.67892  0.67784  Biso   1.000  O
  N57      1.0000 0.99165  0.67365  0.77062  Biso   1.000  N
  H83      1.0000 0.78427  0.68552  0.75838  Biso   1.000  H
  C85      1.0000 0.90346  0.66530  0.80370  Biso   1.000  C
  C86      1.0000 0.86305  0.51994  0.84612  Biso   1.000  C
  N58      1.0000 0.40750  0.49634  0.88059  Biso   1.000  N
  O28      1.0000 0.48478  0.49204  0.79412  Biso   1.000  O
  C87      1.0000 0.40835  0.43616  0.93649  Biso   1.000  C
  H84      1.0000 0.54042  0.33943  0.95222  Biso   1.000  H
  C88      1.0000 0.34409  0.30117  0.96659  Biso   1.000  C
  C89      1.0000 0.05556  0.72364  0.78441  Biso   1.000  C
  N59      1.0000 0.90916  0.58543  0.85251  Biso   1.000  N
  H85      1.0000 0.87150  0.72635  0.81408  Biso   1.000  H
  O29      1.0000 0.84968  0.45100  0.88349  Biso   1.000  O
  C90      1.0000 0.35495  0.59256  0.86671  Biso   1.000  C
  N60      1.0000 0.32460  0.39817  0.95499  Biso   1.000  N
  H86      1.0000 0.42388  0.46764  0.96449  Biso   1.000  H
  O30      1.0000 0.28888  0.24991  0.98849  Biso   1.000  O
  N61      1.0000 0.11863  0.66637  0.82569  Biso   1.000  N
  H87      1.0000 0.01849  0.77882  0.79849  Biso   1.000  H
  H88      1.0000 0.09275  0.74805  0.74981  Biso   1.000  H
  C91      1.0000 0.94008  0.58733  0.90459  Biso   1.000  C
  N62      1.0000 0.25489  0.59965  0.86339  Biso   1.000  N
  H89      1.0000 0.36290  0.62567  0.89551  Biso   1.000  H
  H90      1.0000 0.38097  0.62556  0.83010  Biso   1.000  H
  C92      1.0000 0.24330  0.44851  0.98299  Biso   1.000  C
  C93      1.0000 0.21299  0.64312  0.81459  Biso   1.000  C
  C94      1.0000 0.09268  0.64675  0.88622  Biso   1.000  C
  N63      1.0000 0.04074  0.57186  0.90581  Biso   1.000  N
  H91      1.0000 0.91116  0.64965  0.91329  Biso   1.000  H
  H92      1.0000 0.91704  0.53806  0.93452  Biso   1.000  H
  C95      1.0000 0.18826  0.60401  0.91232  Biso   1.000  C
  N64      1.0000 0.17620  0.51186  0.94490  Biso   1.000  N
  H93      1.0000 0.26468  0.48580  0.00510  Biso   1.000  H
  H94      1.0000 0.21149  0.40173  0.00972  Biso   1.000  H
  O31      1.0000 0.25385  0.66011  0.76742  Biso   1.000  O
  H95      1.0000 0.05967  0.70584  0.89862  Biso   1.000  H
  C96      1.0000 0.08979  0.49467  0.94150  Biso   1.000  C
  H96      1.0000 0.20277  0.64376  0.93612  Biso   1.000  H
  O32      1.0000 0.06099  0.42342  0.96647  Biso   1.000  O
