data_image0
_cell_length_a       19.164
_cell_length_b       24.527
_cell_length_c       26.135
_cell_angle_alpha    89.75
_cell_angle_beta     85.25
_cell_angle_gamma    71.41

_symmetry_space_group_name_H-M    "P 1"
_symmetry_int_tables_number       1

loop_
  _symmetry_equiv_pos_as_xyz
  'x, y, z'

loop_
  _atom_site_label
  _atom_site_occupancy
  _atom_site_fract_x
  _atom_site_fract_y
  _atom_site_fract_z
  _atom_site_thermal_displace_type
  _atom_site_B_iso_or_equiv
  _atom_site_type_symbol
  O1       1.0000 0.65887  0.65956  0.41785  Biso   1.000  O
  C1       1.0000 0.62024  0.70149  0.39630  Biso   1.000  C
  N1       1.0000 0.58996  0.70043  0.35083  Biso   1.000  N
  N2       1.0000 0.59914  0.75713  0.41359  Biso   1.000  N
  C2       1.0000 0.59301  0.64826  0.32472  Biso   1.000  C
  C3       1.0000 0.54541  0.75683  0.33597  Biso   1.000  C
  C4       1.0000 0.54831  0.79587  0.38136  Biso   1.000  C
  C5       1.0000 0.60221  0.77079  0.46685  Biso   1.000  C
  N3       1.0000 0.64491  0.63431  0.27970  Biso   1.000  N
  H1       1.0000 0.60663  0.61611  0.34891  Biso   1.000  H
  H2       1.0000 0.54312  0.65191  0.31438  Biso   1.000  H
  N4       1.0000 0.57707  0.78024  0.29219  Biso   1.000  N
  H3       1.0000 0.49363  0.75813  0.33140  Biso   1.000  H
  N5       1.0000 0.57620  0.83854  0.35675  Biso   1.000  N
  H4       1.0000 0.49854  0.81369  0.39999  Biso   1.000  H
  N6       1.0000 0.64776  0.80675  0.47373  Biso   1.000  N
  H5       1.0000 0.55153  0.79072  0.48229  Biso   1.000  H
  H6       1.0000 0.62192  0.73462  0.48540  Biso   1.000  H
  C6       1.0000 0.70490  0.58623  0.27698  Biso   1.000  C
  C7       1.0000 0.62526  0.65613  0.22928  Biso   1.000  C
  C8       1.0000 0.58929  0.83047  0.30471  Biso   1.000  C
  C9       1.0000 0.56992  0.76503  0.23996  Biso   1.000  C
  C10      1.0000 0.56772  0.89297  0.38209  Biso   1.000  C
  C11      1.0000 0.61944  0.86871  0.46927  Biso   1.000  C
  C12      1.0000 0.70518  0.79005  0.50434  Biso   1.000  C
  N7       1.0000 0.73488  0.57707  0.22759  Biso   1.000  N
  O2       1.0000 0.72798  0.55531  0.31327  Biso   1.000  O
  N8       1.0000 0.62790  0.71350  0.22041  Biso   1.000  N
  C13      1.0000 0.69035  0.61833  0.19333  Biso   1.000  C
  H7       1.0000 0.57701  0.65209  0.22110  Biso   1.000  H
  O3       1.0000 0.60748  0.86263  0.27464  Biso   1.000  O
  H8       1.0000 0.52144  0.75909  0.23830  Biso   1.000  H
  H9       1.0000 0.57092  0.79752  0.21760  Biso   1.000  H
  N9       1.0000 0.62349  0.88942  0.41727  Biso   1.000  N
  H10      1.0000 0.51844  0.90689  0.40130  Biso   1.000  H
  H11      1.0000 0.57013  0.92162  0.35571  Biso   1.000  H
  H12      1.0000 0.56874  0.88509  0.48709  Biso   1.000  H
  C14      1.0000 0.67696  0.88909  0.49527  Biso   1.000  C
  N10      1.0000 0.72558  0.83687  0.51498  Biso   1.000  N
  O4       1.0000 0.73354  0.74151  0.52004  Biso   1.000  O
  C15      1.0000 0.78520  0.52172  0.20981  Biso   1.000  C
  C16      1.0000 0.68415  0.71456  0.18523  Biso   1.000  C
  N11      1.0000 0.72523  0.65881  0.17209  Biso   1.000  N
  H13      1.0000 0.67292  0.59869  0.16591  Biso   1.000  H
  C17      1.0000 0.67517  0.91634  0.40902  Biso   1.000  C
  N12      1.0000 0.71017  0.91319  0.45284  Biso   1.000  N
  H14      1.0000 0.65306  0.91843  0.52331  Biso   1.000  H
  C18      1.0000 0.77525  0.83596  0.55430  Biso   1.000  C
  N13      1.0000 0.85694  0.52331  0.19349  Biso   1.000  N
  H15      1.0000 0.76480  0.50771  0.18089  Biso   1.000  H
  H16      1.0000 0.78890  0.49402  0.23788  Biso   1.000  H
  O5       1.0000 0.69589  0.75756  0.16841  Biso   1.000  O
  C19      1.0000 0.78280  0.64400  0.13031  Biso   1.000  C
  O6       1.0000 0.68773  0.94035  0.36953  Biso   1.000  O
  C20      1.0000 0.76534  0.94062  0.45898  Biso   1.000  C
  N14      1.0000 0.84871  0.83206  0.53341  Biso   1.000  N
  H17      1.0000 0.77805  0.80273  0.57662  Biso   1.000  H
  H18      1.0000 0.75463  0.87141  0.57600  Biso   1.000  H
  C21      1.0000 0.91900  0.49014  0.21476  Biso   1.000  C
  C22      1.0000 0.87472  0.54672  0.14460  Biso   1.000  C
  N15      1.0000 0.85396  0.60881  0.14525  Biso   1.000  N
  H19      1.0000 0.78782  0.67991  0.11548  Biso   1.000  H
  H20      1.0000 0.76774  0.62320  0.10312  Biso   1.000  H
  N16      1.0000 0.83797  0.89982  0.46317  Biso   1.000  N
  H21      1.0000 0.76734  0.96531  0.42922  Biso   1.000  H
  H22      1.0000 0.75064  0.96570  0.49020  Biso   1.000  H
  C23      1.0000 0.86659  0.88128  0.51240  Biso   1.000  C
  C24      1.0000 0.91034  0.78772  0.54197  Biso   1.000  C
  N17      1.0000 0.97927  0.49446  0.18580  Biso   1.000  N
  O7       1.0000 0.91969  0.46239  0.25397  Biso   1.000  O
  C25      1.0000 0.95964  0.52641  0.13930  Biso   1.000  C
  H23      1.0000 0.85442  0.53190  0.11548  Biso   1.000  H
  C26      1.0000 0.91494  0.62658  0.13711  Biso   1.000  C
  C27      1.0000 0.89343  0.89098  0.42449  Biso   1.000  C
  H24      1.0000 0.85254  0.91404  0.53790  Biso   1.000  H
  C28      1.0000 0.95055  0.85810  0.49954  Biso   1.000  C
  N18      1.0000 0.97068  0.80056  0.51993  Biso   1.000  N
  O8       1.0000 0.91345  0.74436  0.56667  Biso   1.000  O
  C29      1.0000 0.05332  0.45739  0.19260  Biso   1.000  C
  N19      1.0000 0.97706  0.57961  0.13707  Biso   1.000  N
  H25      1.0000 0.98024  0.50180  0.10769  Biso   1.000  H
  O9       1.0000 0.91433  0.67620  0.13150  Biso   1.000  O
  N20      1.0000 0.95917  0.86113  0.44419  Biso   1.000  N
  O10      1.0000 0.88573  0.90730  0.38056  Biso   1.000  O
  H26      1.0000 0.97583  0.88220  0.51628  Biso   1.000  H
  C30      1.0000 0.04533  0.76602  0.52661  Biso   1.000  C
  N21      1.0000 0.10316  0.48803  0.20293  Biso   1.000  N
  H27      1.0000 0.07294  0.43321  0.16119  Biso   1.000  H
  H28      1.0000 0.05113  0.43138  0.22141  Biso   1.000  H
  C31      1.0000 0.04745  0.58152  0.11306  Biso   1.000  C
  C32      1.0000 0.02693  0.86528  0.41873  Biso   1.000  C
  N22      1.0000 0.08968  0.74384  0.47926  Biso   1.000  N
  H29      1.0000 0.06934  0.78943  0.54501  Biso   1.000  H
  H30      1.0000 0.04424  0.73322  0.54850  Biso   1.000  H
  C33      1.0000 0.13726  0.48172  0.24806  Biso   1.000  C
  C34      1.0000 0.14260  0.50917  0.16261  Biso   1.000  C
  N23      1.0000 0.10515  0.56797  0.14782  Biso   1.000  N
  H31      1.0000 0.04085  0.62048  0.09958  Biso   1.000  H
  H32      1.0000 0.06304  0.55391  0.08361  Biso   1.000  H
  N24      1.0000 0.08212  0.80982  0.40852  Biso   1.000  N
  H33      1.0000 0.01615  0.88520  0.38590  Biso   1.000  H
  H34      1.0000 0.04687  0.88882  0.44039  Biso   1.000  H
  C35      1.0000 0.12546  0.77861  0.44850  Biso   1.000  C
  C36      1.0000 0.12589  0.68605  0.47043  Biso   1.000  C
  N25      1.0000 0.19483  0.50279  0.24118  Biso   1.000  N
  O11      1.0000 0.11777  0.46111  0.28723  Biso   1.000  O
  C37      1.0000 0.21105  0.51447  0.18753  Biso   1.000  C
  H35      1.0000 0.15751  0.48222  0.13211  Biso   1.000  H
  C38      1.0000 0.14921  0.60225  0.15089  Biso   1.000  C
  C39      1.0000 0.12014  0.79727  0.36120  Biso   1.000  C
  H36      1.0000 0.14196  0.80460  0.47050  Biso   1.000  H
  C40      1.0000 0.19116  0.73441  0.41823  Biso   1.000  C
  N26      1.0000 0.18020  0.68013  0.43141  Biso   1.000  N
  O12      1.0000 0.11114  0.64691  0.49343  Biso   1.000  O
  C41      1.0000 0.24942  0.49334  0.27798  Biso   1.000  C
  N27      1.0000 0.20848  0.57274  0.17716  Biso   1.000  N
  H37      1.0000 0.25793  0.48602  0.17229  Biso   1.000  H
  O13      1.0000 0.13749  0.65024  0.13396  Biso   1.000  O
  N28      1.0000 0.18150  0.75007  0.36546  Biso   1.000  N
  O14      1.0000 0.10244  0.82317  0.32180  Biso   1.000  O
  H38      1.0000 0.23945  0.73619  0.42872  Biso   1.000  H
  C42      1.0000 0.23673  0.62601  0.41796  Biso   1.000  C
  N29      1.0000 0.25004  0.54601  0.30171  Biso   1.000  N
  H39      1.0000 0.29884  0.47362  0.26050  Biso   1.000  H
  H40      1.0000 0.23922  0.46781  0.30490  Biso   1.000  H
  C43      1.0000 0.26731  0.59509  0.18634  Biso   1.000  C
  C44      1.0000 0.24175  0.73402  0.32564  Biso   1.000  C
  N30      1.0000 0.23965  0.60891  0.36466  Biso   1.000  N
  H41      1.0000 0.28532  0.62903  0.42499  Biso   1.000  H
  H42      1.0000 0.22745  0.59570  0.44001  Biso   1.000  H
  C45      1.0000 0.22369  0.56060  0.35114  Biso   1.000  C
  C46      1.0000 0.29345  0.58078  0.28055  Biso   1.000  C
  N31      1.0000 0.26283  0.61649  0.23827  Biso   1.000  N
  H43      1.0000 0.31520  0.56431  0.17889  Biso   1.000  H
  H44      1.0000 0.26604  0.62672  0.16230  Biso   1.000  H
  N32      1.0000 0.25102  0.67947  0.30106  Biso   1.000  N
  H45      1.0000 0.28815  0.73222  0.34081  Biso   1.000  H
  H46      1.0000 0.23286  0.76409  0.29941  Biso   1.000  H
  C47      1.0000 0.28563  0.62511  0.32452  Biso   1.000  C
  O15      1.0000 0.19166  0.53463  0.37967  Biso   1.000  O
  H47      1.0000 0.34624  0.55719  0.27172  Biso   1.000  H
  C48      1.0000 0.23928  0.67339  0.25102  Biso   1.000  C
  H48      1.0000 0.33485  0.62301  0.33620  Biso   1.000  H
  O16      1.0000 0.21295  0.71268  0.22202  Biso   1.000  O
  O17      1.0000 0.34120  0.34050  0.58215  Biso   1.000  O
  C49      1.0000 0.37984  0.29852  0.60369  Biso   1.000  C
  N33      1.0000 0.40090  0.24288  0.58641  Biso   1.000  N
  N34      1.0000 0.41013  0.29958  0.64916  Biso   1.000  N
  C50      1.0000 0.39782  0.22923  0.53314  Biso   1.000  C
  C51      1.0000 0.45171  0.20419  0.61863  Biso   1.000  C
  C52      1.0000 0.45462  0.24319  0.66403  Biso   1.000  C
  C53      1.0000 0.40702  0.35175  0.67532  Biso   1.000  C
  N35      1.0000 0.35227  0.19326  0.52627  Biso   1.000  N
  H49      1.0000 0.44850  0.20930  0.51770  Biso   1.000  H
  H50      1.0000 0.37810  0.26544  0.51459  Biso   1.000  H
  N36      1.0000 0.42383  0.16147  0.64325  Biso   1.000  N
  H51      1.0000 0.50149  0.18633  0.60000  Biso   1.000  H
  N37      1.0000 0.42302  0.21977  0.70781  Biso   1.000  N
  H52      1.0000 0.50638  0.24193  0.66860  Biso   1.000  H
  N38      1.0000 0.35513  0.36570  0.72029  Biso   1.000  N
  H53      1.0000 0.39346  0.38390  0.65108  Biso   1.000  H
  H54      1.0000 0.45692  0.34811  0.68561  Biso   1.000  H
  C54      1.0000 0.29485  0.20997  0.49570  Biso   1.000  C
  C55      1.0000 0.38058  0.13135  0.53072  Biso   1.000  C
  C56      1.0000 0.43231  0.10704  0.61790  Biso   1.000  C
  C57      1.0000 0.41075  0.16954  0.69529  Biso   1.000  C
  C58      1.0000 0.43012  0.23499  0.76004  Biso   1.000  C
  C59      1.0000 0.29513  0.41378  0.72302  Biso   1.000  C
  C60      1.0000 0.37483  0.34388  0.77072  Biso   1.000  C
  N39      1.0000 0.27445  0.16315  0.48506  Biso   1.000  N
  O18      1.0000 0.26647  0.25855  0.47995  Biso   1.000  O
  C61      1.0000 0.32311  0.11097  0.50472  Biso   1.000  C
  N40      1.0000 0.37653  0.11064  0.58272  Biso   1.000  N
  H55      1.0000 0.43130  0.11492  0.51290  Biso   1.000  H
  H56      1.0000 0.48159  0.09312  0.59870  Biso   1.000  H
  H57      1.0000 0.42989  0.07844  0.64429  Biso   1.000  H
  O19      1.0000 0.39254  0.13742  0.72536  Biso   1.000  O
  N41      1.0000 0.37213  0.28651  0.77959  Biso   1.000  N
  H58      1.0000 0.47859  0.24092  0.76169  Biso   1.000  H
  H59      1.0000 0.42909  0.20253  0.78239  Biso   1.000  H
  N42      1.0000 0.26520  0.42294  0.77241  Biso   1.000  N
  O20      1.0000 0.27210  0.44471  0.68672  Biso   1.000  O
  C62      1.0000 0.30974  0.38168  0.80666  Biso   1.000  C
  H60      1.0000 0.42303  0.34792  0.77890  Biso   1.000  H
  C63      1.0000 0.22483  0.16405  0.44569  Biso   1.000  C
  N43      1.0000 0.28986  0.08683  0.54716  Biso   1.000  N
  H61      1.0000 0.34701  0.08163  0.47669  Biso   1.000  H
  C64      1.0000 0.32490  0.08371  0.59098  Biso   1.000  C
  C65      1.0000 0.31594  0.28546  0.81480  Biso   1.000  C
  C66      1.0000 0.21483  0.47830  0.79019  Biso   1.000  C
  N44      1.0000 0.27479  0.34125  0.82790  Biso   1.000  N
  H62      1.0000 0.32712  0.40133  0.83408  Biso   1.000  H
  N45      1.0000 0.15132  0.16795  0.46658  Biso   1.000  N
  H63      1.0000 0.22202  0.19732  0.42342  Biso   1.000  H
  H64      1.0000 0.24540  0.12860  0.42399  Biso   1.000  H
  C67      1.0000 0.23468  0.05944  0.54101  Biso   1.000  C
  O21      1.0000 0.31229  0.05971  0.63046  Biso   1.000  O
  O22      1.0000 0.30414  0.24245  0.83159  Biso   1.000  O
  N46      1.0000 0.14314  0.47670  0.80651  Biso   1.000  N
  H65      1.0000 0.23521  0.49235  0.81911  Biso   1.000  H
  H66      1.0000 0.21112  0.50604  0.76211  Biso   1.000  H
  C68      1.0000 0.21724  0.35602  0.86969  Biso   1.000  C
  C69      1.0000 0.08969  0.21230  0.45802  Biso   1.000  C
  C70      1.0000 0.13350  0.11873  0.48759  Biso   1.000  C
  N47      1.0000 0.16211  0.10019  0.53687  Biso   1.000  N
  H67      1.0000 0.23269  0.03471  0.57082  Biso   1.000  H
  H68      1.0000 0.24939  0.03432  0.50979  Biso   1.000  H
  C71      1.0000 0.08101  0.50991  0.78523  Biso   1.000  C
  C72      1.0000 0.12535  0.45333  0.85540  Biso   1.000  C
  N48      1.0000 0.14607  0.39120  0.85475  Biso   1.000  N
  H69      1.0000 0.21220  0.32014  0.88451  Biso   1.000  H
  H70      1.0000 0.23234  0.37682  0.89691  Biso   1.000  H
  O23      1.0000 0.08658  0.25566  0.43336  Biso   1.000  O
  N49      1.0000 0.02934  0.19949  0.48006  Biso   1.000  N
  C73      1.0000 0.04951  0.14196  0.50050  Biso   1.000  C
  H71      1.0000 0.14748  0.08602  0.46209  Biso   1.000  H
  C74      1.0000 0.10659  0.10907  0.57550  Biso   1.000  C
  N50      1.0000 0.02080  0.50559  0.81419  Biso   1.000  N
  O24      1.0000 0.08035  0.53762  0.74602  Biso   1.000  O
  C75      1.0000 0.04045  0.47360  0.86070  Biso   1.000  C
  H72      1.0000 0.14561  0.46812  0.88451  Biso   1.000  H
  C76      1.0000 0.08514  0.37343  0.86289  Biso   1.000  C
  C77      1.0000 0.95470  0.23399  0.47338  Biso   1.000  C
  N51      1.0000 0.04086  0.13889  0.55584  Biso   1.000  N
  H73      1.0000 0.02421  0.11782  0.48371  Biso   1.000  H
  O25      1.0000 0.11430  0.09272  0.61948  Biso   1.000  O
  C78      1.0000 0.94671  0.54263  0.80739  Biso   1.000  C
  N52      1.0000 0.02296  0.42045  0.86293  Biso   1.000  N
  H74      1.0000 0.01984  0.49822  0.89231  Biso   1.000  H
  O26      1.0000 0.08571  0.32381  0.86849  Biso   1.000  O
  N53      1.0000 0.91035  0.25618  0.52074  Biso   1.000  N
  H75      1.0000 0.93073  0.21062  0.45499  Biso   1.000  H
  H76      1.0000 0.95579  0.26680  0.45149  Biso   1.000  H
  C79      1.0000 0.97309  0.13478  0.58126  Biso   1.000  C
  N54      1.0000 0.89686  0.51203  0.79706  Biso   1.000  N
  H77      1.0000 0.92714  0.56680  0.83881  Biso   1.000  H
  H78      1.0000 0.94891  0.56863  0.77859  Biso   1.000  H
  C80      1.0000 0.95263  0.41850  0.88693  Biso   1.000  C
  C81      1.0000 0.87460  0.22145  0.55154  Biso   1.000  C
  C82      1.0000 0.87419  0.31396  0.52961  Biso   1.000  C
  N55      1.0000 0.91794  0.19023  0.59148  Biso   1.000  N
  H79      1.0000 0.98389  0.11481  0.61410  Biso   1.000  H
  H80      1.0000 0.95322  0.11120  0.55960  Biso   1.000  H
  C83      1.0000 0.86277  0.51829  0.75194  Biso   1.000  C
  C84      1.0000 0.85743  0.49084  0.83739  Biso   1.000  C
  N56      1.0000 0.89489  0.43204  0.85217  Biso   1.000  N
  H81      1.0000 0.95923  0.37953  0.90041  Biso   1.000  H
  H82      1.0000 0.93705  0.44611  0.91639  Biso   1.000  H
  H83      1.0000 0.85813  0.19541  0.52949  Biso   1.000  H
  C85      1.0000 0.80892  0.26560  0.58176  Biso   1.000  C
  N57      1.0000 0.81983  0.31989  0.56859  Biso   1.000  N
  O27      1.0000 0.88889  0.35311  0.50656  Biso   1.000  O
  C86      1.0000 0.87989  0.20274  0.63879  Biso   1.000  C
  N58      1.0000 0.80526  0.49722  0.75881  Biso   1.000  N
  O28      1.0000 0.88232  0.53890  0.71276  Biso   1.000  O
  C87      1.0000 0.78904  0.48555  0.81246  Biso   1.000  C
  H84      1.0000 0.84250  0.51784  0.86788  Biso   1.000  H
  C88      1.0000 0.85083  0.39776  0.84910  Biso   1.000  C
  N59      1.0000 0.81859  0.24994  0.63453  Biso   1.000  N
  H85      1.0000 0.76063  0.26382  0.57132  Biso   1.000  H
  C89      1.0000 0.76329  0.37405  0.58203  Biso   1.000  C
  O29      1.0000 0.89765  0.17684  0.67820  Biso   1.000  O
  C90      1.0000 0.75061  0.50667  0.72202  Biso   1.000  C
  N60      1.0000 0.79155  0.42727  0.82283  Biso   1.000  N
  H86      1.0000 0.74214  0.51403  0.82771  Biso   1.000  H
  O30      1.0000 0.86253  0.34981  0.86604  Biso   1.000  O
  C91      1.0000 0.75832  0.26604  0.67436  Biso   1.000  C
  N61      1.0000 0.76038  0.39110  0.63534  Biso   1.000  N
  H87      1.0000 0.71470  0.37103  0.57500  Biso   1.000  H
  H88      1.0000 0.77263  0.40432  0.55999  Biso   1.000  H
  N62      1.0000 0.75000  0.45400  0.69828  Biso   1.000  N
  H89      1.0000 0.70123  0.52644  0.73949  Biso   1.000  H
  H90      1.0000 0.76082  0.53221  0.69510  Biso   1.000  H
  C92      1.0000 0.73273  0.40492  0.81365  Biso   1.000  C
  N63      1.0000 0.74906  0.32054  0.69894  Biso   1.000  N
  H91      1.0000 0.71192  0.26784  0.65919  Biso   1.000  H
  H92      1.0000 0.76722  0.23593  0.70059  Biso   1.000  H
  C93      1.0000 0.71438  0.37494  0.67547  Biso   1.000  C
  C94      1.0000 0.77635  0.43942  0.64886  Biso   1.000  C
  C95      1.0000 0.70663  0.41924  0.71944  Biso   1.000  C
  N64      1.0000 0.73720  0.38352  0.76177  Biso   1.000  N
  H93      1.0000 0.68482  0.43575  0.82110  Biso   1.000  H
  H94      1.0000 0.73403  0.37333  0.83769  Biso   1.000  H
  C96      1.0000 0.76081  0.32662  0.74902  Biso   1.000  C
  H95      1.0000 0.66524  0.37700  0.66380  Biso   1.000  H
  O31      1.0000 0.80842  0.46538  0.62032  Biso   1.000  O
  H96      1.0000 0.65379  0.44283  0.72832  Biso   1.000  H
  O32      1.0000 0.78712  0.28738  0.77797  Biso   1.000  O
  O33      1.0000 0.62166  0.35388  0.27609  Biso   1.000  O
  C97      1.0000 0.59993  0.32416  0.24825  Biso   1.000  C
  N65      1.0000 0.58472  0.27479  0.26192  Biso   1.000  N
  N66      1.0000 0.58596  0.33450  0.19783  Biso   1.000  N
  C98      1.0000 0.55114  0.25366  0.22202  Biso   1.000  C
  C99      1.0000 0.57771  0.25871  0.31504  Biso   1.000  C
  C100     1.0000 0.55519  0.29403  0.17666  Biso   1.000  C
  C101     1.0000 0.58149  0.38881  0.17424  Biso   1.000  C
  N67      1.0000 0.59401  0.19766  0.20094  Biso   1.000  N
  H97      1.0000 0.49909  0.25580  0.23300  Biso   1.000  H
  N68      1.0000 0.63415  0.20694  0.32721  Biso   1.000  N
  H98      1.0000 0.57960  0.29061  0.33739  Biso   1.000  H
  H99      1.0000 0.52879  0.25349  0.32260  Biso   1.000  H
  N69      1.0000 0.60421  0.25554  0.13761  Biso   1.000  N
  H100     1.0000 0.50543  0.31358  0.16449  Biso   1.000  H
  N70      1.0000 0.63742  0.38446  0.13281  Biso   1.000  N
  H101     1.0000 0.53228  0.40512  0.16111  Biso   1.000  H
  H102     1.0000 0.58591  0.41592  0.20078  Biso   1.000  H
  C102     1.0000 0.62390  0.19944  0.15212  Biso   1.000  C
  C103     1.0000 0.59674  0.14516  0.22648  Biso   1.000  C
  C104     1.0000 0.69102  0.20665  0.35556  Biso   1.000  C
  C105     1.0000 0.63109  0.14983  0.31803  Biso   1.000  C
  C106     1.0000 0.60780  0.27088  0.08415  Biso   1.000  C
  C107     1.0000 0.69014  0.41036  0.13473  Biso   1.000  C
  C108     1.0000 0.63152  0.36659  0.08096  Biso   1.000  C
  O34      1.0000 0.66175  0.15809  0.12524  Biso   1.000  O
  N71      1.0000 0.64936  0.12995  0.26500  Biso   1.000  N
  H103     1.0000 0.60971  0.11351  0.20051  Biso   1.000  H
  H104     1.0000 0.54701  0.14891  0.24299  Biso   1.000  H
  N72      1.0000 0.73139  0.15110  0.36324  Biso   1.000  N
  O35      1.0000 0.70346  0.24942  0.37088  Biso   1.000  O
  C109     1.0000 0.69722  0.11051  0.34576  Biso   1.000  C
  H105     1.0000 0.58300  0.14573  0.33220  Biso   1.000  H
  N73      1.0000 0.65587  0.30485  0.07224  Biso   1.000  N
  H106     1.0000 0.62541  0.23521  0.06260  Biso   1.000  H
  H107     1.0000 0.55739  0.29280  0.07520  Biso   1.000  H
  N74      1.0000 0.72554  0.40749  0.08710  Biso   1.000  N
  O36      1.0000 0.70291  0.43343  0.17302  Biso   1.000  O
  H108     1.0000 0.58104  0.38539  0.06959  Biso   1.000  H
  C110     1.0000 0.69071  0.38540  0.04843  Biso   1.000  C
  C111     1.0000 0.70951  0.08172  0.25966  Biso   1.000  C
  C112     1.0000 0.78979  0.13519  0.39799  Biso   1.000  C
  N75      1.0000 0.74040  0.07083  0.30547  Biso   1.000  N
  H109     1.0000 0.68028  0.09011  0.37499  Biso   1.000  H
  C113     1.0000 0.71279  0.28782  0.03445  Biso   1.000  C
  C114     1.0000 0.78161  0.43408  0.07447  Biso   1.000  C
  N76      1.0000 0.73662  0.33361  0.02212  Biso   1.000  N
  H110     1.0000 0.66779  0.41581  0.02370  Biso   1.000  H
  O37      1.0000 0.73187  0.05226  0.22029  Biso   1.000  O
  N77      1.0000 0.86071  0.10228  0.37314  Biso   1.000  N
  H111     1.0000 0.79398  0.17061  0.41359  Biso   1.000  H
  H112     1.0000 0.77599  0.11240  0.42611  Biso   1.000  H
  C115     1.0000 0.79378  0.01589  0.31504  Biso   1.000  C
  O38      1.0000 0.73836  0.23976  0.01452  Biso   1.000  O
  N78      1.0000 0.85280  0.39293  0.06033  Biso   1.000  N
  H113     1.0000 0.76682  0.46052  0.04570  Biso   1.000  H
  H114     1.0000 0.78520  0.45741  0.10439  Biso   1.000  H
  C116     1.0000 0.78611  0.33286  0.97703  Biso   1.000  C
  C117     1.0000 0.92019  0.12188  0.37261  Biso   1.000  C
  C118     1.0000 0.88312  0.04032  0.36904  Biso   1.000  C
  N79      1.0000 0.86578  0.01942  0.32176  Biso   1.000  N
  H115     1.0000 0.77592  0.99963  0.34618  Biso   1.000  H
  H116     1.0000 0.79773  0.98923  0.28581  Biso   1.000  H
  C119     1.0000 0.91080  0.38469  0.09033  Biso   1.000  C
  C120     1.0000 0.87854  0.37666  0.00718  Biso   1.000  C
  N80      1.0000 0.85967  0.32803  0.98817  Biso   1.000  N
  H117     1.0000 0.78805  0.30013  0.95430  Biso   1.000  H
  H118     1.0000 0.76572  0.36867  0.95802  Biso   1.000  H
  N81      1.0000 0.98412  0.07579  0.36354  Biso   1.000  N
  O39      1.0000 0.91783  0.17177  0.37871  Biso   1.000  O
  C121     1.0000 0.96812  0.02177  0.36400  Biso   1.000  C
  H119     1.0000 0.86381  0.02339  0.39968  Biso   1.000  H
  C122     1.0000 0.92774  0.98646  0.29322  Biso   1.000  C
  N82      1.0000 0.97495  0.35632  0.06149  Biso   1.000  N
  O40      1.0000 0.90524  0.40061  0.13519  Biso   1.000  O
  C123     1.0000 0.96300  0.35310  0.00749  Biso   1.000  C
  H120     1.0000 0.86291  0.41043  0.98429  Biso   1.000  H
  C124     1.0000 0.92083  0.28376  0.97154  Biso   1.000  C
  C125     1.0000 0.05348  0.07891  0.37940  Biso   1.000  C
  N83      1.0000 0.98829  0.98950  0.31584  Biso   1.000  N
  H121     1.0000 0.98942  0.99750  0.39331  Biso   1.000  H
  O41      1.0000 0.92895  0.95902  0.25417  Biso   1.000  O
  C126     1.0000 0.04330  0.36097  0.07658  Biso   1.000  C
  N84      1.0000 0.98204  0.29570  0.98571  Biso   1.000  N
  H122     1.0000 0.98731  0.37715  0.98629  Biso   1.000  H
  O42      1.0000 0.92267  0.24113  0.94669  Biso   1.000  O
  N85      1.0000 0.11178  0.06553  0.33797  Biso   1.000  N
  H123     1.0000 0.04580  0.11812  0.39312  Biso   1.000  H
  H124     1.0000 0.06922  0.05173  0.40752  Biso   1.000  H
  C127     1.0000 0.06215  0.95376  0.29968  Biso   1.000  C
  N86      1.0000 0.09905  0.30583  0.08019  Biso   1.000  N
  H125     1.0000 0.03402  0.38142  0.11030  Biso   1.000  H
  H126     1.0000 0.06189  0.38431  0.05131  Biso   1.000  H
  C128     1.0000 0.05623  0.26073  0.96935  Biso   1.000  C
  C129     1.0000 0.15653  0.09938  0.32955  Biso   1.000  C
  C130     1.0000 0.15010  0.00648  0.32018  Biso   1.000  C
  N87      1.0000 0.11166  0.98543  0.28374  Biso   1.000  N
  H127     1.0000 0.06026  0.92853  0.27079  Biso   1.000  H
  H128     1.0000 0.08243  0.92883  0.32840  Biso   1.000  H
  C131     1.0000 0.13999  0.29384  0.12186  Biso   1.000  C
  C132     1.0000 0.13942  0.27376  0.03491  Biso   1.000  C
  H129     1.0000 0.07984  0.28373  0.94712  Biso   1.000  H
  H130     1.0000 0.05422  0.22784  0.94842  Biso   1.000  H
  N88      1.0000 0.10169  0.23877  0.01121  Biso   1.000  N
  N89      1.0000 0.21696  0.06956  0.29814  Biso   1.000  N
  O43      1.0000 0.14377  0.14785  0.34737  Biso   1.000  O
  H131     1.0000 0.16355  0.97984  0.34949  Biso   1.000  H
  C133     1.0000 0.21933  0.01114  0.28812  Biso   1.000  C
  C134     1.0000 0.14744  0.97866  0.23531  Biso   1.000  C
  N90      1.0000 0.20076  0.24672  0.10972  Biso   1.000  N
  O44      1.0000 0.12436  0.32072  0.16268  Biso   1.000  O
  H132     1.0000 0.15503  0.29908  0.00949  Biso   1.000  H
  C135     1.0000 0.20629  0.22946  0.05657  Biso   1.000  C
  C136     1.0000 0.13692  0.18136  0.01663  Biso   1.000  C
  C137     1.0000 0.27555  0.09192  0.28120  Biso   1.000  C
  N91      1.0000 0.20630  0.99882  0.23642  Biso   1.000  N
  H133     1.0000 0.26564  0.98274  0.29910  Biso   1.000  H
  O45      1.0000 0.12908  0.95871  0.19779  Biso   1.000  O
  C138     1.0000 0.26070  0.22757  0.14214  Biso   1.000  C
  N92      1.0000 0.19306  0.17512  0.04797  Biso   1.000  N
  H134     1.0000 0.25390  0.23001  0.03821  Biso   1.000  H
  O46      1.0000 0.12108  0.14235  0.99704  Biso   1.000  O
  N93      1.0000 0.27199  0.11176  0.22901  Biso   1.000  N
  H135     1.0000 0.32362  0.06149  0.28389  Biso   1.000  H
  H136     1.0000 0.27368  0.12423  0.30440  Biso   1.000  H
  C139     1.0000 0.26292  0.98787  0.19422  Biso   1.000  C
  N94      1.0000 0.26532  0.17352  0.16618  Biso   1.000  N
  H137     1.0000 0.25432  0.25731  0.16921  Biso   1.000  H
  H138     1.0000 0.30769  0.22341  0.12128  Biso   1.000  H
  C140     1.0000 0.24993  0.12042  0.05350  Biso   1.000  C
  C141     1.0000 0.25038  0.16898  0.21787  Biso   1.000  C
  C142     1.0000 0.30643  0.07551  0.18488  Biso   1.000  C
  H139     1.0000 0.31146  0.96821  0.20731  Biso   1.000  H
  H140     1.0000 0.25376  0.96140  0.16898  Biso   1.000  H
  N95      1.0000 0.26617  0.03920  0.16845  Biso   1.000  N
  C143     1.0000 0.30057  0.11874  0.14064  Biso   1.000  C
  N96      1.0000 0.25529  0.10196  0.10600  Biso   1.000  N
  H141     1.0000 0.23942  0.09080  0.03268  Biso   1.000  H
  H142     1.0000 0.29808  0.12350  0.03971  Biso   1.000  H
  O47      1.0000 0.22346  0.20889  0.24871  Biso   1.000  O
  H143     1.0000 0.35901  0.05292  0.18949  Biso   1.000  H
  C144     1.0000 0.23829  0.05429  0.12197  Biso   1.000  C
  H144     1.0000 0.35018  0.11610  0.12351  Biso   1.000  H
  O48      1.0000 0.20490  0.02899  0.09866  Biso   1.000  O
  O49      1.0000 0.37836  0.64618  0.72390  Biso   1.000  O
  C145     1.0000 0.40015  0.67585  0.75174  Biso   1.000  C
  N97      1.0000 0.41532  0.72522  0.73807  Biso   1.000  N
  N98      1.0000 0.41405  0.66556  0.80217  Biso   1.000  N
  C146     1.0000 0.42232  0.74130  0.68499  Biso   1.000  C
  C147     1.0000 0.44887  0.74640  0.77797  Biso   1.000  C
  C148     1.0000 0.44485  0.70599  0.82333  Biso   1.000  C
  C149     1.0000 0.41852  0.61124  0.82575  Biso   1.000  C
  N99      1.0000 0.36587  0.79312  0.67278  Biso   1.000  N
  H145     1.0000 0.42043  0.70940  0.66260  Biso   1.000  H
  H146     1.0000 0.47124  0.74652  0.67739  Biso   1.000  H
  N100     1.0000 0.40606  0.80240  0.79906  Biso   1.000  N
  H147     1.0000 0.50094  0.74422  0.76699  Biso   1.000  H
  N101     1.0000 0.39582  0.74447  0.86239  Biso   1.000  N
  H148     1.0000 0.49465  0.68643  0.83550  Biso   1.000  H
  N102     1.0000 0.36260  0.61559  0.86719  Biso   1.000  N
  H149     1.0000 0.46773  0.59494  0.83888  Biso   1.000  H
  H150     1.0000 0.41411  0.58414  0.79921  Biso   1.000  H
  C150     1.0000 0.30899  0.79341  0.64448  Biso   1.000  C
  C151     1.0000 0.36895  0.85018  0.68196  Biso   1.000  C
  C152     1.0000 0.40329  0.85485  0.77356  Biso   1.000  C
  C153     1.0000 0.37614  0.80057  0.84787  Biso   1.000  C
  C154     1.0000 0.39223  0.72914  0.91585  Biso   1.000  C
  C155     1.0000 0.30995  0.58965  0.86527  Biso   1.000  C
  C156     1.0000 0.36852  0.63342  0.91904  Biso   1.000  C
  O50      1.0000 0.29663  0.75059  0.62912  Biso   1.000  O
  N103     1.0000 0.26864  0.84891  0.63676  Biso   1.000  N
  C157     1.0000 0.30279  0.88955  0.65423  Biso   1.000  C
  N104     1.0000 0.35067  0.87006  0.73500  Biso   1.000  N
  H151     1.0000 0.41702  0.85433  0.66779  Biso   1.000  H
  H152     1.0000 0.39038  0.88650  0.79948  Biso   1.000  H
  H153     1.0000 0.45303  0.85111  0.75700  Biso   1.000  H
  O51      1.0000 0.33828  0.84193  0.87475  Biso   1.000  O
  N105     1.0000 0.34420  0.69521  0.92775  Biso   1.000  N
  H154     1.0000 0.37466  0.76484  0.93739  Biso   1.000  H
  H155     1.0000 0.44264  0.70722  0.92480  Biso   1.000  H
  N106     1.0000 0.27449  0.59253  0.91289  Biso   1.000  N
  O52      1.0000 0.29711  0.56662  0.82698  Biso   1.000  O
  H156     1.0000 0.41905  0.61462  0.93040  Biso   1.000  H
  C158     1.0000 0.30933  0.61462  0.95157  Biso   1.000  C
  C159     1.0000 0.21024  0.86482  0.60200  Biso   1.000  C
  N107     1.0000 0.25961  0.92923  0.69452  Biso   1.000  N
  H157     1.0000 0.31976  0.90990  0.62501  Biso   1.000  H
  C160     1.0000 0.29057  0.91829  0.74034  Biso   1.000  C
  C161     1.0000 0.28724  0.71220  0.96554  Biso   1.000  C
  C162     1.0000 0.21843  0.56593  0.92553  Biso   1.000  C
  N108     1.0000 0.26339  0.66645  0.97787  Biso   1.000  N
  H158     1.0000 0.33223  0.58425  0.97630  Biso   1.000  H
  N109     1.0000 0.13930  0.89778  0.62689  Biso   1.000  N
  H159     1.0000 0.20605  0.82940  0.58641  Biso   1.000  H
  H160     1.0000 0.22405  0.88762  0.57389  Biso   1.000  H
  C163     1.0000 0.20629  0.98417  0.68499  Biso   1.000  C
  O53      1.0000 0.26814  0.94780  0.77970  Biso   1.000  O
  O54      1.0000 0.26168  0.76025  0.98548  Biso   1.000  O
  N110     1.0000 0.14729  0.60708  0.93966  Biso   1.000  N
  H161     1.0000 0.23325  0.53954  0.95429  Biso   1.000  H
  H162     1.0000 0.21483  0.54261  0.89561  Biso   1.000  H
  C164     1.0000 0.21392  0.66716  0.02296  Biso   1.000  C
  C165     1.0000 0.07982  0.87818  0.62739  Biso   1.000  C
  C166     1.0000 0.11697  0.95970  0.63096  Biso   1.000  C
  N111     1.0000 0.13426  0.98059  0.67824  Biso   1.000  N
  H163     1.0000 0.22410  0.00043  0.65381  Biso   1.000  H
  H164     1.0000 0.20229  0.01083  0.71418  Biso   1.000  H
  C167     1.0000 0.08923  0.61533  0.90970  Biso   1.000  C
  C168     1.0000 0.12155  0.62335  0.99281  Biso   1.000  C
  N112     1.0000 0.14042  0.67198  0.01182  Biso   1.000  N
  H165     1.0000 0.21204  0.69988  0.04570  Biso   1.000  H
  H166     1.0000 0.23429  0.63139  0.04201  Biso   1.000  H
  N113     1.0000 0.01592  0.92422  0.63645  Biso   1.000  N
  O55      1.0000 0.08220  0.82825  0.62128  Biso   1.000  O
  C169     1.0000 0.03195  0.97828  0.63599  Biso   1.000  C
  H167     1.0000 0.13622  0.97662  0.60031  Biso   1.000  H
  C170     1.0000 0.07229  0.01356  0.70677  Biso   1.000  C
  N114     1.0000 0.02509  0.64370  0.93851  Biso   1.000  N
  O56      1.0000 0.09485  0.59940  0.86481  Biso   1.000  O
  C171     1.0000 0.03702  0.64696  0.99251  Biso   1.000  C
  H168     1.0000 0.13712  0.58958  0.01570  Biso   1.000  H
  C172     1.0000 0.07924  0.71629  0.02845  Biso   1.000  C
  C173     1.0000 0.94654  0.92114  0.62059  Biso   1.000  C
  N115     1.0000 0.01174  0.01051  0.68419  Biso   1.000  N
  H169     1.0000 0.01061  0.00251  0.60669  Biso   1.000  H
  O57      1.0000 0.07112  0.04103  0.74583  Biso   1.000  O
  C174     1.0000 0.95673  0.63905  0.92341  Biso   1.000  C
  N116     1.0000 0.01800  0.70431  0.01428  Biso   1.000  N
  H170     1.0000 0.01273  0.62287  0.01370  Biso   1.000  H
  O58      1.0000 0.07735  0.75893  0.05330  Biso   1.000  O
  N117     1.0000 0.88828  0.93453  0.66207  Biso   1.000  N
  H171     1.0000 0.95423  0.88190  0.60692  Biso   1.000  H
  H172     1.0000 0.93084  0.94833  0.59252  Biso   1.000  H
  C175     1.0000 0.93789  0.04625  0.70032  Biso   1.000  C
  N118     1.0000 0.90104  0.69418  0.91980  Biso   1.000  N
  H173     1.0000 0.96605  0.61863  0.88969  Biso   1.000  H
  H174     1.0000 0.93813  0.61575  0.94868  Biso   1.000  H
  C176     1.0000 0.94385  0.73928  0.03064  Biso   1.000  C
  C177     1.0000 0.84350  0.90064  0.67044  Biso   1.000  C
  C178     1.0000 0.84993  0.99354  0.67985  Biso   1.000  C
  N119     1.0000 0.88836  0.01462  0.71626  Biso   1.000  N
  H175     1.0000 0.93981  0.07153  0.72920  Biso   1.000  H
  H176     1.0000 0.91758  0.07122  0.67159  Biso   1.000  H
  C179     1.0000 0.86003  0.70621  0.87813  Biso   1.000  C
  C180     1.0000 0.86065  0.72629  0.96508  Biso   1.000  C
  N120     1.0000 0.89834  0.76124  0.98882  Biso   1.000  N
  H177     1.0000 0.92020  0.71629  0.05288  Biso   1.000  H
  H178     1.0000 0.94581  0.77217  0.05161  Biso   1.000  H
  N121     1.0000 0.78307  0.93045  0.70185  Biso   1.000  N
  O59      1.0000 0.85631  0.85217  0.65266  Biso   1.000  O
  C181     1.0000 0.78070  0.98887  0.71188  Biso   1.000  C
  H179     1.0000 0.83652  0.02022  0.65051  Biso   1.000  H
  C182     1.0000 0.85257  0.02139  0.76469  Biso   1.000  C
  N122     1.0000 0.79931  0.75333  0.89027  Biso   1.000  N
  O60      1.0000 0.87571  0.67934  0.83731  Biso   1.000  O
  C183     1.0000 0.79374  0.77055  0.94342  Biso   1.000  C
  H180     1.0000 0.84501  0.70093  0.99051  Biso   1.000  H
  C184     1.0000 0.86315  0.81870  0.98336  Biso   1.000  C
  C185     1.0000 0.72446  0.90814  0.71879  Biso   1.000  C
  N123     1.0000 0.79373  0.00119  0.76357  Biso   1.000  N
  H181     1.0000 0.73438  0.01732  0.70089  Biso   1.000  H
  O61      1.0000 0.87093  0.04134  0.80221  Biso   1.000  O
  C186     1.0000 0.73934  0.77244  0.85786  Biso   1.000  C
  N124     1.0000 0.80697  0.82489  0.95203  Biso   1.000  N
  H182     1.0000 0.74611  0.77004  0.96178  Biso   1.000  H
  O62      1.0000 0.87894  0.85771  0.00295  Biso   1.000  O
  N125     1.0000 0.72804  0.88825  0.77098  Biso   1.000  N
  H183     1.0000 0.67647  0.93852  0.71610  Biso   1.000  H
  H184     1.0000 0.72633  0.87583  0.69559  Biso   1.000  H
  C187     1.0000 0.73710  0.01219  0.80578  Biso   1.000  C
  N126     1.0000 0.73470  0.82653  0.83381  Biso   1.000  N
  H185     1.0000 0.74575  0.74274  0.83078  Biso   1.000  H
  H186     1.0000 0.69232  0.77665  0.87871  Biso   1.000  H
  C188     1.0000 0.75016  0.87959  0.94650  Biso   1.000  C
  C189     1.0000 0.74966  0.83103  0.78212  Biso   1.000  C
  C190     1.0000 0.69358  0.92455  0.81511  Biso   1.000  C
  N127     1.0000 0.73391  0.96081  0.83155  Biso   1.000  N
  H187     1.0000 0.68862  0.03180  0.79268  Biso   1.000  H
  H188     1.0000 0.74632  0.03861  0.83101  Biso   1.000  H
  C191     1.0000 0.69946  0.88127  0.85935  Biso   1.000  C
  N128     1.0000 0.74478  0.89809  0.89400  Biso   1.000  N
  H189     1.0000 0.76066  0.90921  0.96731  Biso   1.000  H
  H190     1.0000 0.70196  0.87651  0.96028  Biso   1.000  H
  O63      1.0000 0.77657  0.79112  0.75128  Biso   1.000  O
  H191     1.0000 0.64105  0.94714  0.81050  Biso   1.000  H
  C192     1.0000 0.76180  0.94572  0.87802  Biso   1.000  C
  H192     1.0000 0.64985  0.88391  0.87648  Biso   1.000  H
  O64      1.0000 0.79513  0.97102  0.90133  Biso   1.000  O
  Ne1      1.0000 0.08690  0.30396  0.67328  Biso   1.000  Ne
  He1      1.0000 0.14792  0.20596  0.73608  Biso   1.000  He
  He2      1.0000 0.07482  0.39785  0.59623  Biso   1.000  He
  Ar1      1.0000 0.08453  0.32030  0.65860  Biso   1.000  Ar
  Ne2      1.0000 0.92352  0.19152  0.18485  Biso   1.000  Ne
  He3      1.0000 0.86020  0.30016  0.26226  Biso   1.000  He
  He4      1.0000 0.93281  0.08108  0.09885  Biso   1.000  He
  Ar2      1.0000 0.92233  0.17299  0.16729  Biso   1.000  Ar
  Ne3      1.0000 0.91315  0.69607  0.32672  Biso   1.000  Ne
  He5      1.0000 0.92608  0.57761  0.41130  Biso   1.000  He
  He6      1.0000 0.85222  0.79638  0.26204  Biso   1.000  He
  Ar3      1.0000 0.91546  0.67976  0.34173  Biso   1.000  Ar
  Ne4      1.0000 0.07652  0.80851  0.81515  Biso   1.000  Ne
  He7      1.0000 0.06716  0.92111  0.90284  Biso   1.000  He
  He8      1.0000 0.13984  0.69881  0.73688  Biso   1.000  He
  Ar4      1.0000 0.07746  0.82759  0.83278  Biso   1.000  Ar
