data_image0
_cell_length_a       14.016
_cell_length_b       14.276
_cell_length_c       15.21
_cell_angle_alpha    75.33
_cell_angle_beta     78.67
_cell_angle_gamma    68.44

_symmetry_space_group_name_H-M    "P 1"
_symmetry_int_tables_number       1

loop_
  _symmetry_equiv_pos_as_xyz
  'x, y, z'

loop_
  _atom_site_label
  _atom_site_occupancy
  _atom_site_fract_x
  _atom_site_fract_y
  _atom_site_fract_z
  _atom_site_thermal_displace_type
  _atom_site_B_iso_or_equiv
  _atom_site_type_symbol
  C1       1.0000 0.17275  0.29438  0.80764  Biso   1.000  C
  N1       1.0000 0.24824  0.22947  0.76064  Biso   1.000  N
  N2       1.0000 0.24828  0.22955  0.76064  Biso   1.000  N
  N3       1.0000 0.20709  0.29455  0.88556  Biso   1.000  N
  N4       1.0000 0.20705  0.29448  0.88556  Biso   1.000  N
  O1       1.0000 0.08789  0.34530  0.78363  Biso   1.000  O
  O2       1.0000 0.08786  0.34536  0.78369  Biso   1.000  O
  C2       1.0000 0.24795  0.23164  0.66513  Biso   1.000  C
  C3       1.0000 0.24794  0.23162  0.66520  Biso   1.000  C
  C4       1.0000 0.17280  0.29446  0.80764  Biso   1.000  C
  C5       1.0000 0.34283  0.18763  0.80237  Biso   1.000  C
  C6       1.0000 0.17272  0.29444  0.80771  Biso   1.000  C
  C7       1.0000 0.31538  0.23948  0.88495  Biso   1.000  C
  C8       1.0000 0.31542  0.23956  0.88495  Biso   1.000  C
  C9       1.0000 0.15471  0.37104  0.93906  Biso   1.000  C
  H1       1.0000 0.40038  0.20275  0.76057  Biso   1.000  H
  H2       1.0000 0.40033  0.20267  0.76057  Biso   1.000  H
  N5       1.0000 0.36804  0.08047  0.84315  Biso   1.000  N
  N6       1.0000 0.36814  0.08039  0.84315  Biso   1.000  N
  H3       1.0000 0.18804  0.28738  0.64249  Biso   1.000  H
  H4       1.0000 0.18801  0.28745  0.64249  Biso   1.000  H
  N7       1.0000 0.24572  0.13630  0.65124  Biso   1.000  N
  H5       1.0000 0.30931  0.24459  0.63038  Biso   1.000  H
  H6       1.0000 0.18811  0.28738  0.64249  Biso   1.000  H
  N8       1.0000 0.24561  0.13636  0.65131  Biso   1.000  N
  H7       1.0000 0.30921  0.24466  0.63038  Biso   1.000  H
  H8       1.0000 0.35462  0.28553  0.87906  Biso   1.000  H
  N9       1.0000 0.34164  0.15432  0.96048  Biso   1.000  N
  H9       1.0000 0.09283  0.41723  0.91197  Biso   1.000  H
  H10      1.0000 0.09290  0.41723  0.91197  Biso   1.000  H
  H11      1.0000 0.19892  0.41095  0.93605  Biso   1.000  H
  N10      1.0000 0.12640  0.33303  0.03252  Biso   1.000  N
  N11      1.0000 0.12633  0.33303  0.03252  Biso   1.000  N
  N12      1.0000 0.12643  0.33295  0.03252  Biso   1.000  N
  C10      1.0000 0.42410  0.00331  0.79026  Biso   1.000  C
  C11      1.0000 0.42403  0.00331  0.79026  Biso   1.000  C
  C12      1.0000 0.37414  0.06228  0.93448  Biso   1.000  C
  C13      1.0000 0.37418  0.06236  0.93448  Biso   1.000  C
  C14      1.0000 0.37421  0.06228  0.93448  Biso   1.000  C
  C15      1.0000 0.16824  0.13120  0.61430  Biso   1.000  C
  C16      1.0000 0.16832  0.13122  0.61423  Biso   1.000  C
  C17      1.0000 0.33510  0.04550  0.64974  Biso   1.000  C
  C18      1.0000 0.33499  0.04556  0.64981  Biso   1.000  C
  C19      1.0000 0.35900  0.16512  0.04716  Biso   1.000  C
  C20      1.0000 0.35893  0.16513  0.04709  Biso   1.000  C
  C21      1.0000 0.35903  0.16504  0.04716  Biso   1.000  C
  C22      1.0000 0.19770  0.30069  0.10155  Biso   1.000  C
  C23      1.0000 0.02458  0.36265  0.07056  Biso   1.000  C
  C24      1.0000 0.02461  0.36258  0.07056  Biso   1.000  C
  N13      1.0000 0.35901  0.98380  0.73963  Biso   1.000  N
  N14      1.0000 0.35910  0.98371  0.73970  Biso   1.000  N
  H12      1.0000 0.45831  0.94013  0.83076  Biso   1.000  H
  N15      1.0000 0.35903  0.98371  0.73970  Biso   1.000  N
  H13      1.0000 0.47701  0.02491  0.74778  Biso   1.000  H
  O3       1.0000 0.40316  0.97962  0.98429  Biso   1.000  O
  O4       1.0000 0.08705  0.20126  0.59904  Biso   1.000  O
  O5       1.0000 0.08702  0.20132  0.59911  Biso   1.000  O
  O6       1.0000 0.08710  0.20134  0.59904  Biso   1.000  O
  N16      1.0000 0.19622  0.03765  0.59542  Biso   1.000  N
  C25      1.0000 0.30323  0.97865  0.60670  Biso   1.000  C
  C26      1.0000 0.30320  0.97859  0.60664  Biso   1.000  C
  H14      1.0000 0.39511  0.06170  0.61389  Biso   1.000  H
  H15      1.0000 0.39518  0.06170  0.61389  Biso   1.000  H
  N17      1.0000 0.26619  0.19599  0.10832  Biso   1.000  N
  H16      1.0000 0.40500  0.10007  0.07644  Biso   1.000  H
  H17      1.0000 0.39339  0.21564  0.03608  Biso   1.000  H
  H18      1.0000 0.40497  0.10014  0.07644  Biso   1.000  H
  H19      1.0000 0.39336  0.21558  0.03601  Biso   1.000  H
  H20      1.0000 0.39342  0.21557  0.03608  Biso   1.000  H
  O7       1.0000 0.95027  0.40279  0.02937  Biso   1.000  O
  O8       1.0000 0.95030  0.40272  0.02937  Biso   1.000  O
  N18      1.0000 0.02402  0.33884  0.16483  Biso   1.000  N
  C27      1.0000 0.12570  0.29475  0.19336  Biso   1.000  C
  C28      1.0000 0.12566  0.29469  0.19329  Biso   1.000  C
  H21      1.0000 0.23455  0.34903  0.09519  Biso   1.000  H
  C29      1.0000 0.12573  0.29467  0.19336  Biso   1.000  C
  H22      1.0000 0.23464  0.34894  0.09526  Biso   1.000  H
  C30      1.0000 0.35867  0.88511  0.74716  Biso   1.000  C
  C31      1.0000 0.13629  0.00810  0.54828  Biso   1.000  C
  C32      1.0000 0.13619  0.00817  0.54828  Biso   1.000  C
  N19      1.0000 0.31870  0.88359  0.67293  Biso   1.000  N
  N20      1.0000 0.31879  0.88350  0.67300  Biso   1.000  N
  N21      1.0000 0.31873  0.88352  0.67293  Biso   1.000  N
  H23      1.0000 0.34450  0.96767  0.54787  Biso   1.000  H
  H24      1.0000 0.34453  0.96759  0.54787  Biso   1.000  H
  C33      1.0000 0.24309  0.13288  0.18495  Biso   1.000  C
  C34      1.0000 0.24313  0.13296  0.18495  Biso   1.000  C
  C35      1.0000 0.24316  0.13288  0.18495  Biso   1.000  C
  C36      1.0000 0.93215  0.37383  0.22545  Biso   1.000  C
  C37      1.0000 0.93222  0.37383  0.22545  Biso   1.000  C
  C38      1.0000 0.93225  0.37375  0.22545  Biso   1.000  C
  N22      1.0000 0.15474  0.18791  0.23133  Biso   1.000  N
  N23      1.0000 0.15476  0.18784  0.23133  Biso   1.000  N
  H25      1.0000 0.13561  0.33310  0.23380  Biso   1.000  H
  H26      1.0000 0.13560  0.33309  0.23386  Biso   1.000  H
  O9       1.0000 0.39130  0.81389  0.80784  Biso   1.000  O
  O10      1.0000 0.39139  0.81379  0.80791  Biso   1.000  O
  O11      1.0000 0.39132  0.81381  0.80784  Biso   1.000  O
  O12      1.0000 0.39136  0.81387  0.80791  Biso   1.000  O
  H27      1.0000 0.17859  0.98450  0.49437  Biso   1.000  H
  H28      1.0000 0.17862  0.98442  0.49437  Biso   1.000  H
  N24      1.0000 0.09651  0.92989  0.60109  Biso   1.000  N
  N25      1.0000 0.09655  0.92996  0.60109  Biso   1.000  N
  H29      1.0000 0.07872  0.06844  0.52762  Biso   1.000  H
  H30      1.0000 0.07883  0.06838  0.52755  Biso   1.000  H
  C39      1.0000 0.32486  0.78943  0.65138  Biso   1.000  C
  O13      1.0000 0.29215  0.04265  0.20794  Biso   1.000  O
  O14      1.0000 0.29208  0.04265  0.20794  Biso   1.000  O
  H31      1.0000 0.94673  0.40650  0.26739  Biso   1.000  H
  N26      1.0000 0.89235  0.29681  0.27662  Biso   1.000  N
  H32      1.0000 0.94672  0.40649  0.26746  Biso   1.000  H
  N27      1.0000 0.89238  0.29674  0.27662  Biso   1.000  N
  H33      1.0000 0.87945  0.42555  0.18974  Biso   1.000  H
  C40      1.0000 0.12599  0.14890  0.32588  Biso   1.000  C
  C41      1.0000 0.12603  0.14896  0.32595  Biso   1.000  C
  C42      1.0000 0.12606  0.14889  0.32595  Biso   1.000  C
  C43      1.0000 0.99143  0.95079  0.62559  Biso   1.000  C
  C44      1.0000 0.15104  0.82247  0.60116  Biso   1.000  C
  C45      1.0000 0.15107  0.82240  0.60116  Biso   1.000  C
  C46      1.0000 0.15100  0.82240  0.60116  Biso   1.000  C
  N28      1.0000 0.22793  0.77397  0.66465  Biso   1.000  N
  N29      1.0000 0.22796  0.77389  0.66465  Biso   1.000  N
  H34      1.0000 0.37180  0.73252  0.68908  Biso   1.000  H
  H35      1.0000 0.35371  0.78889  0.58796  Biso   1.000  H
  H36      1.0000 0.37173  0.73252  0.68908  Biso   1.000  H
  H37      1.0000 0.35375  0.78896  0.58796  Biso   1.000  H
  C47      1.0000 0.93119  0.22779  0.35852  Biso   1.000  C
  C48      1.0000 0.93123  0.22786  0.35852  Biso   1.000  C
  C49      1.0000 0.79805  0.29496  0.26670  Biso   1.000  C
  C50      1.0000 0.79814  0.29487  0.26677  Biso   1.000  C
  C51      1.0000 0.93126  0.22779  0.35852  Biso   1.000  C
  N30      1.0000 0.02373  0.14269  0.34394  Biso   1.000  N
  H38      1.0000 0.17503  0.08102  0.34456  Biso   1.000  H
  H39      1.0000 0.13037  0.19314  0.36290  Biso   1.000  H
  H40      1.0000 0.17497  0.08103  0.34449  Biso   1.000  H
  H41      1.0000 0.13046  0.19305  0.36296  Biso   1.000  H
  H42      1.0000 0.17506  0.08094  0.34456  Biso   1.000  H
  N31      1.0000 0.97639  0.85729  0.65610  Biso   1.000  N
  N32      1.0000 0.97633  0.85731  0.65603  Biso   1.000  N
  N33      1.0000 0.97629  0.85737  0.65610  Biso   1.000  N
  O15      1.0000 0.92670  0.03429  0.61827  Biso   1.000  O
  O16      1.0000 0.92660  0.03437  0.61827  Biso   1.000  O
  H43      1.0000 0.17990  0.81037  0.53925  Biso   1.000  H
  H44      1.0000 0.17999  0.81028  0.53932  Biso   1.000  H
  C52      1.0000 0.06887  0.77221  0.64146  Biso   1.000  C
  H45      1.0000 0.17993  0.81030  0.53925  Biso   1.000  H
  C53      1.0000 0.06879  0.77221  0.64146  Biso   1.000  C
  H46      1.0000 0.17989  0.81036  0.53932  Biso   1.000  H
  C54      1.0000 0.20190  0.70511  0.73327  Biso   1.000  C
  N34      1.0000 0.77210  0.22610  0.33532  Biso   1.000  N
  N35      1.0000 0.77217  0.22610  0.33532  Biso   1.000  N
  O17      1.0000 0.74692  0.35243  0.20554  Biso   1.000  O
  H47      1.0000 0.93929  0.26510  0.40093  Biso   1.000  H
  C55      1.0000 0.84906  0.17760  0.39881  Biso   1.000  C
  H48      1.0000 0.93936  0.26510  0.40093  Biso   1.000  H
  C56      1.0000 0.00863  0.04921  0.37439  Biso   1.000  C
  C57      1.0000 0.00862  0.04919  0.37446  Biso   1.000  C
  C58      1.0000 0.87404  0.85117  0.67409  Biso   1.000  C
  C59      1.0000 0.87406  0.85110  0.67409  Biso   1.000  C
  C60      1.0000 0.87399  0.85110  0.67409  Biso   1.000  C
  N36      1.0000 0.10778  0.70318  0.72335  Biso   1.000  N
  H49      1.0000 0.06070  0.73490  0.59904  Biso   1.000  H
  H50      1.0000 0.06073  0.73496  0.59911  Biso   1.000  H
  O18      1.0000 0.25313  0.64755  0.79450  Biso   1.000  O
  O19      1.0000 0.25317  0.64749  0.79444  Biso   1.000  O
  C61      1.0000 0.67524  0.21064  0.34860  Biso   1.000  C
  C62      1.0000 0.67523  0.21063  0.34867  Biso   1.000  C
  C63      1.0000 0.67517  0.21064  0.34860  Biso   1.000  C
  C64      1.0000 0.67526  0.21055  0.34867  Biso   1.000  C
  N37      1.0000 0.90355  0.07011  0.39888  Biso   1.000  N
  N38      1.0000 0.90354  0.07009  0.39895  Biso   1.000  N
  H51      1.0000 0.82013  0.18970  0.46073  Biso   1.000  H
  O20      1.0000 0.07336  0.96571  0.38171  Biso   1.000  O
  O21      1.0000 0.07340  0.96578  0.38171  Biso   1.000  O
  N39      1.0000 0.84536  0.81216  0.76864  Biso   1.000  N
  H52      1.0000 0.86959  0.80693  0.63708  Biso   1.000  H
  H53      1.0000 0.82499  0.91904  0.65548  Biso   1.000  H
  N40      1.0000 0.84535  0.81214  0.76871  Biso   1.000  N
  H54      1.0000 0.86966  0.80693  0.63708  Biso   1.000  H
  H55      1.0000 0.82506  0.91904  0.65548  Biso   1.000  H
  N41      1.0000 0.84532  0.81208  0.76864  Biso   1.000  N
  C65      1.0000 0.06787  0.62623  0.77459  Biso   1.000  C
  C66      1.0000 0.06780  0.62624  0.77453  Biso   1.000  C
  N42      1.0000 0.68133  0.11648  0.32705  Biso   1.000  N
  H56      1.0000 0.64635  0.21111  0.41202  Biso   1.000  H
  N43      1.0000 0.68130  0.11656  0.32705  Biso   1.000  N
  H57      1.0000 0.64627  0.21111  0.41202  Biso   1.000  H
  H58      1.0000 0.62830  0.26755  0.31090  Biso   1.000  H
  H59      1.0000 0.62832  0.26746  0.31097  Biso   1.000  H
  C67      1.0000 0.86384  0.99190  0.45170  Biso   1.000  C
  C68      1.0000 0.86380  0.99196  0.45177  Biso   1.000  C
  C69      1.0000 0.87429  0.70539  0.80668  Biso   1.000  C
  C70      1.0000 0.87439  0.70531  0.80668  Biso   1.000  C
  C71      1.0000 0.87432  0.70531  0.80668  Biso   1.000  C
  C72      1.0000 0.75697  0.86711  0.81503  Biso   1.000  C
  C73      1.0000 0.75693  0.86717  0.81510  Biso   1.000  C
  N44      1.0000 0.97610  0.66114  0.83521  Biso   1.000  N
  N45      1.0000 0.97602  0.66114  0.83521  Biso   1.000  N
  H60      1.0000 0.05330  0.59357  0.73259  Biso   1.000  H
  H61      1.0000 0.12067  0.57443  0.81031  Biso   1.000  H
  H62      1.0000 0.05340  0.59349  0.73259  Biso   1.000  H
  H63      1.0000 0.12060  0.57444  0.81024  Biso   1.000  H
  H64      1.0000 0.05333  0.59349  0.73259  Biso   1.000  H
  H65      1.0000 0.05337  0.59357  0.73259  Biso   1.000  H
  C74      1.0000 0.64139  0.11488  0.25282  Biso   1.000  C
  C75      1.0000 0.69679  0.02141  0.39334  Biso   1.000  C
  C76      1.0000 0.69686  0.02141  0.39334  Biso   1.000  C
  C77      1.0000 0.64146  0.11488  0.25282  Biso   1.000  C
  N46      1.0000 0.80380  0.96240  0.40463  Biso   1.000  N
  N47      1.0000 0.80384  0.96248  0.40463  Biso   1.000  N
  H66      1.0000 0.92137  0.93162  0.47243  Biso   1.000  H
  H67      1.0000 0.82144  0.01558  0.50561  Biso   1.000  H
  H68      1.0000 0.82141  0.01565  0.50561  Biso   1.000  H
  H69      1.0000 0.86451  0.66689  0.76618  Biso   1.000  H
  C78      1.0000 0.80242  0.69930  0.89849  Biso   1.000  C
  H70      1.0000 0.86444  0.66689  0.76618  Biso   1.000  H
  C79      1.0000 0.80235  0.69931  0.89843  Biso   1.000  C
  C80      1.0000 0.80232  0.69937  0.89849  Biso   1.000  C
  N48      1.0000 0.73383  0.80408  0.89165  Biso   1.000  N
  N49      1.0000 0.73386  0.80401  0.89165  Biso   1.000  N
  O22      1.0000 0.70795  0.95742  0.79204  Biso   1.000  O
  C81      1.0000 0.97544  0.63740  0.92949  Biso   1.000  C
  C82      1.0000 0.97548  0.63748  0.92949  Biso   1.000  C
  O23      1.0000 0.60873  0.18619  0.19213  Biso   1.000  O
  N50      1.0000 0.64099  0.01635  0.26034  Biso   1.000  N
  O24      1.0000 0.60870  0.18626  0.19213  Biso   1.000  O
  O25      1.0000 0.60866  0.18619  0.19213  Biso   1.000  O
  C83      1.0000 0.66495  0.95450  0.35024  Biso   1.000  C
  C84      1.0000 0.66500  0.95457  0.35024  Biso   1.000  C
  H71      1.0000 0.65553  0.03240  0.45211  Biso   1.000  H
  C85      1.0000 0.83178  0.86885  0.38575  Biso   1.000  C
  C86      1.0000 0.83185  0.86885  0.38575  Biso   1.000  C
  N51      1.0000 0.87363  0.66704  0.96746  Biso   1.000  N
  N52      1.0000 0.87370  0.66704  0.96746  Biso   1.000  N
  H72      1.0000 0.76548  0.65104  0.90479  Biso   1.000  H
  C87      1.0000 0.64109  0.83494  0.95288  Biso   1.000  C
  O26      1.0000 0.04975  0.59726  0.97067  Biso   1.000  O
  O27      1.0000 0.04978  0.59719  0.97067  Biso   1.000  O
  C88      1.0000 0.57603  0.99668  0.20971  Biso   1.000  C
  C89      1.0000 0.57600  0.99676  0.20971  Biso   1.000  C
  N53      1.0000 0.75438  0.86378  0.34873  Biso   1.000  N
  H73      1.0000 0.60494  0.93829  0.38609  Biso   1.000  H
  H74      1.0000 0.60491  0.93835  0.38616  Biso   1.000  H
  O28      1.0000 0.91300  0.79873  0.40093  Biso   1.000  O
  C90      1.0000 0.84525  0.62903  0.06091  Biso   1.000  C
  C91      1.0000 0.84532  0.62903  0.06091  Biso   1.000  C
  H75      1.0000 0.60660  0.78449  0.96397  Biso   1.000  H
  H76      1.0000 0.59503  0.90001  0.92353  Biso   1.000  H
  H77      1.0000 0.60663  0.78441  0.96397  Biso   1.000  H
  H78      1.0000 0.59506  0.89993  0.92353  Biso   1.000  H
  N54      1.0000 0.65849  0.84567  0.03950  Biso   1.000  N
  N55      1.0000 0.65846  0.84575  0.03950  Biso   1.000  N
  H79      1.0000 0.52311  0.97508  0.25220  Biso   1.000  H
  H80      1.0000 0.52309  0.97516  0.25220  Biso   1.000  H
  N56      1.0000 0.63196  0.91968  0.15683  Biso   1.000  N
  H81      1.0000 0.54175  0.05987  0.16921  Biso   1.000  H
  H82      1.0000 0.54165  0.05994  0.16921  Biso   1.000  H
  C92      1.0000 0.75210  0.76836  0.33485  Biso   1.000  C
  C93      1.0000 0.75208  0.76843  0.33485  Biso   1.000  C
  C94      1.0000 0.75215  0.76843  0.33485  Biso   1.000  C
  H83      1.0000 0.80118  0.58912  0.06392  Biso   1.000  H
  N57      1.0000 0.79294  0.70552  0.11441  Biso   1.000  N
  H84      1.0000 0.90712  0.58283  0.08807  Biso   1.000  H
  H85      1.0000 0.90719  0.58283  0.08807  Biso   1.000  H
  C95      1.0000 0.68468  0.76052  0.11503  Biso   1.000  C
  C96      1.0000 0.62585  0.93771  0.06550  Biso   1.000  C
  C97      1.0000 0.62591  0.93770  0.06556  Biso   1.000  C
  C98      1.0000 0.65730  0.81237  0.19760  Biso   1.000  C
  C99      1.0000 0.65727  0.81245  0.19760  Biso   1.000  C
  C100     1.0000 0.65733  0.81243  0.19767  Biso   1.000  C
  N58      1.0000 0.75182  0.77053  0.23934  Biso   1.000  N
  H86      1.0000 0.69082  0.75541  0.36960  Biso   1.000  H
  H87      1.0000 0.81202  0.71262  0.35749  Biso   1.000  H
  N59      1.0000 0.75175  0.77053  0.23934  Biso   1.000  N
  H88      1.0000 0.69074  0.75539  0.36967  Biso   1.000  H
  H89      1.0000 0.81201  0.71260  0.35756  Biso   1.000  H
  H90      1.0000 0.69079  0.75547  0.36967  Biso   1.000  H
  C101     1.0000 0.82730  0.70562  0.19234  Biso   1.000  C
  C102     1.0000 0.82723  0.70562  0.19234  Biso   1.000  C
  H91      1.0000 0.64544  0.71447  0.12091  Biso   1.000  H
  H92      1.0000 0.64534  0.71454  0.12091  Biso   1.000  H
  H93      1.0000 0.64541  0.71454  0.12091  Biso   1.000  H
  O29      1.0000 0.59693  0.02043  0.01576  Biso   1.000  O
  O30      1.0000 0.59687  0.02045  0.01569  Biso   1.000  O
  O31      1.0000 0.59689  0.02036  0.01576  Biso   1.000  O
  H94      1.0000 0.59965  0.79732  0.23941  Biso   1.000  H
  O32      1.0000 0.91223  0.65469  0.21635  Biso   1.000  O
  O33      1.0000 0.91216  0.65469  0.21635  Biso   1.000  O
  O34      1.0000 0.91221  0.65477  0.21635  Biso   1.000  O
  Ne1      1.0000 0.00140  0.99969  0.99477  Biso   1.000  Ne
  He1      1.0000 0.18066  0.78782  0.09454  Biso   1.000  He
  He2      1.0000 0.83346  0.19622  0.91316  Biso   1.000  He
  Ar1      1.0000 0.00051  0.99953  0.99492  Biso   1.000  Ar
