data_image0
_cell_length_a       14.016
_cell_length_b       14.276
_cell_length_c       15.21
_cell_angle_alpha    75.33
_cell_angle_beta     78.67
_cell_angle_gamma    68.44

_symmetry_space_group_name_H-M    "P 1"
_symmetry_int_tables_number       1

loop_
  _symmetry_equiv_pos_as_xyz
  'x, y, z'

loop_
  _atom_site_label
  _atom_site_occupancy
  _atom_site_fract_x
  _atom_site_fract_y
  _atom_site_fract_z
  _atom_site_thermal_displace_type
  _atom_site_B_iso_or_equiv
  _atom_site_type_symbol
  N1       1.0000 0.24827  0.22953  0.76071  Biso   1.000  N
  C1       1.0000 0.24794  0.23162  0.66520  Biso   1.000  C
  C2       1.0000 0.17279  0.29444  0.80771  Biso   1.000  C
  C3       1.0000 0.34276  0.18763  0.80237  Biso   1.000  C
  N2       1.0000 0.24564  0.13628  0.65131  Biso   1.000  N
  H1       1.0000 0.30923  0.24459  0.63038  Biso   1.000  H
  H2       1.0000 0.18801  0.28745  0.64249  Biso   1.000  H
  N3       1.0000 0.20709  0.29455  0.88556  Biso   1.000  N
  O1       1.0000 0.08789  0.34529  0.78369  Biso   1.000  O
  N4       1.0000 0.36804  0.08047  0.84315  Biso   1.000  N
  C4       1.0000 0.31535  0.23956  0.88495  Biso   1.000  C
  H3       1.0000 0.40038  0.20275  0.76057  Biso   1.000  H
  C5       1.0000 0.16824  0.13120  0.61430  Biso   1.000  C
  C6       1.0000 0.33509  0.04548  0.64981  Biso   1.000  C
  C7       1.0000 0.15478  0.37104  0.93906  Biso   1.000  C
  C8       1.0000 0.42410  0.00331  0.79026  Biso   1.000  C
  C9       1.0000 0.37418  0.06236  0.93448  Biso   1.000  C
  N5       1.0000 0.34156  0.15432  0.96048  Biso   1.000  N
  H4       1.0000 0.35469  0.28553  0.87906  Biso   1.000  H
  O2       1.0000 0.08702  0.20132  0.59911  Biso   1.000  O
  N6       1.0000 0.19625  0.03758  0.59542  Biso   1.000  N
  C10      1.0000 0.30323  0.97865  0.60670  Biso   1.000  C
  H5       1.0000 0.39518  0.06170  0.61389  Biso   1.000  H
  N7       1.0000 0.35903  0.98371  0.73970  Biso   1.000  N
  H6       1.0000 0.09290  0.41723  0.91197  Biso   1.000  H
  H7       1.0000 0.19885  0.41095  0.93605  Biso   1.000  H
  N8       1.0000 0.12640  0.33303  0.03252  Biso   1.000  N
  H8       1.0000 0.47694  0.02491  0.74778  Biso   1.000  H
  H9       1.0000 0.45838  0.94013  0.83076  Biso   1.000  H
  O3       1.0000 0.40316  0.97962  0.98429  Biso   1.000  O
  C11      1.0000 0.35901  0.16513  0.04709  Biso   1.000  C
  C12      1.0000 0.13629  0.00810  0.54828  Biso   1.000  C
  N9       1.0000 0.31879  0.88350  0.67300  Biso   1.000  N
  H10      1.0000 0.34450  0.96767  0.54787  Biso   1.000  H
  C13      1.0000 0.35867  0.88511  0.74716  Biso   1.000  C
  C14      1.0000 0.02462  0.36259  0.07049  Biso   1.000  C
  C15      1.0000 0.19770  0.30069  0.10155  Biso   1.000  C
  N10      1.0000 0.26619  0.19599  0.10832  Biso   1.000  N
  H11      1.0000 0.39343  0.21558  0.03601  Biso   1.000  H
  H12      1.0000 0.40500  0.10007  0.07644  Biso   1.000  H
  H13      1.0000 0.07872  0.06844  0.52762  Biso   1.000  H
  N11      1.0000 0.09655  0.92996  0.60109  Biso   1.000  N
  H14      1.0000 0.17862  0.98442  0.49437  Biso   1.000  H
  C16      1.0000 0.32486  0.78943  0.65138  Biso   1.000  C
  O4       1.0000 0.39136  0.81387  0.80791  Biso   1.000  O
  O5       1.0000 0.95028  0.40281  0.02930  Biso   1.000  O
  N12      1.0000 0.02400  0.33892  0.16483  Biso   1.000  N
  C17      1.0000 0.12574  0.29469  0.19329  Biso   1.000  C
  H15      1.0000 0.23462  0.34903  0.09519  Biso   1.000  H
  C18      1.0000 0.24309  0.13288  0.18495  Biso   1.000  C
  C19      1.0000 0.99140  0.95086  0.62559  Biso   1.000  C
  C20      1.0000 0.15104  0.82247  0.60116  Biso   1.000  C
  N13      1.0000 0.22793  0.77397  0.66465  Biso   1.000  N
  H16      1.0000 0.35375  0.78896  0.58796  Biso   1.000  H
  H17      1.0000 0.37173  0.73252  0.68908  Biso   1.000  H
  C21      1.0000 0.93215  0.37383  0.22545  Biso   1.000  C
  N14      1.0000 0.15467  0.18791  0.23133  Biso   1.000  N
  H18      1.0000 0.13561  0.33310  0.23380  Biso   1.000  H
  O6       1.0000 0.29211  0.04257  0.20794  Biso   1.000  O
  N15      1.0000 0.97629  0.85737  0.65610  Biso   1.000  N
  O7       1.0000 0.92670  0.03429  0.61827  Biso   1.000  O
  H19      1.0000 0.17989  0.81036  0.53932  Biso   1.000  H
  C22      1.0000 0.06887  0.77221  0.64146  Biso   1.000  C
  C23      1.0000 0.20197  0.70511  0.73327  Biso   1.000  C
  N16      1.0000 0.89228  0.29681  0.27662  Biso   1.000  N
  H20      1.0000 0.87935  0.42563  0.18974  Biso   1.000  H
  H21      1.0000 0.94673  0.40650  0.26739  Biso   1.000  H
  C24      1.0000 0.12599  0.14890  0.32588  Biso   1.000  C
  C25      1.0000 0.87404  0.85117  0.67409  Biso   1.000  C
  N17      1.0000 0.10775  0.70326  0.72335  Biso   1.000  N
  H22      1.0000 0.06073  0.73496  0.59911  Biso   1.000  H
  O8       1.0000 0.25313  0.64755  0.79450  Biso   1.000  O
  C26      1.0000 0.79808  0.29488  0.26670  Biso   1.000  C
  C27      1.0000 0.93119  0.22779  0.35852  Biso   1.000  C
  N18      1.0000 0.02373  0.14269  0.34394  Biso   1.000  N
  H23      1.0000 0.13044  0.19314  0.36290  Biso   1.000  H
  H24      1.0000 0.17504  0.08103  0.34449  Biso   1.000  H
  N19      1.0000 0.84535  0.81214  0.76871  Biso   1.000  N
  H25      1.0000 0.86966  0.80693  0.63708  Biso   1.000  H
  H26      1.0000 0.82506  0.91904  0.65548  Biso   1.000  H
  C28      1.0000 0.06787  0.62623  0.77459  Biso   1.000  C
  N20      1.0000 0.77210  0.22610  0.33532  Biso   1.000  N
  O9       1.0000 0.74689  0.35251  0.20554  Biso   1.000  O
  C29      1.0000 0.84899  0.17760  0.39881  Biso   1.000  C
  H27      1.0000 0.93929  0.26510  0.40093  Biso   1.000  H
  C30      1.0000 0.00863  0.04921  0.37439  Biso   1.000  C
  C31      1.0000 0.87439  0.70531  0.80668  Biso   1.000  C
  C32      1.0000 0.75693  0.86717  0.81510  Biso   1.000  C
  N21      1.0000 0.97602  0.66114  0.83521  Biso   1.000  N
  H28      1.0000 0.12067  0.57443  0.81031  Biso   1.000  H
  H29      1.0000 0.05337  0.59357  0.73259  Biso   1.000  H
  C33      1.0000 0.67524  0.21064  0.34860  Biso   1.000  C
  N22      1.0000 0.90355  0.07011  0.39888  Biso   1.000  N
  H30      1.0000 0.82013  0.18970  0.46073  Biso   1.000  H
  O10      1.0000 0.07343  0.96571  0.38171  Biso   1.000  O
  H31      1.0000 0.86442  0.66697  0.76618  Biso   1.000  H
  C34      1.0000 0.80232  0.69937  0.89849  Biso   1.000  C
  N23      1.0000 0.73383  0.80408  0.89165  Biso   1.000  N
  O11      1.0000 0.70794  0.95741  0.79211  Biso   1.000  O
  C35      1.0000 0.97548  0.63748  0.92949  Biso   1.000  C
  N24      1.0000 0.68133  0.11648  0.32705  Biso   1.000  N
  H32      1.0000 0.64635  0.21111  0.41202  Biso   1.000  H
  H33      1.0000 0.62833  0.26748  0.31090  Biso   1.000  H
  C36      1.0000 0.86384  0.99190  0.45170  Biso   1.000  C
  N25      1.0000 0.87370  0.66704  0.96746  Biso   1.000  N
  H34      1.0000 0.76548  0.65104  0.90479  Biso   1.000  H
  C37      1.0000 0.64109  0.83494  0.95288  Biso   1.000  C
  O12      1.0000 0.04975  0.59726  0.97067  Biso   1.000  O
  C38      1.0000 0.64139  0.11488  0.25282  Biso   1.000  C
  C39      1.0000 0.69679  0.02141  0.39334  Biso   1.000  C
  N26      1.0000 0.80380  0.96240  0.40463  Biso   1.000  N
  H35      1.0000 0.92130  0.93162  0.47243  Biso   1.000  H
  H36      1.0000 0.82144  0.01558  0.50561  Biso   1.000  H
  C40      1.0000 0.84525  0.62903  0.06091  Biso   1.000  C
  H37      1.0000 0.60670  0.78441  0.96397  Biso   1.000  H
  H38      1.0000 0.59505  0.89992  0.92360  Biso   1.000  H
  N27      1.0000 0.65846  0.84575  0.03950  Biso   1.000  N
  N28      1.0000 0.64102  0.01627  0.26034  Biso   1.000  N
  O13      1.0000 0.60873  0.18619  0.19213  Biso   1.000  O
  C41      1.0000 0.66503  0.95450  0.35024  Biso   1.000  C
  H39      1.0000 0.65553  0.03240  0.45211  Biso   1.000  H
  C42      1.0000 0.83181  0.86878  0.38575  Biso   1.000  C
  N29      1.0000 0.79301  0.70552  0.11441  Biso   1.000  N
  H40      1.0000 0.90720  0.58284  0.08800  Biso   1.000  H
  H41      1.0000 0.80118  0.58912  0.06392  Biso   1.000  H
  C43      1.0000 0.68468  0.76052  0.11503  Biso   1.000  C
  C44      1.0000 0.62585  0.93771  0.06550  Biso   1.000  C
  C45      1.0000 0.57603  0.99668  0.20971  Biso   1.000  C
  N30      1.0000 0.75441  0.86370  0.34873  Biso   1.000  N
  H42      1.0000 0.60494  0.93829  0.38609  Biso   1.000  H
  O14      1.0000 0.91300  0.79873  0.40093  Biso   1.000  O
  C46      1.0000 0.82730  0.70562  0.19234  Biso   1.000  C
  H43      1.0000 0.64541  0.71454  0.12091  Biso   1.000  H
  C47      1.0000 0.65727  0.81245  0.19760  Biso   1.000  C
  N31      1.0000 0.63199  0.91960  0.15683  Biso   1.000  N
  O15      1.0000 0.59690  0.02037  0.01569  Biso   1.000  O
  H44      1.0000 0.52309  0.97516  0.25220  Biso   1.000  H
  H45      1.0000 0.54175  0.05987  0.16921  Biso   1.000  H
  C48      1.0000 0.75208  0.76843  0.33485  Biso   1.000  C
  N32      1.0000 0.75182  0.77053  0.23934  Biso   1.000  N
  O16      1.0000 0.91216  0.65469  0.21635  Biso   1.000  O
  H46      1.0000 0.59972  0.79732  0.23941  Biso   1.000  H
  H47      1.0000 0.69082  0.75541  0.36960  Biso   1.000  H
  H48      1.0000 0.81202  0.71262  0.35749  Biso   1.000  H
