data_image0
_cell_length_a       16.095
_cell_length_b       15.794
_cell_length_c       28.353
_cell_angle_alpha    90
_cell_angle_beta     102.37
_cell_angle_gamma    90

_symmetry_space_group_name_H-M    "P 1"
_symmetry_int_tables_number       1

loop_
  _symmetry_equiv_pos_as_xyz
  'x, y, z'

loop_
  _atom_site_label
  _atom_site_occupancy
  _atom_site_fract_x
  _atom_site_fract_y
  _atom_site_fract_z
  _atom_site_thermal_displace_type
  _atom_site_B_iso_or_equiv
  _atom_site_type_symbol
  O1       1.0000 0.59488  0.28036  0.46110  Biso   1.000  O
  C1       1.0000 0.59920  0.20318  0.46085  Biso   1.000  C
  N1       1.0000 0.54388  0.15012  0.43214  Biso   1.000  N
  N2       1.0000 0.66084  0.15544  0.48951  Biso   1.000  N
  C2       1.0000 0.46442  0.17899  0.40268  Biso   1.000  C
  C3       1.0000 0.56215  0.06161  0.44351  Biso   1.000  C
  C4       1.0000 0.64469  0.06578  0.48327  Biso   1.000  C
  C5       1.0000 0.72453  0.19121  0.52772  Biso   1.000  C
  N3       1.0000 0.46558  0.18228  0.35158  Biso   1.000  N
  H1       1.0000 0.45190  0.23509  0.41329  Biso   1.000  H
  H2       1.0000 0.41913  0.14138  0.40730  Biso   1.000  H
  N4       1.0000 0.58781  0.01456  0.40531  Biso   1.000  N
  H3       1.0000 0.51576  0.03362  0.45492  Biso   1.000  H
  N5       1.0000 0.70604  0.02127  0.46160  Biso   1.000  N
  H4       1.0000 0.63764  0.03881  0.51331  Biso   1.000  H
  N6       1.0000 0.80770  0.19571  0.51631  Biso   1.000  N
  H5       1.0000 0.72835  0.15721  0.55660  Biso   1.000  H
  H6       1.0000 0.70704  0.24782  0.53472  Biso   1.000  H
  C6       1.0000 0.46877  0.25649  0.32793  Biso   1.000  C
  C7       1.0000 0.44614  0.11080  0.31934  Biso   1.000  C
  C8       1.0000 0.52995  0.98582  0.36263  Biso   1.000  C
  C9       1.0000 0.67082  0.99012  0.41701  Biso   1.000  C
  C10      1.0000 0.78920  0.99607  0.48785  Biso   1.000  C
  C11      1.0000 0.86972  0.12777  0.52555  Biso   1.000  C
  C12      1.0000 0.84384  0.27137  0.50934  Biso   1.000  C
  N7       1.0000 0.45766  0.23990  0.27973  Biso   1.000  N
  O2       1.0000 0.47794  0.32677  0.34631  Biso   1.000  O
  C13      1.0000 0.44611  0.15063  0.26904  Biso   1.000  C
  N8       1.0000 0.51210  0.04723  0.32421  Biso   1.000  N
  H7       1.0000 0.39078  0.08579  0.32049  Biso   1.000  H
  H8       1.0000 0.47674  0.96993  0.37112  Biso   1.000  H
  H9       1.0000 0.55333  0.93548  0.35082  Biso   1.000  H
  O3       1.0000 0.70818  0.94751  0.39188  Biso   1.000  O
  N9       1.0000 0.85438  0.05990  0.49035  Biso   1.000  N
  H10      1.0000 0.80642  0.94593  0.47272  Biso   1.000  H
  H11      1.0000 0.78543  0.98088  0.52050  Biso   1.000  H
  H12      1.0000 0.87742  0.10631  0.55863  Biso   1.000  H
  C14      1.0000 0.95141  0.16981  0.51645  Biso   1.000  C
  O4       1.0000 0.80857  0.34000  0.50576  Biso   1.000  O
  N10      1.0000 0.92671  0.25712  0.50782  Biso   1.000  N
  C15      1.0000 0.45670  0.30562  0.24409  Biso   1.000  C
  N11      1.0000 0.51784  0.10947  0.25528  Biso   1.000  N
  H13      1.0000 0.39282  0.13942  0.24571  Biso   1.000  H
  C16      1.0000 0.55272  0.04768  0.28648  Biso   1.000  C
  C17      1.0000 0.91343  0.05768  0.46207  Biso   1.000  C
  N12      1.0000 0.96783  0.12460  0.47550  Biso   1.000  N
  H14      1.0000 0.99871  0.16392  0.54451  Biso   1.000  H
  C18      1.0000 0.98525  0.32519  0.50356  Biso   1.000  C
  N13      1.0000 0.53638  0.31626  0.22918  Biso   1.000  N
  H15      1.0000 0.41269  0.29258  0.21589  Biso   1.000  H
  H16      1.0000 0.44183  0.35881  0.25720  Biso   1.000  H
  C19      1.0000 0.53393  0.11549  0.20690  Biso   1.000  C
  O5       1.0000 0.60995  0.99975  0.28189  Biso   1.000  O
  O6       1.0000 0.91703  0.00601  0.43095  Biso   1.000  O
  C20      1.0000 0.04522  0.13480  0.45734  Biso   1.000  C
  H17      1.0000 0.96261  0.37780  0.51320  Biso   1.000  H
  N14      1.0000 0.00055  0.33538  0.45586  Biso   1.000  N
  H18      1.0000 0.03902  0.31449  0.52569  Biso   1.000  H
  C21      1.0000 0.59173  0.38021  0.24579  Biso   1.000  C
  C22      1.0000 0.55992  0.27010  0.18949  Biso   1.000  C
  N15      1.0000 0.58903  0.18437  0.20108  Biso   1.000  N
  H19      1.0000 0.55922  0.06287  0.19932  Biso   1.000  H
  H20      1.0000 0.48004  0.12232  0.18411  Biso   1.000  H
  N16      1.0000 0.04241  0.20419  0.42405  Biso   1.000  N
  H21      1.0000 0.09262  0.14347  0.48450  Biso   1.000  H
  H22      1.0000 0.05582  0.08288  0.44131  Biso   1.000  H
  C23      1.0000 0.96654  0.40079  0.42600  Biso   1.000  C
  C24      1.0000 0.06493  0.29030  0.43795  Biso   1.000  C
  O7       1.0000 0.58522  0.43092  0.27727  Biso   1.000  O
  N17      1.0000 0.65519  0.37900  0.22051  Biso   1.000  N
  H23      1.0000 0.51462  0.27219  0.16032  Biso   1.000  H
  C25      1.0000 0.64090  0.31651  0.18231  Biso   1.000  C
  C26      1.0000 0.67198  0.17317  0.19914  Biso   1.000  C
  C27      1.0000 0.03434  0.19147  0.37567  Biso   1.000  C
  N18      1.0000 0.00149  0.39806  0.38592  Biso   1.000  N
  O8       1.0000 0.91534  0.45207  0.43373  Biso   1.000  O
  C28      1.0000 0.06589  0.33392  0.38946  Biso   1.000  C
  H24      1.0000 0.12034  0.29378  0.46030  Biso   1.000  H
  C29      1.0000 0.71793  0.44612  0.22492  Biso   1.000  C
  N19      1.0000 0.70424  0.24908  0.18863  Biso   1.000  N
  H25      1.0000 0.63281  0.34273  0.15032  Biso   1.000  H
  O9       1.0000 0.71089  0.10631  0.20527  Biso   1.000  O
  N20      1.0000 0.04533  0.26681  0.35505  Biso   1.000  N
  O10      1.0000 0.01981  0.12391  0.35527  Biso   1.000  O
  C30      1.0000 0.98071  0.45897  0.34765  Biso   1.000  C
  H26      1.0000 0.12169  0.35849  0.38932  Biso   1.000  H
  N21      1.0000 0.80160  0.42149  0.25005  Biso   1.000  N
  H27      1.0000 0.72092  0.46537  0.19282  Biso   1.000  H
  H28      1.0000 0.69923  0.49348  0.24171  Biso   1.000  H
  C31      1.0000 0.78870  0.25801  0.17866  Biso   1.000  C
  C32      1.0000 0.05003  0.27447  0.30428  Biso   1.000  C
  N22      1.0000 0.92121  0.42807  0.30587  Biso   1.000  N
  H29      1.0000 0.95681  0.50886  0.35971  Biso   1.000  H
  H30      1.0000 0.03250  0.47600  0.33801  Biso   1.000  H
  C33      1.0000 0.83863  0.45530  0.29417  Biso   1.000  C
  C34      1.0000 0.86312  0.38122  0.22687  Biso   1.000  C
  N23      1.0000 0.85008  0.29201  0.21816  Biso   1.000  N
  H31      1.0000 0.80801  0.20280  0.17039  Biso   1.000  H
  H32      1.0000 0.78520  0.29461  0.15079  Biso   1.000  H
  N24      1.0000 0.97101  0.29929  0.27337  Biso   1.000  N
  H33      1.0000 0.09334  0.31588  0.30150  Biso   1.000  H
  H34      1.0000 0.06751  0.22053  0.29330  Biso   1.000  H
  C35      1.0000 0.94592  0.38578  0.26550  Biso   1.000  C
  O11      1.0000 0.80432  0.50152  0.31865  Biso   1.000  O
  H35      1.0000 0.86828  0.41142  0.19740  Biso   1.000  H
  C36      1.0000 0.91670  0.24547  0.24420  Biso   1.000  C
  H36      1.0000 0.98933  0.41839  0.25391  Biso   1.000  H
  O12      1.0000 0.92440  0.16911  0.24091  Biso   1.000  O
  O13      1.0000 0.40511  0.71964  0.53891  Biso   1.000  O
  C37      1.0000 0.40080  0.79676  0.53916  Biso   1.000  C
  N25      1.0000 0.33922  0.84450  0.51049  Biso   1.000  N
  N26      1.0000 0.45618  0.84988  0.56787  Biso   1.000  N
  C38      1.0000 0.27553  0.80879  0.47229  Biso   1.000  C
  C39      1.0000 0.35530  0.93415  0.51674  Biso   1.000  C
  C40      1.0000 0.43792  0.93839  0.55653  Biso   1.000  C
  C41      1.0000 0.53564  0.82101  0.59733  Biso   1.000  C
  N27      1.0000 0.19235  0.80429  0.48370  Biso   1.000  N
  H37      1.0000 0.27171  0.84279  0.44340  Biso   1.000  H
  H38      1.0000 0.29303  0.75218  0.46532  Biso   1.000  H
  N28      1.0000 0.29402  0.97866  0.53840  Biso   1.000  N
  H39      1.0000 0.36242  0.96119  0.48670  Biso   1.000  H
  N29      1.0000 0.41225  0.98544  0.59470  Biso   1.000  N
  H40      1.0000 0.48431  0.96638  0.54512  Biso   1.000  H
  N30      1.0000 0.53448  0.81772  0.64843  Biso   1.000  N
  H41      1.0000 0.54816  0.76491  0.58672  Biso   1.000  H
  H42      1.0000 0.58093  0.85855  0.59271  Biso   1.000  H
  C42      1.0000 0.15621  0.72857  0.49067  Biso   1.000  C
  C43      1.0000 0.13034  0.87217  0.47446  Biso   1.000  C
  C44      1.0000 0.21080  0.00386  0.51215  Biso   1.000  C
  C45      1.0000 0.32924  0.00988  0.58300  Biso   1.000  C
  C46      1.0000 0.47012  0.01418  0.63741  Biso   1.000  C
  C47      1.0000 0.53130  0.74351  0.67211  Biso   1.000  C
  C48      1.0000 0.55392  0.88920  0.68067  Biso   1.000  C
  O14      1.0000 0.19143  0.66000  0.49424  Biso   1.000  O
  N31      1.0000 0.07335  0.74288  0.49219  Biso   1.000  N
  C49      1.0000 0.04865  0.83019  0.48356  Biso   1.000  C
  N32      1.0000 0.14569  0.94010  0.50970  Biso   1.000  N
  H43      1.0000 0.12265  0.89369  0.44142  Biso   1.000  H
  H44      1.0000 0.19366  0.05407  0.52732  Biso   1.000  H
  H45      1.0000 0.21463  0.01906  0.47951  Biso   1.000  H
  O15      1.0000 0.29187  0.05249  0.60813  Biso   1.000  O
  N33      1.0000 0.48797  0.95277  0.67583  Biso   1.000  N
  H46      1.0000 0.52333  0.03007  0.62893  Biso   1.000  H
  H47      1.0000 0.44674  0.06445  0.64922  Biso   1.000  H
  O16      1.0000 0.52212  0.67323  0.65370  Biso   1.000  O
  N34      1.0000 0.54240  0.76010  0.72028  Biso   1.000  N
  H48      1.0000 0.60921  0.91421  0.67951  Biso   1.000  H
  C50      1.0000 0.55396  0.84937  0.73100  Biso   1.000  C
  C51      1.0000 0.01482  0.67481  0.49648  Biso   1.000  C
  N35      1.0000 0.03223  0.87540  0.52450  Biso   1.000  N
  H49      1.0000 0.00135  0.83608  0.45550  Biso   1.000  H
  C52      1.0000 0.08663  0.94226  0.53794  Biso   1.000  C
  C53      1.0000 0.44735  0.95226  0.71356  Biso   1.000  C
  C54      1.0000 0.54336  0.69438  0.75592  Biso   1.000  C
  N36      1.0000 0.48222  0.89053  0.74473  Biso   1.000  N
  H50      1.0000 0.60725  0.86058  0.75433  Biso   1.000  H
  H51      1.0000 0.03745  0.62220  0.48681  Biso   1.000  H
  N37      1.0000 0.99951  0.66456  0.54415  Biso   1.000  N
  H52      1.0000 0.96104  0.68551  0.47431  Biso   1.000  H
  C55      1.0000 0.95485  0.86520  0.54270  Biso   1.000  C
  O17      1.0000 0.08305  0.99392  0.56910  Biso   1.000  O
  O18      1.0000 0.39011  0.00019  0.71811  Biso   1.000  O
  N38      1.0000 0.46368  0.68374  0.77083  Biso   1.000  N
  H53      1.0000 0.58737  0.70736  0.78412  Biso   1.000  H
  H54      1.0000 0.55823  0.64119  0.74281  Biso   1.000  H
  C56      1.0000 0.46612  0.88451  0.79311  Biso   1.000  C
  C57      1.0000 0.03353  0.59921  0.57404  Biso   1.000  C
  C58      1.0000 0.93513  0.70970  0.56206  Biso   1.000  C
  N39      1.0000 0.95765  0.79581  0.57596  Biso   1.000  N
  H55      1.0000 0.90743  0.85646  0.51551  Biso   1.000  H
  H56      1.0000 0.94424  0.91706  0.55870  Biso   1.000  H
  C59      1.0000 0.40833  0.61979  0.75422  Biso   1.000  C
  C60      1.0000 0.44014  0.72990  0.81051  Biso   1.000  C
  N40      1.0000 0.41105  0.81556  0.79896  Biso   1.000  N
  H57      1.0000 0.44085  0.93706  0.80073  Biso   1.000  H
  H58      1.0000 0.52003  0.87768  0.81593  Biso   1.000  H
  O19      1.0000 0.08472  0.54793  0.56628  Biso   1.000  O
  N41      1.0000 0.99856  0.60187  0.61409  Biso   1.000  N
  H59      1.0000 0.87972  0.70622  0.53970  Biso   1.000  H
  C61      1.0000 0.93417  0.66608  0.61055  Biso   1.000  C
  C62      1.0000 0.96571  0.80847  0.62434  Biso   1.000  C
  N42      1.0000 0.34486  0.62100  0.77950  Biso   1.000  N
  O20      1.0000 0.41484  0.56901  0.72274  Biso   1.000  O
  C63      1.0000 0.35916  0.68349  0.81770  Biso   1.000  C
  H60      1.0000 0.48546  0.72781  0.83973  Biso   1.000  H
  C64      1.0000 0.32808  0.82677  0.80087  Biso   1.000  C
  C65      1.0000 0.01935  0.54096  0.65236  Biso   1.000  C
  N43      1.0000 0.95473  0.73319  0.64496  Biso   1.000  N
  H61      1.0000 0.87832  0.64151  0.61073  Biso   1.000  H
  O21      1.0000 0.98026  0.87609  0.64478  Biso   1.000  O
  C66      1.0000 0.28214  0.55388  0.77513  Biso   1.000  C
  N44      1.0000 0.29583  0.75085  0.81142  Biso   1.000  N
  H62      1.0000 0.36727  0.65727  0.84973  Biso   1.000  H
  O22      1.0000 0.28918  0.89369  0.79477  Biso   1.000  O
  N45      1.0000 0.07885  0.57186  0.69414  Biso   1.000  N
  H63      1.0000 0.04325  0.49107  0.64030  Biso   1.000  H
  H64      1.0000 0.96756  0.52400  0.66200  Biso   1.000  H
  C67      1.0000 0.95005  0.72547  0.69576  Biso   1.000  C
  N46      1.0000 0.19846  0.57851  0.74996  Biso   1.000  N
  H65      1.0000 0.27916  0.53457  0.80723  Biso   1.000  H
  H66      1.0000 0.30083  0.50652  0.75830  Biso   1.000  H
  C68      1.0000 0.21137  0.74199  0.82138  Biso   1.000  C
  C69      1.0000 0.16143  0.54470  0.70584  Biso   1.000  C
  C70      1.0000 0.05414  0.61416  0.73451  Biso   1.000  C
  N47      1.0000 0.02906  0.70071  0.72667  Biso   1.000  N
  H67      1.0000 0.90672  0.68406  0.69851  Biso   1.000  H
  H68      1.0000 0.93255  0.77947  0.70670  Biso   1.000  H
  C71      1.0000 0.13694  0.61878  0.77314  Biso   1.000  C
  N48      1.0000 0.14993  0.70799  0.78188  Biso   1.000  N
  H69      1.0000 0.19205  0.79720  0.82962  Biso   1.000  H
  H70      1.0000 0.21485  0.70539  0.84922  Biso   1.000  H
  O23      1.0000 0.19574  0.49842  0.68136  Biso   1.000  O
  H71      1.0000 0.01073  0.58161  0.74610  Biso   1.000  H
  C72      1.0000 0.08336  0.75446  0.75581  Biso   1.000  C
  H72      1.0000 0.13178  0.58858  0.80261  Biso   1.000  H
  O24      1.0000 0.07567  0.83089  0.75913  Biso   1.000  O
  C73      1.0000 0.46612  0.61549  0.29309  Biso   1.000  C
  N49      1.0000 0.48216  0.60947  0.24470  Biso   1.000  N
  N50      1.0000 0.41104  0.68437  0.29894  Biso   1.000  N
  H73      1.0000 0.44079  0.56287  0.30071  Biso   1.000  H
  H74      1.0000 0.52002  0.62226  0.31591  Biso   1.000  H
  C74      1.0000 0.44728  0.54768  0.21354  Biso   1.000  C
  C75      1.0000 0.55390  0.65056  0.23098  Biso   1.000  C
  C76      1.0000 0.44013  0.77010  0.31049  Biso   1.000  C
  C77      1.0000 0.32801  0.67317  0.30085  Biso   1.000  C
  O25      1.0000 0.39011  0.49975  0.21813  Biso   1.000  O
  N51      1.0000 0.48791  0.54723  0.17581  Biso   1.000  N
  C78      1.0000 0.55391  0.61080  0.18065  Biso   1.000  C
  N52      1.0000 0.54239  0.73990  0.22026  Biso   1.000  N
  H75      1.0000 0.60718  0.63936  0.25431  Biso   1.000  H
  N53      1.0000 0.46368  0.81620  0.27081  Biso   1.000  N
  H76      1.0000 0.48539  0.77219  0.33970  Biso   1.000  H
  C79      1.0000 0.35910  0.81651  0.31771  Biso   1.000  C
  O26      1.0000 0.28911  0.60631  0.29475  Biso   1.000  O
  N54      1.0000 0.29583  0.74908  0.31139  Biso   1.000  N
  C80      1.0000 0.47011  0.48582  0.13739  Biso   1.000  C
  N55      1.0000 0.53441  0.68228  0.14840  Biso   1.000  N
  H77      1.0000 0.60921  0.58579  0.17949  Biso   1.000  H
  C81      1.0000 0.53130  0.75649  0.17209  Biso   1.000  C
  C82      1.0000 0.54329  0.80556  0.25590  Biso   1.000  C
  C83      1.0000 0.40832  0.88021  0.25420  Biso   1.000  C
  N56      1.0000 0.34486  0.87900  0.27948  Biso   1.000  N
  H78      1.0000 0.36720  0.84266  0.34970  Biso   1.000  H
  C84      1.0000 0.21130  0.75801  0.32136  Biso   1.000  C
  N57      1.0000 0.41224  0.51456  0.09467  Biso   1.000  N
  H79      1.0000 0.52333  0.46986  0.12891  Biso   1.000  H
  H80      1.0000 0.44674  0.43548  0.14920  Biso   1.000  H
  C85      1.0000 0.53557  0.67899  0.09731  Biso   1.000  C
  O27      1.0000 0.52211  0.82671  0.15368  Biso   1.000  O
  H81      1.0000 0.58730  0.79258  0.28410  Biso   1.000  H
  H82      1.0000 0.55823  0.85881  0.24279  Biso   1.000  H
  O28      1.0000 0.41477  0.93092  0.22271  Biso   1.000  O
  C86      1.0000 0.28214  0.94606  0.27511  Biso   1.000  C
  N58      1.0000 0.14992  0.79201  0.28186  Biso   1.000  N
  H83      1.0000 0.19204  0.70280  0.32959  Biso   1.000  H
  H84      1.0000 0.21479  0.79461  0.34920  Biso   1.000  H
  C87      1.0000 0.43791  0.56161  0.05651  Biso   1.000  C
  C88      1.0000 0.32918  0.49006  0.08301  Biso   1.000  C
  N59      1.0000 0.45619  0.65012  0.06788  Biso   1.000  N
  H85      1.0000 0.54809  0.73509  0.08670  Biso   1.000  H
  H86      1.0000 0.58092  0.64138  0.09269  Biso   1.000  H
  N60      1.0000 0.19839  0.92149  0.24994  Biso   1.000  N
  H87      1.0000 0.27909  0.96537  0.30721  Biso   1.000  H
  H88      1.0000 0.30084  0.99348  0.25832  Biso   1.000  H
  C89      1.0000 0.13693  0.88116  0.27312  Biso   1.000  C
  C90      1.0000 0.08329  0.74547  0.25579  Biso   1.000  C
  C91      1.0000 0.35530  0.56578  0.01672  Biso   1.000  C
  H89      1.0000 0.48431  0.53362  0.04510  Biso   1.000  H
  O29      1.0000 0.29181  0.44751  0.10811  Biso   1.000  O
  N61      1.0000 0.29401  0.52127  0.03838  Biso   1.000  N
  C92      1.0000 0.40081  0.70318  0.03918  Biso   1.000  C
  C93      1.0000 0.16142  0.95530  0.20582  Biso   1.000  C
  H90      1.0000 0.13172  0.91136  0.30262  Biso   1.000  H
  C94      1.0000 0.05413  0.88578  0.23448  Biso   1.000  C
  O30      1.0000 0.07560  0.66911  0.25911  Biso   1.000  O
  N62      1.0000 0.02899  0.79929  0.22665  Biso   1.000  N
  N63      1.0000 0.33915  0.65544  0.01047  Biso   1.000  N
  H91      1.0000 0.36249  0.53881  0.98671  Biso   1.000  H
  C95      1.0000 0.21081  0.49607  0.01217  Biso   1.000  C
  O31      1.0000 0.40511  0.78036  0.03889  Biso   1.000  O
  N64      1.0000 0.07878  0.92807  0.19412  Biso   1.000  N
  O32      1.0000 0.19575  0.00152  0.18137  Biso   1.000  O
  H92      1.0000 0.01074  0.91839  0.24611  Biso   1.000  H
  C96      1.0000 0.95004  0.77447  0.19574  Biso   1.000  C
  C97      1.0000 0.27554  0.69121  0.97231  Biso   1.000  C
  N65      1.0000 0.14562  0.55990  0.00968  Biso   1.000  N
  H93      1.0000 0.19359  0.44587  0.02730  Biso   1.000  H
  H94      1.0000 0.21463  0.48088  0.97949  Biso   1.000  H
  C98      1.0000 0.01929  0.95897  0.15238  Biso   1.000  C
  N66      1.0000 0.95473  0.76681  0.14494  Biso   1.000  N
  H95      1.0000 0.90673  0.81588  0.19852  Biso   1.000  H
  H96      1.0000 0.93250  0.72046  0.20672  Biso   1.000  H
  N67      1.0000 0.19243  0.69571  0.98372  Biso   1.000  N
  H97      1.0000 0.27177  0.65721  0.94338  Biso   1.000  H
  H98      1.0000 0.29309  0.74782  0.96530  Biso   1.000  H
  C99      1.0000 0.08657  0.55768  0.03791  Biso   1.000  C
  C100     1.0000 0.13033  0.62777  0.97444  Biso   1.000  C
  N68      1.0000 0.99850  0.89806  0.11406  Biso   1.000  N
  H99      1.0000 0.96751  0.97600  0.16202  Biso   1.000  H
  H100     1.0000 0.04320  0.00886  0.14032  Biso   1.000  H
  C101     1.0000 0.93410  0.83386  0.11053  Biso   1.000  C
  C102     1.0000 0.96572  0.69147  0.12436  Biso   1.000  C
  C103     1.0000 0.15629  0.77137  0.99068  Biso   1.000  C
  O33      1.0000 0.08298  0.50601  0.06907  Biso   1.000  O
  N69      1.0000 0.03217  0.62460  0.02448  Biso   1.000  N
  H101     1.0000 0.12265  0.60631  0.94140  Biso   1.000  H
  C104     1.0000 0.04866  0.66981  0.98357  Biso   1.000  C
  C105     1.0000 0.03353  0.90079  0.07402  Biso   1.000  C
  C106     1.0000 0.93512  0.79030  0.06203  Biso   1.000  C
  H102     1.0000 0.87831  0.85849  0.11071  Biso   1.000  H
  N70      1.0000 0.95759  0.70419  0.07597  Biso   1.000  N
  O34      1.0000 0.98019  0.62391  0.14476  Biso   1.000  O
  O35      1.0000 0.19148  0.83994  0.99422  Biso   1.000  O
  N71      1.0000 0.07334  0.75706  0.99216  Biso   1.000  N
  C107     1.0000 0.95478  0.63480  0.04268  Biso   1.000  C
  H103     1.0000 0.00135  0.66386  0.95552  Biso   1.000  H
  N72      1.0000 0.99950  0.83538  0.04412  Biso   1.000  N
  O36      1.0000 0.08466  0.95201  0.06629  Biso   1.000  O
  H104     1.0000 0.87973  0.79378  0.03972  Biso   1.000  H
  C108     1.0000 0.01488  0.82519  0.99646  Biso   1.000  C
  H105     1.0000 0.90737  0.64347  0.01549  Biso   1.000  H
  H106     1.0000 0.94418  0.58288  0.05871  Biso   1.000  H
  H107     1.0000 0.96103  0.81449  0.97429  Biso   1.000  H
  H108     1.0000 0.03745  0.87780  0.98678  Biso   1.000  H
  C109     1.0000 0.53394  0.38451  0.70692  Biso   1.000  C
  N73      1.0000 0.58902  0.31556  0.70107  Biso   1.000  N
  N74      1.0000 0.51790  0.39053  0.75530  Biso   1.000  N
  H109     1.0000 0.55921  0.43706  0.69930  Biso   1.000  H
  H110     1.0000 0.48003  0.37768  0.68410  Biso   1.000  H
  C110     1.0000 0.55993  0.22990  0.68952  Biso   1.000  C
  C111     1.0000 0.67205  0.32677  0.69916  Biso   1.000  C
  C112     1.0000 0.44616  0.34937  0.76903  Biso   1.000  C
  C113     1.0000 0.55271  0.45226  0.78647  Biso   1.000  C
  N75      1.0000 0.53638  0.18374  0.72920  Biso   1.000  N
  H111     1.0000 0.51461  0.22781  0.66031  Biso   1.000  H
  C114     1.0000 0.64097  0.18349  0.68233  Biso   1.000  C
  N76      1.0000 0.70423  0.25092  0.68861  Biso   1.000  N
  O37      1.0000 0.71095  0.39369  0.70526  Biso   1.000  O
  N77      1.0000 0.45766  0.26010  0.77975  Biso   1.000  N
  C115     1.0000 0.44615  0.38920  0.81936  Biso   1.000  C
  H112     1.0000 0.39281  0.36058  0.74570  Biso   1.000  H
  O38      1.0000 0.60996  0.50019  0.78192  Biso   1.000  O
  N78      1.0000 0.51209  0.45277  0.82420  Biso   1.000  N
  C116     1.0000 0.45677  0.19438  0.74411  Biso   1.000  C
  C117     1.0000 0.59173  0.11979  0.74581  Biso   1.000  C
  N79      1.0000 0.65520  0.12100  0.72053  Biso   1.000  N
  H113     1.0000 0.63286  0.15727  0.65030  Biso   1.000  H
  C118     1.0000 0.78876  0.24199  0.67865  Biso   1.000  C
  C119     1.0000 0.46876  0.24351  0.82792  Biso   1.000  C
  N80      1.0000 0.46564  0.31772  0.85160  Biso   1.000  N
  H114     1.0000 0.39085  0.41421  0.82052  Biso   1.000  H
  C120     1.0000 0.52994  0.51418  0.86262  Biso   1.000  C
  H115     1.0000 0.41276  0.20742  0.71591  Biso   1.000  H
  H116     1.0000 0.44183  0.14119  0.75722  Biso   1.000  H
  O39      1.0000 0.58529  0.06901  0.77729  Biso   1.000  O
  C121     1.0000 0.71792  0.05388  0.72490  Biso   1.000  C
  N81      1.0000 0.85014  0.20799  0.71815  Biso   1.000  N
  H117     1.0000 0.80802  0.29720  0.67042  Biso   1.000  H
  H118     1.0000 0.78521  0.20539  0.65081  Biso   1.000  H
  O40      1.0000 0.47795  0.17323  0.84633  Biso   1.000  O
  C122     1.0000 0.46448  0.32101  0.90270  Biso   1.000  C
  N82      1.0000 0.58782  0.48544  0.90533  Biso   1.000  N
  H119     1.0000 0.47673  0.53007  0.87110  Biso   1.000  H
  H120     1.0000 0.55332  0.56452  0.85081  Biso   1.000  H
  N83      1.0000 0.80167  0.07851  0.75007  Biso   1.000  N
  H121     1.0000 0.72091  0.03457  0.69280  Biso   1.000  H
  H122     1.0000 0.69923  0.00652  0.74173  Biso   1.000  H
  C123     1.0000 0.86313  0.11878  0.72689  Biso   1.000  C
  C124     1.0000 0.91676  0.25446  0.74422  Biso   1.000  C
  N84      1.0000 0.54389  0.34988  0.93216  Biso   1.000  N
  H123     1.0000 0.45196  0.26491  0.91331  Biso   1.000  H
  H124     1.0000 0.41913  0.35862  0.90732  Biso   1.000  H
  C125     1.0000 0.56214  0.43839  0.94350  Biso   1.000  C
  C126     1.0000 0.67089  0.50988  0.91703  Biso   1.000  C
  C127     1.0000 0.83864  0.04470  0.79419  Biso   1.000  C
  H125     1.0000 0.86835  0.08858  0.69742  Biso   1.000  H
  C128     1.0000 0.94593  0.11422  0.76552  Biso   1.000  C
  O41      1.0000 0.92446  0.33089  0.74090  Biso   1.000  O
  N85      1.0000 0.97107  0.20071  0.77336  Biso   1.000  N
  C129     1.0000 0.59925  0.29682  0.96083  Biso   1.000  C
  C130     1.0000 0.64476  0.43422  0.98329  Biso   1.000  C
  H126     1.0000 0.51575  0.46638  0.95491  Biso   1.000  H
  O42      1.0000 0.70825  0.55249  0.89190  Biso   1.000  O
  N86      1.0000 0.70605  0.47866  0.96163  Biso   1.000  N
  N87      1.0000 0.92127  0.07193  0.80589  Biso   1.000  N
  O43      1.0000 0.80432  0.99848  0.81867  Biso   1.000  O
  H127     1.0000 0.98932  0.08161  0.75390  Biso   1.000  H
  C131     1.0000 0.05002  0.22547  0.80427  Biso   1.000  C
  O44      1.0000 0.59495  0.21964  0.96112  Biso   1.000  O
  N88      1.0000 0.66085  0.34450  0.98954  Biso   1.000  N
  H128     1.0000 0.63758  0.46119  0.01333  Biso   1.000  H
  C132     1.0000 0.78927  0.50386  0.98788  Biso   1.000  C
  C133     1.0000 0.98078  0.04103  0.84767  Biso   1.000  C
  N89      1.0000 0.04533  0.23319  0.85507  Biso   1.000  N
  H129     1.0000 0.09334  0.18412  0.80152  Biso   1.000  H
  H130     1.0000 0.06757  0.27947  0.79333  Biso   1.000  H
  C134     1.0000 0.72447  0.30879  0.02774  Biso   1.000  C
  N90      1.0000 0.85437  0.44010  0.99033  Biso   1.000  N
  H131     1.0000 0.80647  0.55407  0.97271  Biso   1.000  H
  H132     1.0000 0.78537  0.51912  0.02052  Biso   1.000  H
  H133     1.0000 0.95687  0.99107  0.85973  Biso   1.000  H
  N91      1.0000 0.00156  0.10187  0.88594  Biso   1.000  N
  H134     1.0000 0.03256  0.02400  0.83803  Biso   1.000  H
  C135     1.0000 0.06596  0.16608  0.88948  Biso   1.000  C
  C136     1.0000 0.03435  0.30847  0.87569  Biso   1.000  C
  N92      1.0000 0.80765  0.30429  0.01633  Biso   1.000  N
  H135     1.0000 0.72829  0.34279  0.05663  Biso   1.000  H
  H136     1.0000 0.70697  0.25218  0.03471  Biso   1.000  H
  C137     1.0000 0.86972  0.37217  0.02557  Biso   1.000  C
  C138     1.0000 0.91343  0.44232  0.96209  Biso   1.000  C
  C139     1.0000 0.96653  0.09921  0.92599  Biso   1.000  C
  C140     1.0000 0.06494  0.20970  0.93797  Biso   1.000  C
  H137     1.0000 0.12175  0.14151  0.88930  Biso   1.000  H
  O45      1.0000 0.01986  0.37609  0.85525  Biso   1.000  O
  N93      1.0000 0.04248  0.29581  0.92407  Biso   1.000  N
  C141     1.0000 0.84379  0.22857  0.00936  Biso   1.000  C
  H138     1.0000 0.87741  0.39369  0.05861  Biso   1.000  H
  C142     1.0000 0.95141  0.33019  0.01647  Biso   1.000  C
  N94      1.0000 0.96789  0.37540  0.97553  Biso   1.000  N
  O46      1.0000 0.91702  0.49399  0.93093  Biso   1.000  O
  O47      1.0000 0.91541  0.04793  0.93375  Biso   1.000  O
  N95      1.0000 0.00056  0.16462  0.95588  Biso   1.000  N
  H139     1.0000 0.12034  0.20622  0.96033  Biso   1.000  H
  C143     1.0000 0.04528  0.36520  0.95733  Biso   1.000  C
  N96      1.0000 0.92672  0.24288  0.00784  Biso   1.000  N
  O48      1.0000 0.80858  0.16000  0.00579  Biso   1.000  O
  H140     1.0000 0.99872  0.33608  0.04453  Biso   1.000  H
  C144     1.0000 0.98518  0.17481  0.00355  Biso   1.000  C
  H141     1.0000 0.09263  0.35646  0.98452  Biso   1.000  H
  H142     1.0000 0.05583  0.41712  0.94133  Biso   1.000  H
  H143     1.0000 0.96261  0.12220  0.01322  Biso   1.000  H
  H144     1.0000 0.03902  0.18551  0.02572  Biso   1.000  H
