data_image0
_cell_length_a       12.098
_cell_length_b       12.371
_cell_length_c       12.602
_cell_angle_alpha    106.44
_cell_angle_beta     109.96
_cell_angle_gamma    91.16

_symmetry_space_group_name_H-M    "P 1"
_symmetry_int_tables_number       1

loop_
  _symmetry_equiv_pos_as_xyz
  'x, y, z'

loop_
  _atom_site_label
  _atom_site_occupancy
  _atom_site_fract_x
  _atom_site_fract_y
  _atom_site_fract_z
  _atom_site_thermal_displace_type
  _atom_site_B_iso_or_equiv
  _atom_site_type_symbol
  O1       1.0000 0.26029  0.24090  0.00087  Biso   1.000  O
  C1       1.0000 0.20937  0.19657  0.89490  Biso   1.000  C
  C2       1.0000 0.20937  0.19649  0.89490  Biso   1.000  C
  N1       1.0000 0.23797  0.10293  0.82807  Biso   1.000  N
  N2       1.0000 0.11543  0.23262  0.82318  Biso   1.000  N
  C3       1.0000 0.16347  0.07363  0.70346  Biso   1.000  C
  C4       1.0000 0.34560  0.05626  0.87590  Biso   1.000  C
  C5       1.0000 0.34555  0.05621  0.87599  Biso   1.000  C
  C6       1.0000 0.34552  0.05626  0.87590  Biso   1.000  C
  C7       1.0000 0.34563  0.05621  0.87599  Biso   1.000  C
  C8       1.0000 0.08087  0.16484  0.69831  Biso   1.000  C
  C9       1.0000 0.08392  0.34530  0.86330  Biso   1.000  C
  N3       1.0000 0.08638  0.96743  0.65952  Biso   1.000  N
  H1       1.0000 0.21103  0.07452  0.65447  Biso   1.000  H
  H2       1.0000 0.21112  0.07452  0.65447  Biso   1.000  H
  H3       1.0000 0.38470  0.03994  0.81875  Biso   1.000  H
  N4       1.0000 0.32860  0.95607  0.90457  Biso   1.000  N
  H4       1.0000 0.39818  0.11332  0.94700  Biso   1.000  H
  N5       1.0000 0.96615  0.10305  0.65198  Biso   1.000  N
  N6       1.0000 0.96619  0.10299  0.65207  Biso   1.000  N
  H5       1.0000 0.09046  0.21017  0.64896  Biso   1.000  H
  H6       1.0000 0.09046  0.21009  0.64896  Biso   1.000  H
  N7       1.0000 0.98124  0.34464  0.89419  Biso   1.000  N
  N8       1.0000 0.98129  0.34461  0.89410  Biso   1.000  N
  H7       1.0000 0.06994  0.38057  0.80100  Biso   1.000  H
  H8       1.0000 0.06994  0.38049  0.80100  Biso   1.000  H
  H9       1.0000 0.15002  0.39120  0.93191  Biso   1.000  H
  C10      1.0000 0.96687  0.98749  0.62562  Biso   1.000  C
  C11      1.0000 0.12048  0.85888  0.63831  Biso   1.000  C
  C12      1.0000 0.29140  0.84384  0.81999  Biso   1.000  C
  C13      1.0000 0.29137  0.84381  0.81990  Biso   1.000  C
  C14      1.0000 0.36042  0.95239  0.01800  Biso   1.000  C
  C15      1.0000 0.36039  0.95244  0.01791  Biso   1.000  C
  C16      1.0000 0.36039  0.95236  0.01791  Biso   1.000  C
  C17      1.0000 0.85600  0.15395  0.63050  Biso   1.000  C
  C18      1.0000 0.85597  0.15392  0.63041  Biso   1.000  C
  C19      1.0000 0.85935  0.31772  0.80774  Biso   1.000  C
  C20      1.0000 0.98758  0.36985  0.00797  Biso   1.000  C
  O2       1.0000 0.88077  0.91442  0.57974  Biso   1.000  O
  N9       1.0000 0.16630  0.82462  0.74428  Biso   1.000  N
  H10      1.0000 0.11458  0.81301  0.56349  Biso   1.000  H
  N10      1.0000 0.16633  0.82457  0.74437  Biso   1.000  N
  C21      1.0000 0.30268  0.76481  0.89676  Biso   1.000  C
  H11      1.0000 0.34201  0.82601  0.77251  Biso   1.000  H
  C22      1.0000 0.30276  0.76481  0.89676  Biso   1.000  C
  N11      1.0000 0.34817  0.84192  0.01463  Biso   1.000  N
  O3       1.0000 0.40248  0.03304  0.10764  Biso   1.000  O
  O4       1.0000 0.40251  0.03299  0.10773  Biso   1.000  O
  N12      1.0000 0.82916  0.20062  0.73594  Biso   1.000  N
  H12      1.0000 0.86144  0.21387  0.59607  Biso   1.000  H
  H13      1.0000 0.79113  0.09653  0.57299  Biso   1.000  H
  H14      1.0000 0.86141  0.21384  0.59598  Biso   1.000  H
  H15      1.0000 0.86144  0.21379  0.59607  Biso   1.000  H
  H16      1.0000 0.84146  0.36946  0.75955  Biso   1.000  H
  C23      1.0000 0.78445  0.33095  0.88806  Biso   1.000  C
  N13      1.0000 0.87279  0.36242  0.00637  Biso   1.000  N
  N14      1.0000 0.87271  0.36242  0.00637  Biso   1.000  N
  O5       1.0000 0.07695  0.39562  0.09601  Biso   1.000  O
  C24      1.0000 0.10426  0.74501  0.76763  Biso   1.000  C
  C25      1.0000 0.10434  0.74501  0.76763  Biso   1.000  C
  N15      1.0000 0.18261  0.71294  0.85966  Biso   1.000  N
  H17      1.0000 0.35613  0.70832  0.88345  Biso   1.000  H
  C26      1.0000 0.37937  0.80462  0.11989  Biso   1.000  C
  C27      1.0000 0.73995  0.14683  0.75529  Biso   1.000  C
  N16      1.0000 0.71863  0.21981  0.84821  Biso   1.000  N
  H18      1.0000 0.73172  0.38932  0.87795  Biso   1.000  H
  H19      1.0000 0.73180  0.38932  0.87795  Biso   1.000  H
  C28      1.0000 0.84952  0.38668  0.11501  Biso   1.000  C
  C29      1.0000 0.84940  0.38665  0.11492  Biso   1.000  C
  C30      1.0000 0.84951  0.38660  0.11501  Biso   1.000  C
  O6       1.0000 0.99920  0.70872  0.71650  Biso   1.000  O
  O7       1.0000 0.99923  0.70867  0.71659  Biso   1.000  O
  C31      1.0000 0.15057  0.61347  0.88505  Biso   1.000  C
  C32      1.0000 0.15057  0.61355  0.88505  Biso   1.000  C
  N17      1.0000 0.28142  0.78024  0.15175  Biso   1.000  N
  H20      1.0000 0.43607  0.86334  0.18619  Biso   1.000  H
  H21      1.0000 0.41834  0.73695  0.10648  Biso   1.000  H
  H22      1.0000 0.41834  0.73687  0.10648  Biso   1.000  H
  H23      1.0000 0.43615  0.86334  0.18619  Biso   1.000  H
  O8       1.0000 0.68971  0.05115  0.69769  Biso   1.000  O
  O9       1.0000 0.68975  0.05109  0.69778  Biso   1.000  O
  C33      1.0000 0.62071  0.19545  0.88016  Biso   1.000  C
  C34      1.0000 0.62062  0.19545  0.88016  Biso   1.000  C
  N18      1.0000 0.81739  0.28721  0.14039  Biso   1.000  N
  H24      1.0000 0.78580  0.43361  0.11021  Biso   1.000  H
  H25      1.0000 0.91965  0.43005  0.18024  Biso   1.000  H
  H26      1.0000 0.78577  0.43358  0.11012  Biso   1.000  H
  H27      1.0000 0.08032  0.57008  0.81972  Biso   1.000  H
  H28      1.0000 0.21420  0.56654  0.88984  Biso   1.000  H
  N19      1.0000 0.12717  0.63770  0.99359  Biso   1.000  N
  H29      1.0000 0.21420  0.56646  0.88984  Biso   1.000  H
  N20      1.0000 0.12729  0.63773  0.99368  Biso   1.000  N
  C35      1.0000 0.26010  0.85321  0.24467  Biso   1.000  C
  C36      1.0000 0.21564  0.66913  0.11199  Biso   1.000  C
  N21      1.0000 0.65188  0.15812  0.98534  Biso   1.000  N
  H30      1.0000 0.58174  0.26312  0.89357  Biso   1.000  H
  H31      1.0000 0.56393  0.13673  0.81387  Biso   1.000  H
  C37      1.0000 0.69723  0.23534  0.10329  Biso   1.000  C
  C38      1.0000 0.89571  0.25512  0.23234  Biso   1.000  C
  C39      1.0000 0.89562  0.25512  0.23234  Biso   1.000  C
  C40      1.0000 0.01242  0.63030  0.99208  Biso   1.000  C
  C41      1.0000 0.01238  0.63028  0.99199  Biso   1.000  C
  O10      1.0000 0.31033  0.94890  0.30227  Biso   1.000  O
  N22      1.0000 0.17089  0.79942  0.26402  Biso   1.000  N
  C42      1.0000 0.14070  0.68232  0.19222  Biso   1.000  C
  H32      1.0000 0.26828  0.61075  0.12211  Biso   1.000  H
  H33      1.0000 0.26825  0.61072  0.12202  Biso   1.000  H
  C43      1.0000 0.63966  0.04760  0.98205  Biso   1.000  C
  C44      1.0000 0.70860  0.15631  0.18006  Biso   1.000  C
  H34      1.0000 0.64384  0.29180  0.11651  Biso   1.000  H
  N23      1.0000 0.83367  0.17550  0.25568  Biso   1.000  N
  N24      1.0000 0.83367  0.17558  0.25568  Biso   1.000  N
  O11      1.0000 0.00076  0.29140  0.28346  Biso   1.000  O
  O12      1.0000 0.00077  0.29148  0.28346  Biso   1.000  O
  O13      1.0000 0.92301  0.60451  0.90395  Biso   1.000  O
  N25      1.0000 0.01876  0.65543  0.10586  Biso   1.000  N
  N26      1.0000 0.01884  0.65543  0.10586  Biso   1.000  N
  C45      1.0000 0.14408  0.84613  0.36955  Biso   1.000  C
  H35      1.0000 0.15859  0.63058  0.24041  Biso   1.000  H
  O14      1.0000 0.59749  0.96708  0.89232  Biso   1.000  O
  N27      1.0000 0.67141  0.04417  0.09548  Biso   1.000  N
  N28      1.0000 0.67140  0.04408  0.09548  Biso   1.000  N
  H36      1.0000 0.65796  0.17412  0.22746  Biso   1.000  H
  C46      1.0000 0.87949  0.14124  0.36165  Biso   1.000  C
  C47      1.0000 0.91613  0.65475  0.13666  Biso   1.000  C
  C48      1.0000 0.91612  0.65467  0.13666  Biso   1.000  C
  N29      1.0000 0.03389  0.89700  0.34798  Biso   1.000  N
  H37      1.0000 0.20892  0.90352  0.42697  Biso   1.000  H
  H38      1.0000 0.13864  0.78620  0.40399  Biso   1.000  H
  N30      1.0000 0.03390  0.89708  0.34798  Biso   1.000  N
  C49      1.0000 0.65444  0.94378  0.12406  Biso   1.000  C
  C50      1.0000 0.65445  0.94386  0.12406  Biso   1.000  C
  C51      1.0000 0.65453  0.94378  0.12406  Biso   1.000  C
  C52      1.0000 0.65453  0.94386  0.12406  Biso   1.000  C
  H39      1.0000 0.88538  0.18712  0.43647  Biso   1.000  H
  N31      1.0000 0.91359  0.03270  0.34044  Biso   1.000  N
  N32      1.0000 0.88462  0.76742  0.17678  Biso   1.000  N
  H40      1.0000 0.85003  0.60877  0.06805  Biso   1.000  H
  H41      1.0000 0.85003  0.60885  0.06805  Biso   1.000  H
  H42      1.0000 0.93011  0.61947  0.19897  Biso   1.000  H
  C53      1.0000 0.91918  0.83520  0.30165  Biso   1.000  C
  C54      1.0000 0.03313  0.01266  0.37443  Biso   1.000  C
  C55      1.0000 0.03310  0.01264  0.37434  Biso   1.000  C
  N33      1.0000 0.76211  0.89714  0.17198  Biso   1.000  N
  H43      1.0000 0.60186  0.88672  0.05297  Biso   1.000  H
  H44      1.0000 0.61538  0.96013  0.18130  Biso   1.000  H
  H45      1.0000 0.61534  0.96011  0.18121  Biso   1.000  H
  C56      1.0000 0.83661  0.92644  0.29659  Biso   1.000  C
  C57      1.0000 0.79068  0.80347  0.10506  Biso   1.000  C
  C58      1.0000 0.79068  0.80356  0.10506  Biso   1.000  C
  H46      1.0000 0.90962  0.78998  0.35109  Biso   1.000  H
  O15      1.0000 0.11923  0.08573  0.42032  Biso   1.000  O
  O16      1.0000 0.11920  0.08570  0.42023  Biso   1.000  O
  H47      1.0000 0.78905  0.92556  0.34559  Biso   1.000  H
  H48      1.0000 0.78896  0.92556  0.34559  Biso   1.000  H
  O17      1.0000 0.73968  0.75923  0.99909  Biso   1.000  O
  O18      1.0000 0.73971  0.75917  0.99918  Biso   1.000  O
  Ne1      1.0000 0.00139  0.99618  0.00180  Biso   1.000  Ne
  He1      1.0000 0.20652  0.15968  0.20679  Biso   1.000  He
  He2      1.0000 0.79990  0.84597  0.80016  Biso   1.000  He
  Ar1      1.0000 0.00082  0.99756  0.00308  Biso   1.000  Ar
