data_image0
_cell_length_a       12.098
_cell_length_b       12.371
_cell_length_c       12.602
_cell_angle_alpha    106.44
_cell_angle_beta     109.96
_cell_angle_gamma    91.16

_symmetry_space_group_name_H-M    "P 1"
_symmetry_int_tables_number       1

loop_
  _symmetry_equiv_pos_as_xyz
  'x, y, z'

loop_
  _atom_site_label
  _atom_site_occupancy
  _atom_site_fract_x
  _atom_site_fract_y
  _atom_site_fract_z
  _atom_site_thermal_displace_type
  _atom_site_B_iso_or_equiv
  _atom_site_type_symbol
  C1       1.0000 0.10428  0.74499  0.76764  Biso   1.000  C
  N1       1.0000 0.16632  0.82460  0.74430  Biso   1.000  N
  N2       1.0000 0.18263  0.71292  0.85968  Biso   1.000  N
  O1       1.0000 0.99922  0.70870  0.71652  Biso   1.000  O
  C2       1.0000 0.12050  0.85886  0.63833  Biso   1.000  C
  C3       1.0000 0.29139  0.84379  0.81992  Biso   1.000  C
  C4       1.0000 0.30270  0.76479  0.89678  Biso   1.000  C
  C5       1.0000 0.15050  0.61345  0.88506  Biso   1.000  C
  N3       1.0000 0.08640  0.96741  0.65954  Biso   1.000  N
  H1       1.0000 0.11460  0.81299  0.56351  Biso   1.000  H
  N4       1.0000 0.32861  0.95596  0.90459  Biso   1.000  N
  H2       1.0000 0.34203  0.82599  0.77253  Biso   1.000  H
  N5       1.0000 0.34814  0.84200  0.01473  Biso   1.000  N
  H3       1.0000 0.35614  0.70830  0.88347  Biso   1.000  H
  N6       1.0000 0.12719  0.63768  0.99361  Biso   1.000  N
  H4       1.0000 0.08033  0.57006  0.81974  Biso   1.000  H
  H5       1.0000 0.21422  0.56644  0.88986  Biso   1.000  H
  C6       1.0000 0.16348  0.07361  0.70348  Biso   1.000  C
  C7       1.0000 0.96689  0.98746  0.62564  Biso   1.000  C
  C8       1.0000 0.34562  0.05624  0.87592  Biso   1.000  C
  C9       1.0000 0.36036  0.95245  0.01802  Biso   1.000  C
  C10      1.0000 0.37931  0.80468  0.11991  Biso   1.000  C
  C11      1.0000 0.21557  0.66918  0.11201  Biso   1.000  C
  C12      1.0000 0.01240  0.63025  0.99201  Biso   1.000  C
  N7       1.0000 0.23799  0.10290  0.82809  Biso   1.000  N
  C13      1.0000 0.08088  0.16482  0.69833  Biso   1.000  C
  H6       1.0000 0.21105  0.07449  0.65448  Biso   1.000  H
  N8       1.0000 0.96617  0.10303  0.65200  Biso   1.000  N
  O2       1.0000 0.88078  0.91440  0.57975  Biso   1.000  O
  H7       1.0000 0.39820  0.11330  0.94701  Biso   1.000  H
  H8       1.0000 0.38472  0.03992  0.81877  Biso   1.000  H
  O3       1.0000 0.40253  0.03305  0.10775  Biso   1.000  O
  N9       1.0000 0.28136  0.78030  0.15177  Biso   1.000  N
  H9       1.0000 0.43601  0.86340  0.18620  Biso   1.000  H
  H10      1.0000 0.41827  0.73693  0.10650  Biso   1.000  H
  C14      1.0000 0.14067  0.68240  0.19233  Biso   1.000  C
  H11      1.0000 0.26822  0.61081  0.12212  Biso   1.000  H
  O4       1.0000 0.92303  0.60448  0.90397  Biso   1.000  O
  N10      1.0000 0.01870  0.65549  0.10588  Biso   1.000  N
  C15      1.0000 0.20939  0.19655  0.89492  Biso   1.000  C
  N11      1.0000 0.11545  0.23260  0.82320  Biso   1.000  N
  H12      1.0000 0.09048  0.21015  0.64898  Biso   1.000  H
  C16      1.0000 0.85599  0.15390  0.63043  Biso   1.000  C
  C17      1.0000 0.26003  0.85327  0.24469  Biso   1.000  C
  N12      1.0000 0.17086  0.79951  0.26413  Biso   1.000  N
  H13      1.0000 0.15855  0.63067  0.24052  Biso   1.000  H
  C18      1.0000 0.91606  0.65472  0.13668  Biso   1.000  C
  O5       1.0000 0.26030  0.24087  0.00089  Biso   1.000  O
  C19      1.0000 0.08394  0.34536  0.86332  Biso   1.000  C
  N13      1.0000 0.82918  0.20060  0.73596  Biso   1.000  N
  H14      1.0000 0.79115  0.09651  0.57301  Biso   1.000  H
  H15      1.0000 0.86143  0.21382  0.59600  Biso   1.000  H
  O6       1.0000 0.31027  0.94896  0.30229  Biso   1.000  O
  C20      1.0000 0.14402  0.84618  0.36957  Biso   1.000  C
  N14      1.0000 0.88455  0.76748  0.17680  Biso   1.000  N
  H16      1.0000 0.93005  0.61953  0.19898  Biso   1.000  H
  H17      1.0000 0.84996  0.60882  0.06807  Biso   1.000  H
  N15      1.0000 0.98130  0.34459  0.89412  Biso   1.000  N
  H18      1.0000 0.06995  0.38055  0.80102  Biso   1.000  H
  H19      1.0000 0.15004  0.39126  0.93193  Biso   1.000  H
  C21      1.0000 0.85936  0.31770  0.80776  Biso   1.000  C
  C22      1.0000 0.73997  0.14681  0.75531  Biso   1.000  C
  N16      1.0000 0.03383  0.89705  0.34800  Biso   1.000  N
  H20      1.0000 0.20885  0.90358  0.42699  Biso   1.000  H
  H21      1.0000 0.13857  0.78626  0.40400  Biso   1.000  H
  C23      1.0000 0.91912  0.83526  0.30167  Biso   1.000  C
  C24      1.0000 0.79061  0.80353  0.10508  Biso   1.000  C
  C25      1.0000 0.98760  0.36983  0.00799  Biso   1.000  C
  H22      1.0000 0.84148  0.36944  0.75957  Biso   1.000  H
  C26      1.0000 0.78446  0.33092  0.88808  Biso   1.000  C
  N17      1.0000 0.71864  0.21978  0.84823  Biso   1.000  N
  O7       1.0000 0.68973  0.05112  0.69771  Biso   1.000  O
  C27      1.0000 0.03315  0.01264  0.37445  Biso   1.000  C
  C28      1.0000 0.83655  0.92650  0.29661  Biso   1.000  C
  H23      1.0000 0.90956  0.78996  0.35111  Biso   1.000  H
  N18      1.0000 0.76204  0.89720  0.17200  Biso   1.000  N
  O8       1.0000 0.73970  0.75921  0.99911  Biso   1.000  O
  O9       1.0000 0.07700  0.39562  0.09612  Biso   1.000  O
  N19      1.0000 0.87281  0.36240  0.00639  Biso   1.000  N
  H24      1.0000 0.73182  0.38930  0.87796  Biso   1.000  H
  C29      1.0000 0.62072  0.19543  0.88018  Biso   1.000  C
  N20      1.0000 0.91364  0.03270  0.34055  Biso   1.000  N
  O10      1.0000 0.11925  0.08571  0.42033  Biso   1.000  O
  H25      1.0000 0.78898  0.92561  0.34560  Biso   1.000  H
  C30      1.0000 0.65438  0.94384  0.12408  Biso   1.000  C
  C31      1.0000 0.84953  0.38666  0.11502  Biso   1.000  C
  N21      1.0000 0.65189  0.15810  0.98536  Biso   1.000  N
  H26      1.0000 0.56403  0.13671  0.81388  Biso   1.000  H
  H27      1.0000 0.58176  0.26310  0.89359  Biso   1.000  H
  C32      1.0000 0.87950  0.14122  0.36167  Biso   1.000  C
  N22      1.0000 0.67142  0.04414  0.09550  Biso   1.000  N
  H28      1.0000 0.60180  0.88678  0.05299  Biso   1.000  H
  H29      1.0000 0.61531  0.96019  0.18132  Biso   1.000  H
  N23      1.0000 0.81740  0.28719  0.14041  Biso   1.000  N
  H30      1.0000 0.91970  0.43005  0.18035  Biso   1.000  H
  H31      1.0000 0.78582  0.43359  0.11023  Biso   1.000  H
  C33      1.0000 0.69733  0.23532  0.10331  Biso   1.000  C
  C34      1.0000 0.63968  0.04766  0.98207  Biso   1.000  C
  N24      1.0000 0.83369  0.17548  0.25570  Biso   1.000  N
  H32      1.0000 0.88540  0.18709  0.43649  Biso   1.000  H
  C35      1.0000 0.70861  0.15629  0.18008  Biso   1.000  C
  C36      1.0000 0.89575  0.25512  0.23244  Biso   1.000  C
  H33      1.0000 0.64389  0.29180  0.11662  Biso   1.000  H
  O11      1.0000 0.59751  0.96706  0.89234  Biso   1.000  O
  H34      1.0000 0.65797  0.17409  0.22747  Biso   1.000  H
  O12      1.0000 0.00078  0.29138  0.28348  Biso   1.000  O
