data_image0
_cell_length_a       11.193
_cell_length_b       21.893
_cell_length_c       32.961
_cell_angle_alpha    90
_cell_angle_beta     92.04
_cell_angle_gamma    90

_symmetry_space_group_name_H-M    "P 1"
_symmetry_int_tables_number       1

loop_
  _symmetry_equiv_pos_as_xyz
  'x, y, z'

loop_
  _atom_site_label
  _atom_site_occupancy
  _atom_site_fract_x
  _atom_site_fract_y
  _atom_site_fract_z
  _atom_site_thermal_displace_type
  _atom_site_B_iso_or_equiv
  _atom_site_type_symbol
  C1       1.0000 0.35740  0.53638  0.48616  Biso   1.000  C
  C2       1.0000 0.24332  0.52679  0.49818  Biso   1.000  C
  C3       1.0000 0.41618  0.59092  0.49629  Biso   1.000  C
  H1       1.0000 0.39586  0.50669  0.47119  Biso   1.000  H
  O1       1.0000 0.18648  0.47010  0.49283  Biso   1.000  O
  C4       1.0000 0.17990  0.57041  0.51961  Biso   1.000  C
  C5       1.0000 0.35736  0.63440  0.51815  Biso   1.000  C
  H2       1.0000 0.49397  0.59768  0.48840  Biso   1.000  H
  C6       1.0000 0.18270  0.44398  0.45513  Biso   1.000  C
  C7       1.0000 0.24017  0.62422  0.52948  Biso   1.000  C
  H3       1.0000 0.10142  0.56379  0.52690  Biso   1.000  H
  C8       1.0000 0.40771  0.69410  0.53400  Biso   1.000  C
  C9       1.0000 0.17499  0.38040  0.45483  Biso   1.000  C
  N1       1.0000 0.18443  0.47919  0.42304  Biso   1.000  N
  C10      1.0000 0.18831  0.67661  0.55458  Biso   1.000  C
  C11      1.0000 0.32331  0.74371  0.51806  Biso   1.000  C
  C12      1.0000 0.39424  0.69232  0.58017  Biso   1.000  C
  H4       1.0000 0.49045  0.70082  0.52641  Biso   1.000  H
  C13      1.0000 0.16135  0.35198  0.41846  Biso   1.000  C
  H5       1.0000 0.17912  0.35820  0.47890  Biso   1.000  H
  C14      1.0000 0.17315  0.45074  0.38619  Biso   1.000  C
  C15      1.0000 0.20532  0.73398  0.52935  Biso   1.000  C
  C16      1.0000 0.27601  0.68241  0.59095  Biso   1.000  C
  H6       1.0000 0.10538  0.66980  0.56211  Biso   1.000  H
  C17      1.0000 0.35169  0.79409  0.49557  Biso   1.000  C
  C18      1.0000 0.48477  0.69739  0.60941  Biso   1.000  C
  C19      1.0000 0.15828  0.38688  0.38233  Biso   1.000  C
  H7       1.0000 0.15381  0.30969  0.41730  Biso   1.000  H
  N2       1.0000 0.17652  0.48838  0.35352  Biso   1.000  N
  C20      1.0000 0.11653  0.77431  0.51764  Biso   1.000  C
  C21      1.0000 0.24807  0.67780  0.63124  Biso   1.000  C
  H8       1.0000 0.43006  0.80048  0.48810  Biso   1.000  H
  C22      1.0000 0.26338  0.83538  0.48412  Biso   1.000  C
  C23      1.0000 0.45564  0.69209  0.65024  Biso   1.000  C
  H9       1.0000 0.56326  0.70411  0.60218  Biso   1.000  H
  C24      1.0000 0.14452  0.36249  0.34311  Biso   1.000  C
  C25      1.0000 0.16536  0.46229  0.31782  Biso   1.000  C
  C26      1.0000 0.14749  0.82510  0.49505  Biso   1.000  C
  H10      1.0000 0.03775  0.76778  0.52459  Biso   1.000  H
  H11      1.0000 0.16986  0.67090  0.63861  Biso   1.000  H
  C27      1.0000 0.34123  0.68369  0.66090  Biso   1.000  C
  H12      1.0000 0.28200  0.86991  0.46909  Biso   1.000  H
  H13      1.0000 0.51599  0.69438  0.67031  Biso   1.000  H
  C28      1.0000 0.14712  0.39958  0.31081  Biso   1.000  C
  H14      1.0000 0.13351  0.32070  0.33949  Biso   1.000  H
  O2       1.0000 0.16609  0.49778  0.28388  Biso   1.000  O
  O3       1.0000 0.05632  0.86809  0.48874  Biso   1.000  O
  H15      1.0000 0.32382  0.68168  0.68819  Biso   1.000  H
  H16      1.0000 0.13713  0.38442  0.28461  Biso   1.000  H
  C29      1.0000 0.23491  0.55182  0.28327  Biso   1.000  C
  C30      1.0000 0.04319  0.90088  0.45376  Biso   1.000  C
  C31      1.0000 0.18048  0.60211  0.26515  Biso   1.000  C
  C32      1.0000 0.35280  0.55200  0.29563  Biso   1.000  C
  N3       1.0000 0.09267  0.88357  0.42040  Biso   1.000  N
  C33      1.0000 0.97325  0.95419  0.45813  Biso   1.000  C
  H17      1.0000 0.09923  0.60179  0.25801  Biso   1.000  H
  C34      1.0000 0.25013  0.65299  0.25795  Biso   1.000  C
  C35      1.0000 0.42274  0.60380  0.28871  Biso   1.000  C
  H18      1.0000 0.38640  0.51788  0.30850  Biso   1.000  H
  C36      1.0000 0.07915  0.92176  0.38770  Biso   1.000  C
  C37      1.0000 0.96467  0.99269  0.42662  Biso   1.000  C
  H19      1.0000 0.93439  0.96209  0.48209  Biso   1.000  H
  C38      1.0000 0.37122  0.65331  0.26940  Biso   1.000  C
  C39      1.0000 0.21105  0.70872  0.23288  Biso   1.000  C
  H20      1.0000 0.50295  0.60471  0.29708  Biso   1.000  H
  N4       1.0000 0.12877  0.90134  0.35310  Biso   1.000  N
  C40      1.0000 0.01844  0.97789  0.38986  Biso   1.000  C
  H21      1.0000 0.92329  0.02928  0.42899  Biso   1.000  H
  C41      1.0000 0.43768  0.71004  0.25392  Biso   1.000  C
  C42      1.0000 0.29398  0.70630  0.19651  Biso   1.000  C
  H22      1.0000 0.12596  0.70840  0.22489  Biso   1.000  H
  C43      1.0000 0.24920  0.76582  0.25680  Biso   1.000  C
  C44      1.0000 0.12109  0.93788  0.32164  Biso   1.000  C
  C45      1.0000 0.01633  0.01580  0.35519  Biso   1.000  C
  C46      1.0000 0.41400  0.70813  0.20783  Biso   1.000  C
  C47      1.0000 0.37180  0.76618  0.26806  Biso   1.000  C
  H23      1.0000 0.52293  0.71032  0.26181  Biso   1.000  H
  C48      1.0000 0.25765  0.70159  0.15589  Biso   1.000  C
  C49      1.0000 0.17838  0.81620  0.26472  Biso   1.000  C
  O4       1.0000 0.16377  0.91988  0.28558  Biso   1.000  O
  C50      1.0000 0.06797  0.99639  0.32116  Biso   1.000  C
  H24      1.0000 0.97967  0.05390  0.35580  Biso   1.000  H
  C51      1.0000 0.49995  0.70689  0.17893  Biso   1.000  C
  C52      1.0000 0.42150  0.81579  0.28792  Biso   1.000  C
  C53      1.0000 0.34369  0.69849  0.12696  Biso   1.000  C
  H25      1.0000 0.17690  0.70050  0.14830  Biso   1.000  H
  C54      1.0000 0.23074  0.86539  0.28354  Biso   1.000  C
  H26      1.0000 0.09738  0.81638  0.25741  Biso   1.000  H
  H27      1.0000 0.06832  0.02078  0.29809  Biso   1.000  H
  H28      1.0000 0.58086  0.70931  0.18631  Biso   1.000  H
  C55      1.0000 0.46207  0.70210  0.13807  Biso   1.000  C
  H29      1.0000 0.50171  0.81551  0.29630  Biso   1.000  H
  C56      1.0000 0.35036  0.86672  0.29538  Biso   1.000  C
  H30      1.0000 0.32091  0.69392  0.09970  Biso   1.000  H
  H31      1.0000 0.51877  0.70141  0.11809  Biso   1.000  H
  H32      1.0000 0.38305  0.90111  0.30810  Biso   1.000  H
  C57      1.0000 0.64236  0.46362  0.51384  Biso   1.000  C
  C58      1.0000 0.58358  0.40908  0.50370  Biso   1.000  C
  C59      1.0000 0.75653  0.47321  0.50182  Biso   1.000  C
  H33      1.0000 0.60390  0.49331  0.52881  Biso   1.000  H
  C60      1.0000 0.64240  0.36560  0.48184  Biso   1.000  C
  H34      1.0000 0.50579  0.40232  0.51160  Biso   1.000  H
  C61      1.0000 0.81986  0.42959  0.48039  Biso   1.000  C
  O5       1.0000 0.81328  0.52990  0.50716  Biso   1.000  O
  C62      1.0000 0.59213  0.30590  0.46600  Biso   1.000  C
  C63      1.0000 0.75959  0.37578  0.47052  Biso   1.000  C
  H35      1.0000 0.89843  0.43621  0.47310  Biso   1.000  H
  C64      1.0000 0.81706  0.55602  0.54487  Biso   1.000  C
  C65      1.0000 0.60552  0.30768  0.41982  Biso   1.000  C
  C66      1.0000 0.67645  0.25629  0.48194  Biso   1.000  C
  H36      1.0000 0.50931  0.29918  0.47359  Biso   1.000  H
  C67      1.0000 0.81145  0.32339  0.44541  Biso   1.000  C
  N5       1.0000 0.81533  0.52081  0.57696  Biso   1.000  N
  C68      1.0000 0.82477  0.61960  0.54517  Biso   1.000  C
  C69      1.0000 0.51499  0.30261  0.39059  Biso   1.000  C
  C70      1.0000 0.72384  0.31759  0.40905  Biso   1.000  C
  C71      1.0000 0.79453  0.26602  0.47064  Biso   1.000  C
  C72      1.0000 0.64807  0.20591  0.50443  Biso   1.000  C
  H37      1.0000 0.89438  0.33020  0.43789  Biso   1.000  H
  C73      1.0000 0.82669  0.54926  0.61381  Biso   1.000  C
  H38      1.0000 0.82064  0.64180  0.52110  Biso   1.000  H
  C74      1.0000 0.83850  0.64802  0.58154  Biso   1.000  C
  C75      1.0000 0.54412  0.30791  0.34976  Biso   1.000  C
  H39      1.0000 0.43650  0.29589  0.39781  Biso   1.000  H
  C76      1.0000 0.75169  0.32220  0.36876  Biso   1.000  C
  C77      1.0000 0.88332  0.22569  0.48236  Biso   1.000  C
  H40      1.0000 0.56970  0.19952  0.51190  Biso   1.000  H
  C78      1.0000 0.73638  0.16462  0.51588  Biso   1.000  C
  N6       1.0000 0.82324  0.51162  0.64648  Biso   1.000  N
  C79      1.0000 0.84148  0.61312  0.61767  Biso   1.000  C
  H41      1.0000 0.84595  0.69031  0.58269  Biso   1.000  H
  C80      1.0000 0.65853  0.31631  0.33910  Biso   1.000  C
  H42      1.0000 0.48386  0.30562  0.32969  Biso   1.000  H
  H43      1.0000 0.82990  0.32910  0.36141  Biso   1.000  H
  C81      1.0000 0.85227  0.17490  0.50495  Biso   1.000  C
  H44      1.0000 0.96201  0.23222  0.47541  Biso   1.000  H
  H45      1.0000 0.71776  0.13009  0.53090  Biso   1.000  H
  C82      1.0000 0.83449  0.53771  0.68218  Biso   1.000  C
  C83      1.0000 0.85524  0.63751  0.65689  Biso   1.000  C
  H46      1.0000 0.67594  0.31832  0.31181  Biso   1.000  H
  O6       1.0000 0.94344  0.13191  0.51126  Biso   1.000  O
  O7       1.0000 0.83367  0.50222  0.71612  Biso   1.000  O
  C84      1.0000 0.85264  0.60042  0.68919  Biso   1.000  C
  H47      1.0000 0.86625  0.67930  0.66050  Biso   1.000  H
  C85      1.0000 0.95657  0.09912  0.54623  Biso   1.000  C
  C86      1.0000 0.76485  0.44818  0.71672  Biso   1.000  C
  H48      1.0000 0.86263  0.61558  0.71539  Biso   1.000  H
  N7       1.0000 0.90709  0.11643  0.57960  Biso   1.000  N
  C87      1.0000 0.02660  0.04581  0.54186  Biso   1.000  C
  C88      1.0000 0.81937  0.39789  0.73485  Biso   1.000  C
  C89      1.0000 0.64696  0.44800  0.70437  Biso   1.000  C
  C90      1.0000 0.92061  0.07824  0.61229  Biso   1.000  C
  C91      1.0000 0.03509  0.00731  0.57337  Biso   1.000  C
  H49      1.0000 0.06537  0.03791  0.51791  Biso   1.000  H
  H50      1.0000 0.90053  0.39821  0.74201  Biso   1.000  H
  C92      1.0000 0.74963  0.34701  0.74204  Biso   1.000  C
  C93      1.0000 0.57702  0.39620  0.71129  Biso   1.000  C
  H51      1.0000 0.61336  0.48212  0.69150  Biso   1.000  H
  N8       1.0000 0.87108  0.09866  0.64690  Biso   1.000  N
  C94      1.0000 0.98132  0.02211  0.61014  Biso   1.000  C
  H52      1.0000 0.07647  0.97072  0.57101  Biso   1.000  H
  C95      1.0000 0.78871  0.29128  0.76712  Biso   1.000  C
  C96      1.0000 0.62854  0.34669  0.73060  Biso   1.000  C
  H53      1.0000 0.49681  0.39529  0.70291  Biso   1.000  H
  C97      1.0000 0.87867  0.06212  0.67835  Biso   1.000  C
  C98      1.0000 0.98343  0.98420  0.64481  Biso   1.000  C
  C99      1.0000 0.75056  0.23418  0.74320  Biso   1.000  C
  C100     1.0000 0.70587  0.29370  0.80349  Biso   1.000  C
  H54      1.0000 0.87380  0.29160  0.77510  Biso   1.000  H
  C101     1.0000 0.56217  0.28996  0.74608  Biso   1.000  C
  O8       1.0000 0.83608  0.08012  0.71442  Biso   1.000  O
  C102     1.0000 0.93188  0.00361  0.67884  Biso   1.000  C
  H55      1.0000 0.02018  0.94610  0.64420  Biso   1.000  H
  C103     1.0000 0.82147  0.18380  0.73527  Biso   1.000  C
  C104     1.0000 0.62796  0.23382  0.73193  Biso   1.000  C
  C105     1.0000 0.58585  0.29187  0.79216  Biso   1.000  C
  C106     1.0000 0.74211  0.29841  0.84411  Biso   1.000  C
  H56      1.0000 0.47683  0.28968  0.73819  Biso   1.000  H
  C107     1.0000 0.76902  0.13461  0.71645  Biso   1.000  C
  H57      1.0000 0.93144  0.97922  0.70191  Biso   1.000  H
  H58      1.0000 0.90247  0.18362  0.74259  Biso   1.000  H
  C108     1.0000 0.57826  0.18421  0.71208  Biso   1.000  C
  C109     1.0000 0.49981  0.29311  0.82107  Biso   1.000  C
  C110     1.0000 0.65607  0.30151  0.87304  Biso   1.000  C
  H59      1.0000 0.82295  0.29950  0.85170  Biso   1.000  H
  C111     1.0000 0.64940  0.13328  0.70461  Biso   1.000  C
  H60      1.0000 0.49805  0.18449  0.70370  Biso   1.000  H
  H61      1.0000 0.41890  0.29069  0.81369  Biso   1.000  H
  C112     1.0000 0.53769  0.29790  0.86193  Biso   1.000  C
  H62      1.0000 0.67894  0.30608  0.90030  Biso   1.000  H
  H63      1.0000 0.61671  0.09889  0.69189  Biso   1.000  H
  H64      1.0000 0.48099  0.29859  0.88190  Biso   1.000  H
  C113     1.0000 0.15623  0.19851  0.37304  Biso   1.000  C
  C114     1.0000 0.24218  0.20162  0.34411  Biso   1.000  C
  C115     1.0000 0.03785  0.20212  0.36193  Biso   1.000  C
  H65      1.0000 0.17901  0.19390  0.40030  Biso   1.000  H
  C116     1.0000 0.20594  0.20632  0.30349  Biso   1.000  C
  H66      1.0000 0.32303  0.20052  0.35170  Biso   1.000  H
  C117     1.0000 0.99997  0.20692  0.32107  Biso   1.000  C
  H67      1.0000 0.98116  0.20139  0.38191  Biso   1.000  H
  C118     1.0000 0.28888  0.20870  0.26712  Biso   1.000  C
  C119     1.0000 0.08593  0.20815  0.29217  Biso   1.000  C
  H68      1.0000 0.91906  0.20929  0.31369  Biso   1.000  H
  C120     1.0000 0.25063  0.26579  0.24320  Biso   1.000  C
  C121     1.0000 0.24971  0.15302  0.24205  Biso   1.000  C
  H69      1.0000 0.37396  0.20842  0.27511  Biso   1.000  H
  C122     1.0000 0.06225  0.21007  0.24608  Biso   1.000  C
  C123     1.0000 0.12804  0.26616  0.23194  Biso   1.000  C
  C124     1.0000 0.32155  0.31622  0.23528  Biso   1.000  C
  C125     1.0000 0.31945  0.10209  0.23485  Biso   1.000  C
  C126     1.0000 0.12861  0.15329  0.23060  Biso   1.000  C
  H70      1.0000 0.97699  0.21030  0.23819  Biso   1.000  H
  C127     1.0000 0.07834  0.31581  0.21208  Biso   1.000  C
  C128     1.0000 0.26918  0.36541  0.21645  Biso   1.000  C
  H71      1.0000 0.40254  0.31640  0.24259  Biso   1.000  H
  C129     1.0000 0.26492  0.05184  0.21673  Biso   1.000  C
  H72      1.0000 0.40060  0.10181  0.24198  Biso   1.000  H
  C130     1.0000 0.07718  0.10378  0.21129  Biso   1.000  C
  C131     1.0000 0.14956  0.36669  0.20461  Biso   1.000  C
  H73      1.0000 0.99812  0.31549  0.20370  Biso   1.000  H
  O9       1.0000 0.33615  0.41986  0.21442  Biso   1.000  O
  C132     1.0000 0.14704  0.05198  0.20437  Biso   1.000  C
  O10      1.0000 0.33374  0.99776  0.21612  Biso   1.000  O
  H74      1.0000 0.99697  0.10469  0.20291  Biso   1.000  H
  H75      1.0000 0.11687  0.40109  0.19189  Biso   1.000  H
  C133     1.0000 0.37874  0.43790  0.17835  Biso   1.000  C
  H76      1.0000 0.11344  0.01791  0.19150  Biso   1.000  H
  C134     1.0000 0.33456  0.96232  0.18218  Biso   1.000  C
  N9       1.0000 0.37116  0.40132  0.14690  Biso   1.000  N
  C135     1.0000 0.43195  0.49641  0.17884  Biso   1.000  C
  N10      1.0000 0.32340  0.98835  0.14648  Biso   1.000  N
  C136     1.0000 0.35272  0.89960  0.18919  Biso   1.000  C
  C137     1.0000 0.42078  0.42173  0.11229  Biso   1.000  C
  H77      1.0000 0.43151  0.52081  0.20191  Biso   1.000  H
  C138     1.0000 0.48360  0.51578  0.14481  Biso   1.000  C
  C139     1.0000 0.32677  0.95076  0.11381  Biso   1.000  C
  C140     1.0000 0.35532  0.86247  0.15689  Biso   1.000  C
  H78      1.0000 0.36279  0.88439  0.21539  Biso   1.000  H
  N11      1.0000 0.40716  0.38355  0.07960  Biso   1.000  N
  C141     1.0000 0.48148  0.47792  0.11014  Biso   1.000  C
  H79      1.0000 0.52025  0.55392  0.14420  Biso   1.000  H
  N12      1.0000 0.31549  0.97917  0.07696  Biso   1.000  N
  C142     1.0000 0.34156  0.88686  0.11767  Biso   1.000  C
  H80      1.0000 0.36633  0.82072  0.16050  Biso   1.000  H
  C143     1.0000 0.45665  0.40090  0.04624  Biso   1.000  C
  C144     1.0000 0.53516  0.49271  0.07338  Biso   1.000  C
  C145     1.0000 0.31722  0.94400  0.04487  Biso   1.000  C
  C146     1.0000 0.33858  0.85201  0.08154  Biso   1.000  C
  O11      1.0000 0.44360  0.36811  0.01126  Biso   1.000  O
  C147     1.0000 0.52668  0.45421  0.04186  Biso   1.000  C
  H81      1.0000 0.57655  0.52930  0.07101  Biso   1.000  H
  O12      1.0000 0.31336  0.97008  0.00716  Biso   1.000  O
  C148     1.0000 0.32485  0.88042  0.04517  Biso   1.000  C
  H82      1.0000 0.34611  0.80971  0.08270  Biso   1.000  H
  C149     1.0000 0.35244  0.32508  0.00495  Biso   1.000  C
  H83      1.0000 0.56544  0.46211  0.01791  Biso   1.000  H
  C150     1.0000 0.25660  0.02681  0.00182  Biso   1.000  C
  H84      1.0000 0.32080  0.85822  0.02110  Biso   1.000  H
  C151     1.0000 0.23645  0.33540  0.01588  Biso   1.000  C
  C152     1.0000 0.38312  0.27429  0.98236  Biso   1.000  C
  C153     1.0000 0.14252  0.03640  0.01384  Biso   1.000  C
  C154     1.0000 0.31975  0.07039  0.98039  Biso   1.000  C
  C155     1.0000 0.14824  0.29411  0.00443  Biso   1.000  C
  H85      1.0000 0.21793  0.36989  0.03090  Biso   1.000  H
  H86      1.0000 0.46182  0.26780  0.97541  Biso   1.000  H
  C156     1.0000 0.29434  0.23400  0.97064  Biso   1.000  C
  C157     1.0000 0.08365  0.09090  0.00370  Biso   1.000  C
  H87      1.0000 0.10398  0.00671  0.02881  Biso   1.000  H
  C158     1.0000 0.25940  0.12419  0.97052  Biso   1.000  C
  H88      1.0000 0.39823  0.06381  0.97310  Biso   1.000  H
  H89      1.0000 0.06977  0.30051  0.01190  Biso   1.000  H
  C159     1.0000 0.17634  0.24369  0.98194  Biso   1.000  C
  C160     1.0000 0.31135  0.17659  0.94542  Biso   1.000  C
  H90      1.0000 0.00586  0.09770  0.01160  Biso   1.000  H
  C161     1.0000 0.14220  0.13438  0.98185  Biso   1.000  C
  C162     1.0000 0.09194  0.19408  0.96600  Biso   1.000  C
  C163     1.0000 0.22365  0.18239  0.90905  Biso   1.000  C
  H91      1.0000 0.39428  0.16978  0.93789  Biso   1.000  H
  C164     1.0000 0.10533  0.19230  0.91982  Biso   1.000  C
  H92      1.0000 0.00911  0.20079  0.97359  Biso   1.000  H
  C165     1.0000 0.25159  0.17782  0.86876  Biso   1.000  C
  C166     1.0000 0.01489  0.19741  0.89059  Biso   1.000  C
  H93      1.0000 0.32980  0.17092  0.86142  Biso   1.000  H
  C167     1.0000 0.15833  0.18371  0.83910  Biso   1.000  C
  H94      1.0000 0.93640  0.20408  0.89781  Biso   1.000  H
  C168     1.0000 0.04393  0.19212  0.84976  Biso   1.000  C
  H95      1.0000 0.17575  0.18170  0.81181  Biso   1.000  H
  H96      1.0000 0.98367  0.19440  0.82969  Biso   1.000  H
  C169     1.0000 0.84353  0.80149  0.62696  Biso   1.000  C
  C170     1.0000 0.96191  0.79788  0.63807  Biso   1.000  C
  H97      1.0000 0.82075  0.80610  0.59969  Biso   1.000  H
  C171     1.0000 0.75758  0.79838  0.65589  Biso   1.000  C
  C172     1.0000 0.99987  0.79308  0.67893  Biso   1.000  C
  H98      1.0000 0.01869  0.79861  0.61809  Biso   1.000  H
  C173     1.0000 0.79382  0.79368  0.69651  Biso   1.000  C
  H99      1.0000 0.67673  0.79948  0.64830  Biso   1.000  H
  C174     1.0000 0.91383  0.79185  0.70783  Biso   1.000  C
  H100     1.0000 0.08070  0.79071  0.68631  Biso   1.000  H
  C175     1.0000 0.71097  0.79130  0.73288  Biso   1.000  C
  C176     1.0000 0.93751  0.78993  0.75391  Biso   1.000  C
  C177     1.0000 0.75005  0.84698  0.75795  Biso   1.000  C
  H101     1.0000 0.62580  0.79158  0.72489  Biso   1.000  H
  C178     1.0000 0.74913  0.73421  0.75680  Biso   1.000  C
  C179     1.0000 0.87115  0.84671  0.76940  Biso   1.000  C
  C180     1.0000 0.87172  0.73384  0.76806  Biso   1.000  C
  H102     1.0000 0.02286  0.78970  0.76181  Biso   1.000  H
  C181     1.0000 0.68031  0.89791  0.76515  Biso   1.000  C
  C182     1.0000 0.67822  0.68378  0.76472  Biso   1.000  C
  C183     1.0000 0.92258  0.89622  0.78870  Biso   1.000  C
  C184     1.0000 0.92142  0.68419  0.78791  Biso   1.000  C
  C185     1.0000 0.73484  0.94816  0.78327  Biso   1.000  C
  H103     1.0000 0.59916  0.89819  0.75801  Biso   1.000  H
  C186     1.0000 0.73067  0.63459  0.78354  Biso   1.000  C
  H104     1.0000 0.59722  0.68360  0.75740  Biso   1.000  H
  C187     1.0000 0.85272  0.94802  0.79563  Biso   1.000  C
  H105     1.0000 0.00279  0.89531  0.79708  Biso   1.000  H
  C188     1.0000 0.85020  0.63331  0.79538  Biso   1.000  C
  H106     1.0000 0.00164  0.68451  0.79629  Biso   1.000  H
  O13      1.0000 0.66602  0.00224  0.78388  Biso   1.000  O
  O14      1.0000 0.66361  0.58014  0.78558  Biso   1.000  O
  H107     1.0000 0.88632  0.98209  0.80850  Biso   1.000  H
  H108     1.0000 0.88289  0.59891  0.80810  Biso   1.000  H
  C189     1.0000 0.66520  0.03768  0.81782  Biso   1.000  C
  C190     1.0000 0.62102  0.56210  0.82164  Biso   1.000  C
  N13      1.0000 0.67645  0.01165  0.85352  Biso   1.000  N
  C191     1.0000 0.64704  0.10040  0.81080  Biso   1.000  C
  N14      1.0000 0.62860  0.59868  0.85309  Biso   1.000  N
  C192     1.0000 0.56781  0.50359  0.82116  Biso   1.000  C
  C193     1.0000 0.67299  0.04924  0.88618  Biso   1.000  C
  C194     1.0000 0.64444  0.13753  0.84311  Biso   1.000  C
  H109     1.0000 0.63706  0.11561  0.78461  Biso   1.000  H
  C195     1.0000 0.57898  0.57827  0.88770  Biso   1.000  C
  H110     1.0000 0.56825  0.47919  0.79808  Biso   1.000  H
  C196     1.0000 0.51625  0.48422  0.85519  Biso   1.000  C
  N15      1.0000 0.68427  0.02083  0.92304  Biso   1.000  N
  C197     1.0000 0.65820  0.11314  0.88233  Biso   1.000  C
  H111     1.0000 0.63343  0.17928  0.83949  Biso   1.000  H
  N16      1.0000 0.59260  0.61645  0.92040  Biso   1.000  N
  C198     1.0000 0.51828  0.52208  0.88986  Biso   1.000  C
  H112     1.0000 0.47951  0.44608  0.85580  Biso   1.000  H
  C199     1.0000 0.68263  0.05600  0.95513  Biso   1.000  C
  C200     1.0000 0.66118  0.14799  0.91845  Biso   1.000  C
  C201     1.0000 0.54311  0.59910  0.95376  Biso   1.000  C
  C202     1.0000 0.46460  0.50729  0.92662  Biso   1.000  C
  O15      1.0000 0.68641  0.02992  0.99286  Biso   1.000  O
  C203     1.0000 0.67491  0.11958  0.95482  Biso   1.000  C
  H113     1.0000 0.65374  0.19029  0.91730  Biso   1.000  H
  O16      1.0000 0.55616  0.63189  0.98873  Biso   1.000  O
  C204     1.0000 0.47308  0.54579  0.95813  Biso   1.000  C
  H114     1.0000 0.42321  0.47070  0.92899  Biso   1.000  H
  C205     1.0000 0.74316  0.97319  0.99818  Biso   1.000  C
  H115     1.0000 0.67896  0.14178  0.97890  Biso   1.000  H
  C206     1.0000 0.64741  0.67492  0.99505  Biso   1.000  C
  H116     1.0000 0.43432  0.53789  0.98209  Biso   1.000  H
  C207     1.0000 0.85724  0.96360  0.98615  Biso   1.000  C
  C208     1.0000 0.68001  0.92961  0.01961  Biso   1.000  C
  C209     1.0000 0.76331  0.66460  0.98412  Biso   1.000  C
  C210     1.0000 0.61664  0.72571  0.01763  Biso   1.000  C
  C211     1.0000 0.91611  0.90910  0.99629  Biso   1.000  C
  H117     1.0000 0.89578  0.99329  0.97119  Biso   1.000  H
  C212     1.0000 0.74036  0.87581  0.02947  Biso   1.000  C
  H118     1.0000 0.60153  0.93619  0.02689  Biso   1.000  H
  C213     1.0000 0.85161  0.70589  0.99556  Biso   1.000  C
  H119     1.0000 0.78192  0.63011  0.96909  Biso   1.000  H
  H120     1.0000 0.53794  0.73220  0.02459  Biso   1.000  H
  C214     1.0000 0.70542  0.76600  0.02935  Biso   1.000  C
  H121     1.0000 0.99390  0.90230  0.98840  Biso   1.000  H
  C215     1.0000 0.85756  0.86562  0.01815  Biso   1.000  C
  C216     1.0000 0.68841  0.82341  0.05458  Biso   1.000  C
  H122     1.0000 0.92999  0.69949  0.98810  Biso   1.000  H
  C217     1.0000 0.82342  0.75631  0.01806  Biso   1.000  C
  C218     1.0000 0.90782  0.80592  0.03400  Biso   1.000  C
  C219     1.0000 0.77611  0.81761  0.09095  Biso   1.000  C
  H123     1.0000 0.60557  0.83022  0.06211  Biso   1.000  H
  C220     1.0000 0.89443  0.80770  0.08017  Biso   1.000  C
  H124     1.0000 0.99065  0.79921  0.02641  Biso   1.000  H
  C221     1.0000 0.74826  0.82218  0.13123  Biso   1.000  C
  C222     1.0000 0.98496  0.80259  0.10941  Biso   1.000  C
  H125     1.0000 0.67006  0.82908  0.13861  Biso   1.000  H
  C223     1.0000 0.84143  0.81629  0.16089  Biso   1.000  C
  C224     1.0000 0.95583  0.80788  0.15024  Biso   1.000  C
  H126     1.0000 0.06345  0.79592  0.10218  Biso   1.000  H
  H127     1.0000 0.82401  0.81830  0.18819  Biso   1.000  H
  H128     1.0000 0.01609  0.80560  0.17031  Biso   1.000  H
