data_image0
_cell_length_a       11.354
_cell_length_b       17.925
_cell_length_c       30.835
_cell_angle_alpha    103.44
_cell_angle_beta     93.42
_cell_angle_gamma    103.76

_symmetry_space_group_name_H-M    "P 1"
_symmetry_int_tables_number       1

loop_
  _symmetry_equiv_pos_as_xyz
  'x, y, z'

loop_
  _atom_site_label
  _atom_site_occupancy
  _atom_site_fract_x
  _atom_site_fract_y
  _atom_site_fract_z
  _atom_site_thermal_displace_type
  _atom_site_B_iso_or_equiv
  _atom_site_type_symbol
  C1       1.0000 0.68990  0.59218  0.52537  Biso   1.000  C
  C2       1.0000 0.81521  0.60951  0.53235  Biso   1.000  C
  H1       1.0000 0.64723  0.55111  0.50121  Biso   1.000  H
  C3       1.0000 0.62552  0.63609  0.55456  Biso   1.000  C
  H2       1.0000 0.85672  0.58028  0.51270  Biso   1.000  H
  C4       1.0000 0.88077  0.67059  0.56870  Biso   1.000  C
  H3       1.0000 0.54073  0.62472  0.54959  Biso   1.000  H
  C5       1.0000 0.69009  0.69653  0.59074  Biso   1.000  C
  C6       1.0000 0.81826  0.71380  0.59759  Biso   1.000  C
  H4       1.0000 0.96550  0.68219  0.57341  Biso   1.000  H
  C7       1.0000 0.63787  0.75019  0.62564  Biso   1.000  C
  C8       1.0000 0.87480  0.78302  0.63824  Biso   1.000  C
  C9       1.0000 0.68692  0.74242  0.67083  Biso   1.000  C
  H5       1.0000 0.54854  0.73812  0.62091  Biso   1.000  H
  C10      1.0000 0.70046  0.83438  0.62333  Biso   1.000  C
  H6       1.0000 0.96406  0.79509  0.64311  Biso   1.000  H
  C11      1.0000 0.81347  0.75991  0.67805  Biso   1.000  C
  C12      1.0000 0.82840  0.85148  0.62967  Biso   1.000  C
  C13      1.0000 0.61586  0.71869  0.70311  Biso   1.000  C
  C14      1.0000 0.64228  0.89049  0.61526  Biso   1.000  C
  C15      1.0000 0.87157  0.75333  0.71705  Biso   1.000  C
  C16      1.0000 0.89716  0.92421  0.62625  Biso   1.000  C
  H7       1.0000 0.53122  0.70792  0.69871  Biso   1.000  H
  C17      1.0000 0.67588  0.71158  0.74211  Biso   1.000  C
  C18      1.0000 0.71370  0.96248  0.61147  Biso   1.000  C
  H8       1.0000 0.55757  0.88001  0.61251  Biso   1.000  H
  C19      1.0000 0.80211  0.72812  0.74900  Biso   1.000  C
  H9       1.0000 0.95652  0.76567  0.72189  Biso   1.000  H
  C20      1.0000 0.84091  0.98010  0.61644  Biso   1.000  C
  H10      1.0000 0.98201  0.93583  0.63051  Biso   1.000  H
  O1       1.0000 0.60017  0.67812  0.77040  Biso   1.000  O
  O2       1.0000 0.65051  0.01269  0.59810  Biso   1.000  O
  H11      1.0000 0.84026  0.72228  0.77510  Biso   1.000  H
  H12      1.0000 0.88721  0.02834  0.61321  Biso   1.000  H
  C21      1.0000 0.62751  0.70459  0.81585  Biso   1.000  C
  C22      1.0000 0.66964  0.09003  0.62178  Biso   1.000  C
  N1       1.0000 0.69625  0.77678  0.83359  Biso   1.000  N
  C23      1.0000 0.57470  0.65030  0.84020  Biso   1.000  C
  N2       1.0000 0.74184  0.11672  0.65981  Biso   1.000  N
  C24      1.0000 0.60549  0.13360  0.60156  Biso   1.000  C
  C25      1.0000 0.72210  0.80013  0.87924  Biso   1.000  C
  H13      1.0000 0.52525  0.60018  0.82569  Biso   1.000  H
  C26      1.0000 0.59890  0.67417  0.88589  Biso   1.000  C
  C27      1.0000 0.75599  0.19512  0.68178  Biso   1.000  C
  H14      1.0000 0.55521  0.11036  0.57451  Biso   1.000  H
  C28      1.0000 0.61955  0.21080  0.62302  Biso   1.000  C
  N3       1.0000 0.79718  0.87411  0.89560  Biso   1.000  N
  C29      1.0000 0.67438  0.74989  0.90662  Biso   1.000  C
  H15      1.0000 0.56530  0.64031  0.90319  Biso   1.000  H
  N4       1.0000 0.83290  0.22185  0.72105  Biso   1.000  N
  C30      1.0000 0.69621  0.24443  0.66434  Biso   1.000  C
  H16      1.0000 0.57895  0.24174  0.61059  Biso   1.000  H
  C31      1.0000 0.82490  0.89788  0.93927  Biso   1.000  C
  C32      1.0000 0.70477  0.78049  0.95372  Biso   1.000  C
  C33      1.0000 0.84653  0.29602  0.74255  Biso   1.000  C
  C34      1.0000 0.71609  0.32393  0.68927  Biso   1.000  C
  O3       1.0000 0.90164  0.97048  0.95869  Biso   1.000  O
  C35      1.0000 0.78219  0.85460  0.97061  Biso   1.000  C
  H17      1.0000 0.67238  0.75038  0.97310  Biso   1.000  H
  O4       1.0000 0.91904  0.32840  0.78236  Biso   1.000  O
  C36      1.0000 0.79128  0.35030  0.72851  Biso   1.000  C
  H18      1.0000 0.67790  0.35803  0.67889  Biso   1.000  H
  C37      1.0000 0.96717  0.01531  0.93205  Biso   1.000  C
  H19      1.0000 0.80560  0.87553  0.00132  Biso   1.000  H
  C38      1.0000 0.98154  0.28275  0.80154  Biso   1.000  C
  H20      1.0000 0.80588  0.40245  0.74561  Biso   1.000  H
  C39      1.0000 0.93397  0.08354  0.92936  Biso   1.000  C
  C40      1.0000 0.06844  0.99790  0.91519  Biso   1.000  C
  C41      1.0000 0.94217  0.26310  0.83997  Biso   1.000  C
  C42      1.0000 0.09034  0.27190  0.78713  Biso   1.000  C
  H21      1.0000 0.86168  0.09273  0.93920  Biso   1.000  H
  C43      1.0000 0.01207  0.13814  0.91142  Biso   1.000  C
  H22      1.0000 0.08653  0.95039  0.91629  Biso   1.000  H
  C44      1.0000 0.14504  0.05152  0.89620  Biso   1.000  C
  H23      1.0000 0.86785  0.27003  0.84901  Biso   1.000  H
  C45      1.0000 0.01568  0.23290  0.86466  Biso   1.000  C
  C46      1.0000 0.16167  0.23833  0.81108  Biso   1.000  C
  H24      1.0000 0.11588  0.28690  0.76160  Biso   1.000  H
  C47      1.0000 0.99793  0.22021  0.91115  Biso   1.000  C
  C48      1.0000 0.11840  0.12324  0.89553  Biso   1.000  C
  H25      1.0000 0.21335  0.03953  0.88411  Biso   1.000  H
  C49      1.0000 0.12574  0.21980  0.85022  Biso   1.000  C
  H26      1.0000 0.23317  0.22835  0.80090  Biso   1.000  H
  H27      1.0000 0.92121  0.22942  0.92130  Biso   1.000  H
  C50      1.0000 0.11046  0.27581  0.94142  Biso   1.000  C
  C51      1.0000 0.19996  0.19481  0.88404  Biso   1.000  C
  C52      1.0000 0.22035  0.26253  0.92634  Biso   1.000  C
  C53      1.0000 0.11254  0.33510  0.97992  Biso   1.000  C
  H28      1.0000 0.27646  0.18525  0.87390  Biso   1.000  H
  C54      1.0000 0.33070  0.31022  0.94898  Biso   1.000  C
  H29      1.0000 0.04007  0.34280  0.99040  Biso   1.000  H
  C55      1.0000 0.22430  0.38237  0.00239  Biso   1.000  C
  H30      1.0000 0.40366  0.30232  0.93920  Biso   1.000  H
  C56      1.0000 0.33107  0.37061  0.98684  Biso   1.000  C
  H31      1.0000 0.22709  0.42236  0.02809  Biso   1.000  H
  H32      1.0000 0.40534  0.40358  0.00192  Biso   1.000  H
  C57      1.0000 0.31008  0.40778  0.47461  Biso   1.000  C
  C58      1.0000 0.37447  0.36387  0.44541  Biso   1.000  C
  C59      1.0000 0.18478  0.39047  0.46765  Biso   1.000  C
  H33      1.0000 0.35277  0.44887  0.49879  Biso   1.000  H
  C60      1.0000 0.30992  0.30351  0.40927  Biso   1.000  C
  H34      1.0000 0.45927  0.37530  0.45039  Biso   1.000  H
  C61      1.0000 0.11923  0.32938  0.43131  Biso   1.000  C
  H35      1.0000 0.14328  0.41970  0.48731  Biso   1.000  H
  C62      1.0000 0.36213  0.24979  0.37436  Biso   1.000  C
  C63      1.0000 0.18173  0.28618  0.40242  Biso   1.000  C
  H36      1.0000 0.03449  0.31779  0.42660  Biso   1.000  H
  C64      1.0000 0.31308  0.25760  0.32915  Biso   1.000  C
  H37      1.0000 0.45147  0.26191  0.37910  Biso   1.000  H
  C65      1.0000 0.29953  0.16559  0.37668  Biso   1.000  C
  C66      1.0000 0.12522  0.21701  0.36177  Biso   1.000  C
  C67      1.0000 0.38412  0.28128  0.29686  Biso   1.000  C
  C68      1.0000 0.18654  0.24012  0.32196  Biso   1.000  C
  C69      1.0000 0.17159  0.14848  0.37030  Biso   1.000  C
  C70      1.0000 0.35772  0.10949  0.38475  Biso   1.000  C
  H38      1.0000 0.03594  0.20489  0.35690  Biso   1.000  H
  C71      1.0000 0.32411  0.28839  0.25790  Biso   1.000  C
  H39      1.0000 0.46879  0.29212  0.30130  Biso   1.000  H
  C72      1.0000 0.12844  0.24671  0.28296  Biso   1.000  C
  C73      1.0000 0.10285  0.07583  0.37376  Biso   1.000  C
  C74      1.0000 0.28630  0.03750  0.38854  Biso   1.000  C
  H40      1.0000 0.44243  0.11997  0.38750  Biso   1.000  H
  O5       1.0000 0.39985  0.32191  0.22961  Biso   1.000  O
  C75      1.0000 0.19791  0.27191  0.25101  Biso   1.000  C
  H41      1.0000 0.04346  0.23429  0.27809  Biso   1.000  H
  C76      1.0000 0.15909  0.01987  0.38357  Biso   1.000  C
  H42      1.0000 0.01800  0.06420  0.36949  Biso   1.000  H
  O6       1.0000 0.34949  0.98728  0.40191  Biso   1.000  O
  C77      1.0000 0.37247  0.29537  0.18413  Biso   1.000  C
  H43      1.0000 0.15974  0.27770  0.22491  Biso   1.000  H
  H44      1.0000 0.11281  0.97170  0.38679  Biso   1.000  H
  C78      1.0000 0.33035  0.90995  0.37823  Biso   1.000  C
  N5       1.0000 0.30365  0.22318  0.16639  Biso   1.000  N
  C79      1.0000 0.42530  0.34968  0.15980  Biso   1.000  C
  N6       1.0000 0.25814  0.88324  0.34017  Biso   1.000  N
  C80      1.0000 0.39451  0.86638  0.39845  Biso   1.000  C
  C81      1.0000 0.27792  0.19991  0.12077  Biso   1.000  C
  H45      1.0000 0.47474  0.39980  0.17432  Biso   1.000  H
  C82      1.0000 0.40109  0.32580  0.11412  Biso   1.000  C
  C83      1.0000 0.24399  0.80484  0.31820  Biso   1.000  C
  H46      1.0000 0.44480  0.88968  0.42549  Biso   1.000  H
  C84      1.0000 0.38045  0.78918  0.37699  Biso   1.000  C
  N7       1.0000 0.20283  0.12592  0.10441  Biso   1.000  N
  C85      1.0000 0.32562  0.25009  0.09339  Biso   1.000  C
  H47      1.0000 0.43472  0.35972  0.09682  Biso   1.000  H
  N8       1.0000 0.16709  0.77812  0.27896  Biso   1.000  N
  C86      1.0000 0.30379  0.75555  0.33567  Biso   1.000  C
  H48      1.0000 0.42107  0.75829  0.38941  Biso   1.000  H
  C87      1.0000 0.17508  0.10208  0.06070  Biso   1.000  C
  C88      1.0000 0.29522  0.21949  0.04629  Biso   1.000  C
  C89      1.0000 0.15346  0.70395  0.25746  Biso   1.000  C
  C90      1.0000 0.28392  0.67611  0.31074  Biso   1.000  C
  O7       1.0000 0.09836  0.02949  0.04132  Biso   1.000  O
  C91      1.0000 0.21780  0.14538  0.02939  Biso   1.000  C
  H49      1.0000 0.32761  0.24960  0.02691  Biso   1.000  H
  O8       1.0000 0.08097  0.67164  0.21765  Biso   1.000  O
  C92      1.0000 0.20871  0.64966  0.27147  Biso   1.000  C
  H50      1.0000 0.32211  0.64199  0.32109  Biso   1.000  H
  C93      1.0000 0.03282  0.98467  0.06796  Biso   1.000  C
  H51      1.0000 0.19442  0.12451  0.99869  Biso   1.000  H
  C94      1.0000 0.01847  0.71729  0.19847  Biso   1.000  C
  H52      1.0000 0.19414  0.59759  0.25440  Biso   1.000  H
  C95      1.0000 0.93156  0.00212  0.08479  Biso   1.000  C
  C96      1.0000 0.06604  0.91648  0.07061  Biso   1.000  C
  C97      1.0000 0.05782  0.73687  0.16001  Biso   1.000  C
  C98      1.0000 0.90966  0.72808  0.21288  Biso   1.000  C
  C99      1.0000 0.85496  0.94846  0.10380  Biso   1.000  C
  H53      1.0000 0.91346  0.04959  0.08371  Biso   1.000  H
  C100     1.0000 0.98795  0.86190  0.08859  Biso   1.000  C
  H54      1.0000 0.13833  0.90730  0.06080  Biso   1.000  H
  C101     1.0000 0.98431  0.76708  0.13535  Biso   1.000  C
  H55      1.0000 0.13217  0.73000  0.15100  Biso   1.000  H
  C102     1.0000 0.83834  0.76170  0.18893  Biso   1.000  C
  H56      1.0000 0.88412  0.71308  0.23841  Biso   1.000  H
  H57      1.0000 0.78664  0.96045  0.11590  Biso   1.000  H
  C103     1.0000 0.88162  0.87680  0.10448  Biso   1.000  C
  C104     1.0000 0.00206  0.77975  0.08882  Biso   1.000  C
  C105     1.0000 0.87426  0.78018  0.14979  Biso   1.000  C
  H58      1.0000 0.76685  0.77168  0.19911  Biso   1.000  H
  C106     1.0000 0.80004  0.80517  0.11596  Biso   1.000  C
  C107     1.0000 0.88953  0.72417  0.05859  Biso   1.000  C
  H59      1.0000 0.07879  0.77055  0.07871  Biso   1.000  H
  C108     1.0000 0.77966  0.73749  0.07364  Biso   1.000  C
  H60      1.0000 0.72356  0.81479  0.12611  Biso   1.000  H
  C109     1.0000 0.88745  0.66487  0.02009  Biso   1.000  C
  C110     1.0000 0.66929  0.68976  0.05103  Biso   1.000  C
  C111     1.0000 0.77570  0.61761  0.99761  Biso   1.000  C
  H61      1.0000 0.95993  0.65717  0.00961  Biso   1.000  H
  H62      1.0000 0.59634  0.69766  0.06080  Biso   1.000  H
  C112     1.0000 0.66893  0.62937  0.01317  Biso   1.000  C
  H63      1.0000 0.77289  0.57760  0.97188  Biso   1.000  H
  H64      1.0000 0.59465  0.59639  0.99809  Biso   1.000  H
