data_image0
_cell_length_a       13.224
_cell_length_b       13.785
_cell_length_c       23.305
_cell_angle_alpha    89.2
_cell_angle_beta     79.55
_cell_angle_gamma    76.37

_symmetry_space_group_name_H-M    "P 1"
_symmetry_int_tables_number       1

loop_
  _symmetry_equiv_pos_as_xyz
  'x, y, z'

loop_
  _atom_site_label
  _atom_site_occupancy
  _atom_site_fract_x
  _atom_site_fract_y
  _atom_site_fract_z
  _atom_site_thermal_displace_type
  _atom_site_B_iso_or_equiv
  _atom_site_type_symbol
  C1       1.0000 0.57817  0.55924  0.54191  Biso   1.000  C
  C2       1.0000 0.56933  0.47725  0.57460  Biso   1.000  C
  O1       1.0000 0.66378  0.56384  0.50074  Biso   1.000  O
  C3       1.0000 0.49332  0.64113  0.54640  Biso   1.000  C
  H1       1.0000 0.62510  0.42072  0.56849  Biso   1.000  H
  C4       1.0000 0.48023  0.47516  0.61673  Biso   1.000  C
  C5       1.0000 0.75198  0.48117  0.49131  Biso   1.000  C
  C6       1.0000 0.49281  0.73068  0.50969  Biso   1.000  C
  C7       1.0000 0.40305  0.64362  0.59032  Biso   1.000  C
  C8       1.0000 0.39839  0.55897  0.62502  Biso   1.000  C
  C9       1.0000 0.47281  0.38303  0.65112  Biso   1.000  C
  H2       1.0000 0.77622  0.46319  0.52772  Biso   1.000  H
  H3       1.0000 0.73259  0.42418  0.47630  Biso   1.000  H
  C10      1.0000 0.83836  0.50983  0.44792  Biso   1.000  C
  H4       1.0000 0.54523  0.71095  0.47442  Biso   1.000  H
  H5       1.0000 0.42422  0.75098  0.49812  Biso   1.000  H
  C11      1.0000 0.51460  0.81926  0.53671  Biso   1.000  C
  H6       1.0000 0.34740  0.70028  0.59621  Biso   1.000  H
  O2       1.0000 0.31096  0.55754  0.66684  Biso   1.000  O
  H7       1.0000 0.40204  0.37266  0.65409  Biso   1.000  H
  H8       1.0000 0.52203  0.32574  0.63013  Biso   1.000  H
  C12      1.0000 0.49696  0.38925  0.71250  Biso   1.000  C
  H9       1.0000 0.89665  0.45144  0.43888  Biso   1.000  H
  H10      1.0000 0.81157  0.52785  0.41213  Biso   1.000  H
  C13      1.0000 0.88157  0.59467  0.46612  Biso   1.000  C
  C14      1.0000 0.61191  0.82122  0.54872  Biso   1.000  C
  C15      1.0000 0.42899  0.90614  0.55251  Biso   1.000  C
  C16      1.0000 0.22619  0.63586  0.67880  Biso   1.000  C
  C17      1.0000 0.59630  0.36796  0.72232  Biso   1.000  C
  C18      1.0000 0.41003  0.41192  0.76122  Biso   1.000  C
  H11      1.0000 0.90980  0.57774  0.50109  Biso   1.000  H
  H12      1.0000 0.93654  0.60579  0.43561  Biso   1.000  H
  H13      1.0000 0.82562  0.65424  0.47333  Biso   1.000  H
  C19      1.0000 0.62910  0.90757  0.57312  Biso   1.000  C
  H14      1.0000 0.66732  0.76474  0.54060  Biso   1.000  H
  O3       1.0000 0.33574  0.90372  0.54186  Biso   1.000  O
  C20      1.0000 0.45290  0.99564  0.57430  Biso   1.000  C
  H15      1.0000 0.24905  0.69244  0.69181  Biso   1.000  H
  H16      1.0000 0.19909  0.65396  0.64322  Biso   1.000  H
  C21      1.0000 0.13995  0.61623  0.72381  Biso   1.000  C
  O4       1.0000 0.67918  0.34714  0.67160  Biso   1.000  O
  C22      1.0000 0.61547  0.37243  0.77719  Biso   1.000  C
  C23      1.0000 0.43215  0.41284  0.81692  Biso   1.000  C
  H17      1.0000 0.34055  0.42586  0.75519  Biso   1.000  H
  O5       1.0000 0.72936  0.91001  0.58429  Biso   1.000  O
  C24      1.0000 0.54914  0.99478  0.58521  Biso   1.000  C
  C25      1.0000 0.25359  0.98802  0.55832  Biso   1.000  C
  H18      1.0000 0.40017  0.05449  0.58071  Biso   1.000  H
  H19      1.0000 0.16672  0.60091  0.75969  Biso   1.000  H
  H20      1.0000 0.12004  0.55752  0.71150  Biso   1.000  H
  C26      1.0000 0.04563  0.69725  0.73590  Biso   1.000  C
  C27      1.0000 0.78388  0.30008  0.67972  Biso   1.000  C
  H21      1.0000 0.68521  0.35957  0.78252  Biso   1.000  H
  C28      1.0000 0.53521  0.39545  0.82560  Biso   1.000  C
  O6       1.0000 0.35470  0.43613  0.86603  Biso   1.000  O
  C29      1.0000 0.81404  0.82132  0.57089  Biso   1.000  C
  C30      1.0000 0.57829  0.08542  0.60581  Biso   1.000  C
  C31      1.0000 0.15360  0.96498  0.54863  Biso   1.000  C
  H22      1.0000 0.24818  0.00543  0.59922  Biso   1.000  H
  H23      1.0000 0.26721  0.04439  0.53531  Biso   1.000  H
  H24      1.0000 0.05877  0.74903  0.75860  Biso   1.000  H
  H25      1.0000 0.02744  0.72375  0.69980  Biso   1.000  H
  H26      1.0000 0.98822  0.67268  0.75742  Biso   1.000  H
  H27      1.0000 0.80983  0.34295  0.70329  Biso   1.000  H
  H28      1.0000 0.78447  0.23749  0.69923  Biso   1.000  H
  C32      1.0000 0.85317  0.28172  0.61900  Biso   1.000  C
  C33      1.0000 0.56160  0.39654  0.88580  Biso   1.000  C
  C34      1.0000 0.26674  0.40953  0.86712  Biso   1.000  C
  H29      1.0000 0.79453  0.76538  0.59211  Biso   1.000  H
  H30      1.0000 0.82783  0.80485  0.52951  Biso   1.000  H
  C35      1.0000 0.90776  0.84101  0.58809  Biso   1.000  C
  C36      1.0000 0.57817  0.09390  0.67042  Biso   1.000  C
  H31      1.0000 0.64843  0.08643  0.58482  Biso   1.000  H
  H32      1.0000 0.52947  0.14413  0.59512  Biso   1.000  H
  H33      1.0000 0.15623  0.95434  0.50720  Biso   1.000  H
  H34      1.0000 0.14361  0.90472  0.56849  Biso   1.000  H
  C37      1.0000 0.06477  0.05143  0.57203  Biso   1.000  C
  H35      1.0000 0.92577  0.25229  0.62292  Biso   1.000  H
  H36      1.0000 0.85145  0.34518  0.60023  Biso   1.000  H
  C38      1.0000 0.81694  0.21349  0.58111  Biso   1.000  C
  H37      1.0000 0.63076  0.35241  0.88550  Biso   1.000  H
  H38      1.0000 0.51034  0.37047  0.91291  Biso   1.000  H
  C39      1.0000 0.56209  0.49796  0.90710  Biso   1.000  C
  H39      1.0000 0.22602  0.45075  0.84123  Biso   1.000  H
  H40      1.0000 0.28179  0.34053  0.85341  Biso   1.000  H
  C40      1.0000 0.20260  0.42053  0.92849  Biso   1.000  C
  H41      1.0000 0.89272  0.85785  0.62952  Biso   1.000  H
  H42      1.0000 0.92540  0.89794  0.56722  Biso   1.000  H
  C41      1.0000 0.99647  0.75694  0.57600  Biso   1.000  C
  C42      1.0000 0.67006  0.07125  0.69299  Biso   1.000  C
  C43      1.0000 0.48276  0.13082  0.70914  Biso   1.000  C
  H43      1.0000 0.99909  0.03780  0.56679  Biso   1.000  H
  H44      1.0000 0.06355  0.06182  0.61280  Biso   1.000  H
  H45      1.0000 0.07468  0.11023  0.55142  Biso   1.000  H
  H46      1.0000 0.81334  0.15248  0.60092  Biso   1.000  H
  H47      1.0000 0.74825  0.24564  0.57351  Biso   1.000  H
  H48      1.0000 0.86628  0.19886  0.54492  Biso   1.000  H
  C44      1.0000 0.65303  0.53415  0.89973  Biso   1.000  C
  C45      1.0000 0.47008  0.56014  0.93897  Biso   1.000  C
  H49      1.0000 0.24869  0.40341  0.95691  Biso   1.000  H
  H50      1.0000 0.15357  0.37726  0.93321  Biso   1.000  H
  C46      1.0000 0.14648  0.52294  0.93570  Biso   1.000  C
  C47      1.0000 0.09121  0.43696  0.91989  Biso   1.000  C
  H51      1.0000 0.21272  0.47692  0.94932  Biso   1.000  H
  H52      1.0000 0.22238  0.36051  0.95010  Biso   1.000  H
  H53      1.0000 0.97185  0.69697  0.57539  Biso   1.000  H
  H54      1.0000 0.03870  0.75354  0.60573  Biso   1.000  H
  H55      1.0000 0.03846  0.76412  0.53872  Biso   1.000  H
  C48      1.0000 0.66988  0.08407  0.75065  Biso   1.000  C
  H56      1.0000 0.73417  0.04622  0.66802  Biso   1.000  H
  O7       1.0000 0.39277  0.15260  0.68413  Biso   1.000  O
  C49      1.0000 0.48266  0.14221  0.76790  Biso   1.000  C
  O8       1.0000 0.74371  0.47157  0.86734  Biso   1.000  O
  C50      1.0000 0.65450  0.62381  0.92605  Biso   1.000  C
  C51      1.0000 0.46999  0.65135  0.96355  Biso   1.000  C
  H57      1.0000 0.40703  0.53963  0.94382  Biso   1.000  H
  H58      1.0000 0.10668  0.54032  0.90492  Biso   1.000  H
  H59      1.0000 0.09910  0.53314  0.97271  Biso   1.000  H
  H60      1.0000 0.19598  0.56430  0.93430  Biso   1.000  H
  H61      1.0000 0.05541  0.50566  0.92919  Biso   1.000  H
  H62      1.0000 0.09023  0.42177  0.88000  Biso   1.000  H
  H63      1.0000 0.05610  0.39467  0.94513  Biso   1.000  H
  O9       1.0000 0.76140  0.06532  0.77492  Biso   1.000  O
  C52      1.0000 0.57523  0.12044  0.79003  Biso   1.000  C
  C53      1.0000 0.29513  0.19923  0.71979  Biso   1.000  C
  H64      1.0000 0.41858  0.16509  0.79321  Biso   1.000  H
  C54      1.0000 0.84332  0.51337  0.85411  Biso   1.000  C
  H65      1.0000 0.71752  0.64441  0.92151  Biso   1.000  H
  C55      1.0000 0.56314  0.68284  0.95905  Biso   1.000  C
  O10      1.0000 0.38102  0.71442  0.99541  Biso   1.000  O
  C56      1.0000 0.85999  0.01655  0.73961  Biso   1.000  C
  C57      1.0000 0.57488  0.13388  0.85389  Biso   1.000  C
  H66      1.0000 0.27657  0.15567  0.75100  Biso   1.000  H
  H67      1.0000 0.30035  0.26103  0.73712  Biso   1.000  H
  C58      1.0000 0.21414  0.21954  0.68242  Biso   1.000  C
  H68      1.0000 0.86674  0.52536  0.88991  Biso   1.000  H
  H69      1.0000 0.82944  0.57547  0.83372  Biso   1.000  H
  C59      1.0000 0.92516  0.43492  0.81661  Biso   1.000  C
  C60      1.0000 0.56746  0.77602  0.98983  Biso   1.000  C
  C61      1.0000 0.28283  0.68631  0.99891  Biso   1.000  C
  H70      1.0000 0.85798  0.94947  0.72861  Biso   1.000  H
  H71      1.0000 0.87319  0.05309  0.70429  Biso   1.000  H
  C62      1.0000 0.94659  0.01244  0.77440  Biso   1.000  C
  C63      1.0000 0.57429  0.04000  0.88768  Biso   1.000  C
  H72      1.0000 0.63699  0.15709  0.85821  Biso   1.000  H
  H73      1.0000 0.51308  0.18527  0.87052  Biso   1.000  H
  H74      1.0000 0.18916  0.15943  0.67902  Biso   1.000  H
  H75      1.0000 0.24726  0.23404  0.64362  Biso   1.000  H
  C64      1.0000 0.12333  0.30143  0.70272  Biso   1.000  C
  C65      1.0000 0.19484  0.29504  0.63960  Biso   1.000  C
  H76      1.0000 0.22330  0.15681  0.66151  Biso   1.000  H
  H77      1.0000 0.14722  0.22884  0.70931  Biso   1.000  H
  H78      1.0000 0.98638  0.46174  0.80251  Biso   1.000  H
  H79      1.0000 0.89681  0.42087  0.78291  Biso   1.000  H
  C66      1.0000 0.95692  0.35076  0.84202  Biso   1.000  C
  C67      1.0000 0.57117  0.86486  0.95255  Biso   1.000  C
  H80      1.0000 0.62964  0.76150  0.00803  Biso   1.000  H
  H81      1.0000 0.50608  0.79381  0.02082  Biso   1.000  H
  H82      1.0000 0.26447  0.68575  0.96049  Biso   1.000  H
  H83      1.0000 0.28806  0.62009  0.01453  Biso   1.000  H
  C68      1.0000 0.20055  0.76127  0.03832  Biso   1.000  C
  H84      1.0000 0.93044  0.98090  0.81133  Biso   1.000  H
  C69      1.0000 0.95295  0.11342  0.78431  Biso   1.000  C
  H85      1.0000 0.01350  0.97387  0.75301  Biso   1.000  H
  C70      1.0000 0.66578  0.97743  0.89746  Biso   1.000  C
  C71      1.0000 0.47890  0.01318  0.91051  Biso   1.000  C
  H86      1.0000 0.14664  0.35498  0.71783  Biso   1.000  H
  H87      1.0000 0.08803  0.32442  0.67081  Biso   1.000  H
  H88      1.0000 0.07524  0.27873  0.73293  Biso   1.000  H
  H89      1.0000 0.26136  0.30273  0.61790  Biso   1.000  H
  H90      1.0000 0.15616  0.35687  0.65889  Biso   1.000  H
  H91      1.0000 0.15478  0.27474  0.61350  Biso   1.000  H
  H92      1.0000 0.91065  0.34997  0.87882  Biso   1.000  H
  H93      1.0000 0.95484  0.29598  0.81753  Biso   1.000  H
  H94      1.0000 0.02767  0.34466  0.84822  Biso   1.000  H
  C72      1.0000 0.66687  0.89011  0.92828  Biso   1.000  C
  C73      1.0000 0.47851  0.92835  0.94168  Biso   1.000  C
  H95      1.0000 0.13280  0.74417  0.04103  Biso   1.000  H
  H96      1.0000 0.21793  0.75760  0.07713  Biso   1.000  H
  C74      1.0000 0.19042  0.86623  0.01820  Biso   1.000  C
  H97      1.0000 0.88520  0.15181  0.80352  Biso   1.000  H
  H98      1.0000 0.97336  0.14243  0.74760  Biso   1.000  H
  H99      1.0000 0.00469  0.11340  0.80841  Biso   1.000  H
  H100     1.0000 0.72981  0.99385  0.88301  Biso   1.000  H
  O11      1.0000 0.38814  0.07863  0.89859  Biso   1.000  O
  O12      1.0000 0.75757  0.82356  0.93910  Biso   1.000  O
  H101     1.0000 0.41409  0.91260  0.95613  Biso   1.000  H
  H102     1.0000 0.18370  0.86855  0.97782  Biso   1.000  H
  H103     1.0000 0.12881  0.90899  0.04112  Biso   1.000  H
  H104     1.0000 0.25220  0.88841  0.02270  Biso   1.000  H
  C75      1.0000 0.29229  0.05222  0.91924  Biso   1.000  C
  C76      1.0000 0.85565  0.83941  0.91060  Biso   1.000  C
  H105     1.0000 0.29486  0.98656  0.90370  Biso   1.000  H
  H106     1.0000 0.28069  0.04970  0.96150  Biso   1.000  H
  C77      1.0000 0.20266  0.12830  0.90060  Biso   1.000  C
  H107     1.0000 0.85702  0.84406  0.86891  Biso   1.000  H
  H108     1.0000 0.86609  0.90143  0.92491  Biso   1.000  H
  C78      1.0000 0.94152  0.75316  0.92282  Biso   1.000  C
  H109     1.0000 0.19822  0.19309  0.91793  Biso   1.000  H
  H110     1.0000 0.21708  0.13359  0.85852  Biso   1.000  H
  C79      1.0000 0.09807  0.09990  0.91889  Biso   1.000  C
  H111     1.0000 0.93641  0.74546  0.96460  Biso   1.000  H
  H112     1.0000 0.93391  0.69190  0.90593  Biso   1.000  H
  C80      1.0000 0.04938  0.77335  0.89610  Biso   1.000  C
  H113     1.0000 0.08992  0.08213  0.95923  Biso   1.000  H
  H114     1.0000 0.04132  0.15548  0.91391  Biso   1.000  H
  H115     1.0000 0.09646  0.04397  0.89523  Biso   1.000  H
  H116     1.0000 0.05901  0.83063  0.91540  Biso   1.000  H
  H117     1.0000 0.10475  0.71634  0.90082  Biso   1.000  H
  H118     1.0000 0.05179  0.78581  0.85533  Biso   1.000  H
  C81      1.0000 0.42175  0.44064  0.45809  Biso   1.000  C
  C82      1.0000 0.43059  0.52263  0.42540  Biso   1.000  C
  O13      1.0000 0.33613  0.43604  0.49930  Biso   1.000  O
  C83      1.0000 0.50660  0.35875  0.45360  Biso   1.000  C
  C84      1.0000 0.51966  0.52479  0.38331  Biso   1.000  C
  H119     1.0000 0.37482  0.57915  0.43151  Biso   1.000  H
  C85      1.0000 0.24792  0.51879  0.50869  Biso   1.000  C
  C86      1.0000 0.59685  0.35626  0.40972  Biso   1.000  C
  C87      1.0000 0.50709  0.26927  0.49031  Biso   1.000  C
  C88      1.0000 0.52702  0.61685  0.34892  Biso   1.000  C
  C89      1.0000 0.60143  0.44099  0.37502  Biso   1.000  C
  H120     1.0000 0.22360  0.53677  0.47232  Biso   1.000  H
  H121     1.0000 0.26731  0.57577  0.52370  Biso   1.000  H
  C90      1.0000 0.16155  0.49005  0.55212  Biso   1.000  C
  H122     1.0000 0.65250  0.29967  0.40379  Biso   1.000  H
  H123     1.0000 0.45467  0.28893  0.52562  Biso   1.000  H
  H124     1.0000 0.57567  0.24897  0.50192  Biso   1.000  H
  C91      1.0000 0.48523  0.18070  0.46329  Biso   1.000  C
  C92      1.0000 0.50294  0.61070  0.28750  Biso   1.000  C
  H125     1.0000 0.59786  0.62729  0.34590  Biso   1.000  H
  H126     1.0000 0.47788  0.67414  0.36991  Biso   1.000  H
  O14      1.0000 0.68896  0.44234  0.33316  Biso   1.000  O
  H127     1.0000 0.10327  0.54843  0.56111  Biso   1.000  H
  H128     1.0000 0.18833  0.47203  0.58792  Biso   1.000  H
  C93      1.0000 0.11831  0.40528  0.53392  Biso   1.000  C
  C94      1.0000 0.38800  0.17866  0.45133  Biso   1.000  C
  C95      1.0000 0.57085  0.09374  0.44748  Biso   1.000  C
  C96      1.0000 0.40352  0.63199  0.27772  Biso   1.000  C
  C97      1.0000 0.58988  0.58796  0.23882  Biso   1.000  C
  C98      1.0000 0.77371  0.36409  0.32120  Biso   1.000  C
  H129     1.0000 0.09013  0.42214  0.49891  Biso   1.000  H
  H130     1.0000 0.06336  0.39416  0.56439  Biso   1.000  H
  H131     1.0000 0.17421  0.34564  0.52671  Biso   1.000  H
  C99      1.0000 0.37079  0.09238  0.42692  Biso   1.000  C
  H132     1.0000 0.33260  0.23514  0.45940  Biso   1.000  H
  O15      1.0000 0.66418  0.09616  0.45814  Biso   1.000  O
  C100     1.0000 0.54702  0.00424  0.42570  Biso   1.000  C
  C101     1.0000 0.38445  0.62745  0.22280  Biso   1.000  C
  O16      1.0000 0.32074  0.65274  0.32840  Biso   1.000  O
  C102     1.0000 0.56774  0.58711  0.18312  Biso   1.000  C
  H133     1.0000 0.65936  0.57409  0.24480  Biso   1.000  H
  H134     1.0000 0.75088  0.30744  0.30819  Biso   1.000  H
  H135     1.0000 0.80080  0.34600  0.35682  Biso   1.000  H
  C103     1.0000 0.85997  0.38365  0.27619  Biso   1.000  C
  C104     1.0000 0.45076  0.00517  0.41479  Biso   1.000  C
  O17      1.0000 0.27056  0.08986  0.41571  Biso   1.000  O
  C105     1.0000 0.74632  0.01186  0.44172  Biso   1.000  C
  H136     1.0000 0.59975  0.94539  0.41928  Biso   1.000  H
  C106     1.0000 0.46470  0.60450  0.17439  Biso   1.000  C
  H137     1.0000 0.31468  0.64039  0.21752  Biso   1.000  H
  C107     1.0000 0.21601  0.69987  0.32032  Biso   1.000  C
  O18      1.0000 0.64522  0.56375  0.13397  Biso   1.000  O
  H138     1.0000 0.83320  0.39896  0.24031  Biso   1.000  H
  H139     1.0000 0.87988  0.44235  0.28850  Biso   1.000  H
  C108     1.0000 0.95427  0.30270  0.26410  Biso   1.000  C
  C109     1.0000 0.42161  0.91454  0.39418  Biso   1.000  C
  C110     1.0000 0.18588  0.17856  0.42911  Biso   1.000  C
  C111     1.0000 0.84628  0.03497  0.45141  Biso   1.000  C
  H140     1.0000 0.75170  0.99452  0.40082  Biso   1.000  H
  H141     1.0000 0.73270  0.95549  0.46473  Biso   1.000  H
  C112     1.0000 0.43823  0.60341  0.11420  Biso   1.000  C
  H142     1.0000 0.19002  0.65693  0.29671  Biso   1.000  H
  H143     1.0000 0.21541  0.76247  0.30081  Biso   1.000  H
  C113     1.0000 0.14675  0.71815  0.38100  Biso   1.000  C
  C114     1.0000 0.73317  0.59035  0.13292  Biso   1.000  C
  H144     1.0000 0.94107  0.25085  0.24140  Biso   1.000  H
  H145     1.0000 0.97246  0.27620  0.30020  Biso   1.000  H
  H146     1.0000 0.01167  0.32728  0.24262  Biso   1.000  H
  C115     1.0000 0.42174  0.90598  0.32962  Biso   1.000  C
  H147     1.0000 0.35146  0.91353  0.41523  Biso   1.000  H
  H148     1.0000 0.47041  0.85582  0.40492  Biso   1.000  H
  H149     1.0000 0.20537  0.23457  0.40789  Biso   1.000  H
  H150     1.0000 0.17207  0.19510  0.47049  Biso   1.000  H
  C116     1.0000 0.09217  0.15886  0.41191  Biso   1.000  C
  H151     1.0000 0.84369  0.04554  0.49280  Biso   1.000  H
  H152     1.0000 0.85631  0.09516  0.43151  Biso   1.000  H
  C117     1.0000 0.93512  0.94852  0.42802  Biso   1.000  C
  C118     1.0000 0.43781  0.50199  0.09289  Biso   1.000  C
  H153     1.0000 0.36916  0.64747  0.11450  Biso   1.000  H
  H154     1.0000 0.48957  0.62949  0.08709  Biso   1.000  H
  H155     1.0000 0.07412  0.74766  0.37712  Biso   1.000  H
  H156     1.0000 0.14844  0.65478  0.39982  Biso   1.000  H
  C119     1.0000 0.18297  0.78646  0.41889  Biso   1.000  C
  H157     1.0000 0.77387  0.54921  0.15881  Biso   1.000  H
  H158     1.0000 0.71805  0.65935  0.14659  Biso   1.000  H
  C120     1.0000 0.79730  0.57942  0.07150  Biso   1.000  C
  C121     1.0000 0.32984  0.92871  0.30701  Biso   1.000  C
  C122     1.0000 0.51714  0.86913  0.29086  Biso   1.000  C
  H159     1.0000 0.10717  0.14210  0.37052  Biso   1.000  H
  H160     1.0000 0.07443  0.10194  0.43282  Biso   1.000  H
  C123     1.0000 0.00345  0.24294  0.42400  Biso   1.000  C
  H161     1.0000 0.93635  0.93814  0.38720  Biso   1.000  H
  H162     1.0000 0.92521  0.88972  0.44862  Biso   1.000  H
  H163     1.0000 0.00083  0.96208  0.43321  Biso   1.000  H
  C124     1.0000 0.34686  0.46580  0.10031  Biso   1.000  C
  C125     1.0000 0.52982  0.43982  0.06103  Biso   1.000  C
  H164     1.0000 0.18655  0.84748  0.39912  Biso   1.000  H
  H165     1.0000 0.25167  0.75424  0.42649  Biso   1.000  H
  H166     1.0000 0.13363  0.80102  0.45512  Biso   1.000  H
  H167     1.0000 0.75123  0.59647  0.04309  Biso   1.000  H
  H168     1.0000 0.84626  0.62269  0.06679  Biso   1.000  H
  C126     1.0000 0.85342  0.47701  0.06430  Biso   1.000  C
  C127     1.0000 0.90869  0.56299  0.08010  Biso   1.000  C
  H169     1.0000 0.78720  0.52296  0.05068  Biso   1.000  H
  H170     1.0000 0.77746  0.63937  0.04990  Biso   1.000  H
  C128     1.0000 0.33005  0.91581  0.24934  Biso   1.000  C
  H171     1.0000 0.26572  0.95373  0.33202  Biso   1.000  H
  C129     1.0000 0.51724  0.85774  0.23210  Biso   1.000  C
  O19      1.0000 0.60715  0.84728  0.31587  Biso   1.000  O
  H172     1.0000 0.02805  0.30299  0.42461  Biso   1.000  H
  H173     1.0000 0.96113  0.24634  0.39432  Biso   1.000  H
  H174     1.0000 0.96144  0.23576  0.46132  Biso   1.000  H
  O20      1.0000 0.25619  0.52838  0.13266  Biso   1.000  O
  C130     1.0000 0.34540  0.37607  0.07399  Biso   1.000  C
  C131     1.0000 0.52991  0.34860  0.03645  Biso   1.000  C
  H175     1.0000 0.59288  0.46032  0.05618  Biso   1.000  H
  H176     1.0000 0.89323  0.45956  0.09512  Biso   1.000  H
  H177     1.0000 0.90081  0.46682  0.02728  Biso   1.000  H
  H178     1.0000 0.80387  0.43558  0.06570  Biso   1.000  H
  H179     1.0000 0.94450  0.49429  0.07080  Biso   1.000  H
  H180     1.0000 0.90968  0.57818  0.12000  Biso   1.000  H
  H181     1.0000 0.94379  0.60529  0.05492  Biso   1.000  H
  C132     1.0000 0.42458  0.87952  0.21001  Biso   1.000  C
  O21      1.0000 0.23850  0.93464  0.22507  Biso   1.000  O
  H182     1.0000 0.58134  0.83479  0.20678  Biso   1.000  H
  C133     1.0000 0.70470  0.80073  0.28021  Biso   1.000  C
  C134     1.0000 0.15659  0.48659  0.14589  Biso   1.000  C
  H183     1.0000 0.28240  0.35547  0.07849  Biso   1.000  H
  C135     1.0000 0.43677  0.31711  0.04095  Biso   1.000  C
  O22      1.0000 0.61887  0.28553  0.00463  Biso   1.000  O
  C136     1.0000 0.42502  0.86600  0.14615  Biso   1.000  C
  C137     1.0000 0.13992  0.98341  0.26039  Biso   1.000  C
  H184     1.0000 0.72335  0.84420  0.24900  Biso   1.000  H
  H185     1.0000 0.69954  0.73893  0.26292  Biso   1.000  H
  C138     1.0000 0.78575  0.78041  0.31762  Biso   1.000  C
  H186     1.0000 0.13316  0.47459  0.11009  Biso   1.000  H
  H187     1.0000 0.17045  0.42449  0.16632  Biso   1.000  H
  C139     1.0000 0.07476  0.56495  0.18339  Biso   1.000  C
  C140     1.0000 0.43238  0.22386  0.01017  Biso   1.000  C
  C141     1.0000 0.71709  0.31356  0.00109  Biso   1.000  C
  C142     1.0000 0.42561  0.95995  0.11232  Biso   1.000  C
  H188     1.0000 0.36293  0.84279  0.14178  Biso   1.000  H
  H189     1.0000 0.48682  0.81461  0.12952  Biso   1.000  H
  H190     1.0000 0.14185  0.05048  0.27139  Biso   1.000  H
  H191     1.0000 0.12673  0.94678  0.29570  Biso   1.000  H
  C143     1.0000 0.05331  0.98751  0.22560  Biso   1.000  C
  H192     1.0000 0.81073  0.84053  0.32102  Biso   1.000  H
  H193     1.0000 0.75263  0.76591  0.35642  Biso   1.000  H
  C144     1.0000 0.87655  0.69852  0.29732  Biso   1.000  C
  C145     1.0000 0.80507  0.70491  0.36040  Biso   1.000  C
  H194     1.0000 0.77660  0.84314  0.33848  Biso   1.000  H
  H195     1.0000 0.85268  0.77111  0.29068  Biso   1.000  H
  H196     1.0000 0.01353  0.53821  0.19749  Biso   1.000  H
  H197     1.0000 0.10309  0.57908  0.21709  Biso   1.000  H
  C146     1.0000 0.04297  0.64919  0.15802  Biso   1.000  C
  C147     1.0000 0.42874  0.13509  0.04745  Biso   1.000  C
  H198     1.0000 0.37025  0.23845  0.99201  Biso   1.000  H
  H199     1.0000 0.49381  0.20614  0.97922  Biso   1.000  H
  H200     1.0000 0.73543  0.31420  0.03951  Biso   1.000  H
  H201     1.0000 0.71185  0.37979  0.98551  Biso   1.000  H
  C148     1.0000 0.79936  0.23861  0.96172  Biso   1.000  C
  C149     1.0000 0.33412  0.02253  0.10254  Biso   1.000  C
  C150     1.0000 0.52102  0.98670  0.08949  Biso   1.000  C
  H202     1.0000 0.06947  0.01898  0.18871  Biso   1.000  H
  H203     1.0000 0.98641  0.02609  0.24699  Biso   1.000  H
  C151     1.0000 0.04688  0.88653  0.21569  Biso   1.000  C
  H204     1.0000 0.85327  0.64490  0.28222  Biso   1.000  H
  H205     1.0000 0.91187  0.67553  0.32919  Biso   1.000  H
  H206     1.0000 0.92464  0.72123  0.26711  Biso   1.000  H
  H207     1.0000 0.73854  0.69722  0.38209  Biso   1.000  H
  H208     1.0000 0.84376  0.64300  0.34110  Biso   1.000  H
  H209     1.0000 0.84512  0.72521  0.38650  Biso   1.000  H
  H210     1.0000 0.08926  0.64998  0.12118  Biso   1.000  H
  H211     1.0000 0.04505  0.70397  0.18251  Biso   1.000  H
  H212     1.0000 0.97223  0.65529  0.15178  Biso   1.000  H
  C152     1.0000 0.33304  0.10977  0.07177  Biso   1.000  C
  C153     1.0000 0.52139  0.07160  0.05832  Biso   1.000  C
  H213     1.0000 0.86703  0.25571  0.95901  Biso   1.000  H
  H214     1.0000 0.78196  0.24236  0.92291  Biso   1.000  H
  C154     1.0000 0.80948  0.13372  0.98180  Biso   1.000  C
  H215     1.0000 0.27009  0.00610  0.11699  Biso   1.000  H
  O23      1.0000 0.61176  0.92132  0.10141  Biso   1.000  O
  H216     1.0000 0.99523  0.88648  0.19159  Biso   1.000  H
  H217     1.0000 0.11470  0.84814  0.19648  Biso   1.000  H
  H218     1.0000 0.02654  0.85752  0.25240  Biso   1.000  H
  O24      1.0000 0.24233  0.17639  0.06090  Biso   1.000  O
  H219     1.0000 0.58582  0.08728  0.04391  Biso   1.000  H
  H220     1.0000 0.81619  0.13140  0.02222  Biso   1.000  H
  H221     1.0000 0.87111  0.09089  0.95888  Biso   1.000  H
  H222     1.0000 0.74763  0.11154  0.97730  Biso   1.000  H
  C155     1.0000 0.70761  0.94773  0.08076  Biso   1.000  C
  C156     1.0000 0.14427  0.16046  0.08940  Biso   1.000  C
  H223     1.0000 0.70504  0.01340  0.09630  Biso   1.000  H
  H224     1.0000 0.71921  0.95025  0.03850  Biso   1.000  H
  C157     1.0000 0.79724  0.87166  0.09940  Biso   1.000  C
  H225     1.0000 0.14288  0.15589  0.13109  Biso   1.000  H
  H226     1.0000 0.13382  0.09852  0.07508  Biso   1.000  H
  C158     1.0000 0.05837  0.24680  0.07722  Biso   1.000  C
  H227     1.0000 0.80169  0.80679  0.08211  Biso   1.000  H
  H228     1.0000 0.78283  0.86629  0.14152  Biso   1.000  H
  C159     1.0000 0.90183  0.90005  0.08111  Biso   1.000  C
  H229     1.0000 0.06349  0.25450  0.03540  Biso   1.000  H
  H230     1.0000 0.06599  0.30798  0.09412  Biso   1.000  H
  C160     1.0000 0.95045  0.22660  0.10389  Biso   1.000  C
  H231     1.0000 0.90997  0.91783  0.04082  Biso   1.000  H
  H232     1.0000 0.95853  0.84440  0.08608  Biso   1.000  H
  H233     1.0000 0.90345  0.95591  0.10481  Biso   1.000  H
  H234     1.0000 0.94089  0.16932  0.08460  Biso   1.000  H
  H235     1.0000 0.89514  0.28361  0.09922  Biso   1.000  H
  H236     1.0000 0.94804  0.21407  0.14471  Biso   1.000  H
