data_image0
_cell_length_a       20.241
_cell_length_b       26.35
_cell_length_c       15.143
_cell_angle_alpha    98.84
_cell_angle_beta     95.01
_cell_angle_gamma    94.26

_symmetry_space_group_name_H-M    "P 1"
_symmetry_int_tables_number       1

loop_
  _symmetry_equiv_pos_as_xyz
  'x, y, z'

loop_
  _atom_site_label
  _atom_site_occupancy
  _atom_site_fract_x
  _atom_site_fract_y
  _atom_site_fract_z
  _atom_site_thermal_displace_type
  _atom_site_B_iso_or_equiv
  _atom_site_type_symbol
  C1       1.0000 0.55232  0.43411  0.47703  Biso   1.000  C
  O1       1.0000 0.57341  0.42302  0.38891  Biso   1.000  O
  O2       1.0000 0.51664  0.39042  0.50001  Biso   1.000  O
  H1       1.0000 0.52420  0.46242  0.47952  Biso   1.000  H
  H2       1.0000 0.59095  0.44470  0.52029  Biso   1.000  H
  C2       1.0000 0.63571  0.40545  0.38777  Biso   1.000  C
  C3       1.0000 0.55410  0.35875  0.54394  Biso   1.000  C
  C4       1.0000 0.64540  0.35320  0.38125  Biso   1.000  C
  C5       1.0000 0.68966  0.44153  0.38736  Biso   1.000  C
  C6       1.0000 0.58493  0.31874  0.49732  Biso   1.000  C
  C7       1.0000 0.55229  0.36276  0.63663  Biso   1.000  C
  C8       1.0000 0.58705  0.31669  0.39589  Biso   1.000  C
  C9       1.0000 0.70909  0.33704  0.37433  Biso   1.000  C
  C10      1.0000 0.75335  0.42532  0.38045  Biso   1.000  C
  O3       1.0000 0.68069  0.49282  0.41605  Biso   1.000  O
  C11      1.0000 0.61401  0.28278  0.54340  Biso   1.000  C
  O4       1.0000 0.51704  0.40116  0.67693  Biso   1.000  O
  C12      1.0000 0.58132  0.32680  0.68271  Biso   1.000  C
  C13      1.0000 0.58489  0.26237  0.34350  Biso   1.000  C
  H3       1.0000 0.54667  0.33121  0.37427  Biso   1.000  H
  C14      1.0000 0.76309  0.37308  0.37393  Biso   1.000  C
  H4       1.0000 0.71557  0.30219  0.36997  Biso   1.000  H
  O5       1.0000 0.80427  0.46241  0.38192  Biso   1.000  O
  C15      1.0000 0.68766  0.52674  0.35163  Biso   1.000  C
  H5       1.0000 0.63459  0.25608  0.51230  Biso   1.000  H
  C16      1.0000 0.61220  0.28679  0.63609  Biso   1.000  C
  C17      1.0000 0.55099  0.43920  0.74786  Biso   1.000  C
  O6       1.0000 0.57331  0.32926  0.77345  Biso   1.000  O
  C18      1.0000 0.52232  0.22913  0.35150  Biso   1.000  C
  H6       1.0000 0.58816  0.26455  0.28063  Biso   1.000  H
  H7       1.0000 0.62320  0.24605  0.36493  Biso   1.000  H
  C19      1.0000 0.83409  0.35783  0.37239  Biso   1.000  C
  C20      1.0000 0.84361  0.47986  0.46602  Biso   1.000  C
  H8       1.0000 0.72769  0.52143  0.32181  Biso   1.000  H
  H9       1.0000 0.64952  0.52125  0.30669  Biso   1.000  H
  C21      1.0000 0.69188  0.57983  0.40557  Biso   1.000  C
  C22      1.0000 0.64078  0.24686  0.68580  Biso   1.000  C
  C23      1.0000 0.51447  0.48661  0.74779  Biso   1.000  C
  H10      1.0000 0.55012  0.42719  0.80522  Biso   1.000  H
  H11      1.0000 0.59701  0.44629  0.73698  Biso   1.000  H
  C24      1.0000 0.62838  0.34707  0.83840  Biso   1.000  C
  H12      1.0000 0.48409  0.24416  0.32637  Biso   1.000  H
  H13      1.0000 0.51749  0.22853  0.41450  Biso   1.000  H
  C25      1.0000 0.52323  0.17540  0.30428  Biso   1.000  C
  C26      1.0000 0.86503  0.36036  0.47012  Biso   1.000  C
  H14      1.0000 0.85923  0.38453  0.37433  Biso   1.000  H
  C27      1.0000 0.84101  0.30622  0.31193  Biso   1.000  C
  O7       1.0000 0.89967  0.45176  0.47408  Biso   1.000  O
  H15      1.0000 0.81668  0.47594  0.51492  Biso   1.000  H
  H16      1.0000 0.85809  0.51620  0.47045  Biso   1.000  H
  C28      1.0000 0.63383  0.59955  0.43398  Biso   1.000  C
  C29      1.0000 0.75387  0.60525  0.43969  Biso   1.000  C
  C30      1.0000 0.71095  0.26694  0.72509  Biso   1.000  C
  H17      1.0000 0.61439  0.24417  0.73644  Biso   1.000  H
  C31      1.0000 0.63608  0.19251  0.62850  Biso   1.000  C
  C32      1.0000 0.53177  0.52734  0.83135  Biso   1.000  C
  H18      1.0000 0.52414  0.50186  0.69547  Biso   1.000  H
  H19      1.0000 0.46702  0.47652  0.74202  Biso   1.000  H
  H20      1.0000 0.61212  0.36384  0.89295  Biso   1.000  H
  H21      1.0000 0.65665  0.37255  0.81597  Biso   1.000  H
  O8       1.0000 0.66662  0.30694  0.85916  Biso   1.000  O
  C33      1.0000 0.53648  0.13589  0.35311  Biso   1.000  C
  C34      1.0000 0.51030  0.16452  0.21098  Biso   1.000  C
  C35      1.0000 0.86418  0.31725  0.51337  Biso   1.000  C
  C36      1.0000 0.89300  0.40818  0.51593  Biso   1.000  C
  H22      1.0000 0.81987  0.27836  0.33739  Biso   1.000  H
  H23      1.0000 0.81795  0.30629  0.25309  Biso   1.000  H
  C37      1.0000 0.91404  0.29641  0.30172  Biso   1.000  C
  H24      1.0000 0.59252  0.58260  0.41121  Biso   1.000  H
  C38      1.0000 0.63779  0.64472  0.49651  Biso   1.000  C
  C39      1.0000 0.75783  0.65043  0.50222  Biso   1.000  C
  H25      1.0000 0.79256  0.59211  0.42068  Biso   1.000  H
  C40      1.0000 0.71924  0.29883  0.80858  Biso   1.000  C
  C41      1.0000 0.76555  0.25869  0.67619  Biso   1.000  C
  H26      1.0000 0.59086  0.18357  0.60063  Biso   1.000  H
  H27      1.0000 0.66519  0.19305  0.58088  Biso   1.000  H
  C42      1.0000 0.65591  0.15052  0.68553  Biso   1.000  C
  C43      1.0000 0.48663  0.56953  0.83498  Biso   1.000  C
  H28      1.0000 0.57730  0.54190  0.83209  Biso   1.000  H
  H29      1.0000 0.52893  0.51113  0.88442  Biso   1.000  H
  H30      1.0000 0.54520  0.14309  0.41531  Biso   1.000  H
  C44      1.0000 0.53680  0.08545  0.30857  Biso   1.000  C
  C45      1.0000 0.51062  0.11409  0.16651  Biso   1.000  C
  H31      1.0000 0.50139  0.19089  0.17847  Biso   1.000  H
  C46      1.0000 0.89135  0.32199  0.60237  Biso   1.000  C
  H32      1.0000 0.84552  0.28539  0.48281  Biso   1.000  H
  C47      1.0000 0.92022  0.41288  0.60499  Biso   1.000  C
  H33      1.0000 0.93584  0.29296  0.35989  Biso   1.000  H
  H34      1.0000 0.93625  0.32609  0.28238  Biso   1.000  H
  C48      1.0000 0.92218  0.25001  0.23711  Biso   1.000  C
  H35      1.0000 0.59910  0.65786  0.51552  Biso   1.000  H
  C49      1.0000 0.69979  0.67015  0.53064  Biso   1.000  C
  H36      1.0000 0.79919  0.66737  0.52493  Biso   1.000  H
  C50      1.0000 0.78213  0.32246  0.84304  Biso   1.000  C
  H37      1.0000 0.76001  0.23743  0.62051  Biso   1.000  H
  C51      1.0000 0.82839  0.28231  0.71065  Biso   1.000  C
  H38      1.0000 0.62970  0.15176  0.73631  Biso   1.000  H
  H39      1.0000 0.70251  0.15717  0.70850  Biso   1.000  H
  C52      1.0000 0.64422  0.09808  0.62884  Biso   1.000  C
  O9       1.0000 0.48302  0.59653  0.92351  Biso   1.000  O
  H40      1.0000 0.44225  0.55507  0.80992  Biso   1.000  H
  H41      1.0000 0.50187  0.59393  0.79763  Biso   1.000  H
  H42      1.0000 0.54571  0.05908  0.34108  Biso   1.000  H
  C53      1.0000 0.52392  0.07457  0.21528  Biso   1.000  C
  H43      1.0000 0.50190  0.10681  0.10431  Biso   1.000  H
  C54      1.0000 0.91937  0.36977  0.64825  Biso   1.000  C
  C55      1.0000 0.88662  0.27608  0.65530  Biso   1.000  C
  O10      1.0000 0.93848  0.45976  0.65550  Biso   1.000  O
  C56      1.0000 0.93060  0.20310  0.26680  Biso   1.000  C
  C57      1.0000 0.92045  0.25290  0.14576  Biso   1.000  C
  C58      1.0000 0.70439  0.71329  0.60909  Biso   1.000  C
  C59      1.0000 0.83667  0.31420  0.79407  Biso   1.000  C
  O11      1.0000 0.78796  0.35786  0.92001  Biso   1.000  O
  C60      1.0000 0.58682  0.06547  0.62971  Biso   1.000  C
  C61      1.0000 0.69230  0.08297  0.57201  Biso   1.000  C
  C62      1.0000 0.53815  0.62794  0.96683  Biso   1.000  C
  H44      1.0000 0.52411  0.04096  0.18559  Biso   1.000  H
  O12      1.0000 0.95511  0.37447  0.73154  Biso   1.000  O
  H45      1.0000 0.92703  0.27943  0.69722  Biso   1.000  H
  C63      1.0000 0.88074  0.22038  0.59861  Biso   1.000  C
  C64      1.0000 0.99833  0.48829  0.63932  Biso   1.000  C
  H46      1.0000 0.93168  0.20116  0.32772  Biso   1.000  H
  C65      1.0000 0.93729  0.15914  0.20507  Biso   1.000  C
  C66      1.0000 0.92718  0.20894  0.08403  Biso   1.000  C
  H47      1.0000 0.91482  0.28418  0.12601  Biso   1.000  H
  H48      1.0000 0.66596  0.73313  0.60627  Biso   1.000  H
  H49      1.0000 0.74449  0.73624  0.61110  Biso   1.000  H
  O13      1.0000 0.70623  0.68665  0.68640  Biso   1.000  O
  O14      1.0000 0.89791  0.33666  0.83451  Biso   1.000  O
  C67      1.0000 0.81167  0.33870  0.00122  Biso   1.000  C
  H50      1.0000 0.55476  0.07554  0.66773  Biso   1.000  H
  C68      1.0000 0.57752  0.01772  0.57383  Biso   1.000  C
  C69      1.0000 0.68299  0.03524  0.51599  Biso   1.000  C
  H51      1.0000 0.73053  0.10472  0.57141  Biso   1.000  H
  C70      1.0000 0.55734  0.67475  0.94017  Biso   1.000  C
  C71      1.0000 0.56573  0.61646  0.04837  Biso   1.000  C
  C72      1.0000 0.91757  0.38275  0.80784  Biso   1.000  C
  H52      1.0000 0.84526  0.21816  0.55038  Biso   1.000  H
  H53      1.0000 0.86800  0.19568  0.63690  Biso   1.000  H
  C73      1.0000 0.94188  0.20536  0.55932  Biso   1.000  C
  H54      1.0000 0.99653  0.49254  0.57671  Biso   1.000  H
  C74      1.0000 0.00427  0.53890  0.69688  Biso   1.000  C
  H55      1.0000 0.03671  0.46981  0.65302  Biso   1.000  H
  H56      1.0000 0.94292  0.12786  0.22488  Biso   1.000  H
  C75      1.0000 0.93556  0.16207  0.11378  Biso   1.000  C
  H57      1.0000 0.92602  0.21092  0.02317  Biso   1.000  H
  C76      1.0000 0.72117  0.71767  0.76781  Biso   1.000  C
  H58      1.0000 0.85689  0.32930  0.99793  Biso   1.000  H
  H59      1.0000 0.78348  0.30863  0.00901  Biso   1.000  H
  C77      1.0000 0.80891  0.38202  0.07786  Biso   1.000  C
  C78      1.0000 0.62565  0.00260  0.51693  Biso   1.000  C
  H60      1.0000 0.53929  0.99597  0.57443  Biso   1.000  H
  H61      1.0000 0.71511  0.02515  0.47811  Biso   1.000  H
  O15      1.0000 0.52757  0.68516  0.85943  Biso   1.000  O
  C79      1.0000 0.60410  0.71008  0.99498  Biso   1.000  C
  C80      1.0000 0.61250  0.65178  0.10318  Biso   1.000  C
  O16      1.0000 0.54661  0.56906  0.07081  Biso   1.000  O
  H62      1.0000 0.87859  0.40015  0.79266  Biso   1.000  H
  H63      1.0000 0.94460  0.40478  0.85708  Biso   1.000  H
  H64      1.0000 0.95409  0.22945  0.51989  Biso   1.000  H
  H65      1.0000 0.97769  0.20812  0.60728  Biso   1.000  H
  C81      1.0000 0.93531  0.15049  0.50598  Biso   1.000  C
  H66      1.0000 0.96198  0.55380  0.69218  Biso   1.000  H
  C82      1.0000 0.02428  0.53540  0.79434  Biso   1.000  C
  H67      1.0000 0.03726  0.56166  0.67592  Biso   1.000  H
  H68      1.0000 0.94012  0.13276  0.07261  Biso   1.000  H
  C83      1.0000 0.78724  0.72814  0.80482  Biso   1.000  C
  C84      1.0000 0.66964  0.73023  0.82040  Biso   1.000  C
  H69      1.0000 0.83212  0.37358  0.13180  Biso   1.000  H
  H70      1.0000 0.83169  0.41319  0.06436  Biso   1.000  H
  C85      1.0000 0.73740  0.39197  0.09533  Biso   1.000  C
  H71      1.0000 0.61938  0.97075  0.47959  Biso   1.000  H
  C86      1.0000 0.56717  0.67938  0.78662  Biso   1.000  C
  C87      1.0000 0.62543  0.76203  0.96629  Biso   1.000  C
  C88      1.0000 0.63169  0.69863  0.07645  Biso   1.000  C
  C89      1.0000 0.64337  0.63980  0.19333  Biso   1.000  C
  C90      1.0000 0.59326  0.53088  0.05717  Biso   1.000  C
  C91      1.0000 0.99048  0.13574  0.46253  Biso   1.000  C
  C92      1.0000 0.87887  0.11592  0.50001  Biso   1.000  C
  H72      1.0000 0.99749  0.50685  0.81066  Biso   1.000  H
  C93      1.0000 0.01669  0.58255  0.85802  Biso   1.000  C
  H73      1.0000 0.07042  0.52771  0.80045  Biso   1.000  H
  C94      1.0000 0.80175  0.75119  0.89442  Biso   1.000  C
  O17      1.0000 0.83489  0.71790  0.74853  Biso   1.000  O
  C95      1.0000 0.68414  0.75328  0.90994  Biso   1.000  C
  O18      1.0000 0.60575  0.72541  0.77903  Biso   1.000  O
  H74      1.0000 0.72016  0.36692  0.13012  Biso   1.000  H
  H75      1.0000 0.70992  0.38739  0.03843  Biso   1.000  H
  C96      1.0000 0.73282  0.44572  0.14523  Biso   1.000  C
  H76      1.0000 0.59679  0.65267  0.79407  Biso   1.000  H
  H77      1.0000 0.53845  0.66806  0.73134  Biso   1.000  H
  H78      1.0000 0.58842  0.77071  0.92680  Biso   1.000  H
  C97      1.0000 0.64117  0.80647  0.04300  Biso   1.000  C
  H79      1.0000 0.66288  0.72218  0.11299  Biso   1.000  H
  C98      1.0000 0.70480  0.61129  0.17385  Biso   1.000  C
  H80      1.0000 0.61133  0.61554  0.21368  Biso   1.000  H
  C99      1.0000 0.65572  0.68711  0.26694  Biso   1.000  C
  H81      1.0000 0.61995  0.53813  0.00962  Biso   1.000  H
  H82      1.0000 0.56910  0.49723  0.03810  Biso   1.000  H
  O19      1.0000 0.63550  0.52993  0.13569  Biso   1.000  O
  C100     1.0000 0.98919  0.08643  0.41289  Biso   1.000  C
  H83      1.0000 0.02810  0.15879  0.46649  Biso   1.000  H
  C101     1.0000 0.87762  0.06660  0.45030  Biso   1.000  C
  H84      1.0000 0.84209  0.12580  0.52902  Biso   1.000  H
  O20      1.0000 0.94566  0.58700  0.86212  Biso   1.000  O
  H85      1.0000 0.03729  0.61256  0.83773  Biso   1.000  H
  H86      1.0000 0.03802  0.58028  0.91699  Biso   1.000  H
  C102     1.0000 0.75027  0.76374  0.94695  Biso   1.000  C
  C103     1.0000 0.87418  0.76078  0.93258  Biso   1.000  C
  C104     1.0000 0.86632  0.67121  0.75270  Biso   1.000  C
  H87      1.0000 0.76611  0.45341  0.19662  Biso   1.000  H
  H88      1.0000 0.68913  0.44871  0.16639  Biso   1.000  H
  O21      1.0000 0.74401  0.48044  0.08290  Biso   1.000  O
  H89      1.0000 0.68574  0.80367  0.06994  Biso   1.000  H
  H90      1.0000 0.61103  0.80125  0.08780  Biso   1.000  H
  C105     1.0000 0.63830  0.85732  0.02749  Biso   1.000  C
  C106     1.0000 0.69679  0.55824  0.14342  Biso   1.000  C
  C107     1.0000 0.76783  0.63788  0.18204  Biso   1.000  C
  H91      1.0000 0.68323  0.71374  0.24632  Biso   1.000  H
  H92      1.0000 0.67942  0.67788  0.31981  Biso   1.000  H
  C108     1.0000 0.59042  0.70773  0.29119  Biso   1.000  C
  C109     1.0000 0.93268  0.05184  0.40678  Biso   1.000  C
  H93      1.0000 0.02591  0.07658  0.38380  Biso   1.000  H
  H94      1.0000 0.83990  0.04351  0.44627  Biso   1.000  H
  C110     1.0000 0.93183  0.62639  0.92633  Biso   1.000  C
  H95      1.0000 0.75996  0.77913  0.00673  Biso   1.000  H
  C111     1.0000 0.89402  0.71102  0.96569  Biso   1.000  C
  H96      1.0000 0.90039  0.76559  0.88260  Biso   1.000  H
  C112     1.0000 0.89032  0.80884  0.00411  Biso   1.000  C
  O22      1.0000 0.92454  0.68022  0.81463  Biso   1.000  O
  H97      1.0000 0.87808  0.65752  0.69352  Biso   1.000  H
  H98      1.0000 0.83531  0.64584  0.77090  Biso   1.000  H
  C113     1.0000 0.75178  0.53179  0.12125  Biso   1.000  C
  H99      1.0000 0.66211  0.86191  0.97597  Biso   1.000  H
  H100     1.0000 0.59221  0.86319  0.01284  Biso   1.000  H
  C114     1.0000 0.67030  0.90060  0.11440  Biso   1.000  C
  H101     1.0000 0.77321  0.67321  0.20226  Biso   1.000  H
  C115     1.0000 0.82281  0.61140  0.15988  Biso   1.000  C
  H102     1.0000 0.56525  0.68169  0.31651  Biso   1.000  H
  H103     1.0000 0.56498  0.71259  0.23631  Biso   1.000  H
  C116     1.0000 0.59595  0.75764  0.35635  Biso   1.000  C
  H104     1.0000 0.93179  0.01895  0.37373  Biso   1.000  H
  C117     1.0000 0.91609  0.67343  0.90242  Biso   1.000  C
  C118     1.0000 0.92548  0.61691  0.01345  Biso   1.000  C
  C119     1.0000 0.88763  0.70154  0.05281  Biso   1.000  C
  C120     1.0000 0.88172  0.85828  0.96717  Biso   1.000  C
  H105     1.0000 0.93596  0.80943  0.03024  Biso   1.000  H
  H106     1.0000 0.86152  0.80692  0.05160  Biso   1.000  H
  C121     1.0000 0.81481  0.55839  0.12945  Biso   1.000  C
  C122     1.0000 0.60414  0.89691  0.13334  Biso   1.000  C
  C123     1.0000 0.71690  0.93621  0.16935  Biso   1.000  C
  C124     1.0000 0.89242  0.64045  0.16747  Biso   1.000  C
  C125     1.0000 0.54494  0.79047  0.35574  Biso   1.000  C
  C126     1.0000 0.64942  0.76838  0.42304  Biso   1.000  C
  O23      1.0000 0.94597  0.57146  0.03588  Biso   1.000  O
  C127     1.0000 0.90336  0.65447  0.07672  Biso   1.000  C
  H107     1.0000 0.87294  0.72656  0.09492  Biso   1.000  H
  H108     1.0000 0.83535  0.85836  0.94460  Biso   1.000  H
  H109     1.0000 0.90801  0.85867  0.91672  Biso   1.000  H
  C128     1.0000 0.90103  0.90587  0.03199  Biso   1.000  C
  O24      1.0000 0.86795  0.52993  0.11386  Biso   1.000  O
  H110     1.0000 0.57312  0.87321  0.09680  Biso   1.000  H
  C129     1.0000 0.58440  0.92859  0.20710  Biso   1.000  C
  C130     1.0000 0.69712  0.96792  0.24303  Biso   1.000  C
  H111     1.0000 0.76103  0.93869  0.15672  Biso   1.000  H
  H112     1.0000 0.92445  0.61552  0.17888  Biso   1.000  H
  C131     1.0000 0.90456  0.68527  0.24834  Biso   1.000  C
  H113     1.0000 0.50932  0.78330  0.31121  Biso   1.000  H
  C132     1.0000 0.54742  0.83394  0.42170  Biso   1.000  C
  C133     1.0000 0.65186  0.81190  0.48900  Biso   1.000  C
  H114     1.0000 0.68344  0.74649  0.42338  Biso   1.000  H
  C134     1.0000 0.89528  0.53015  0.03037  Biso   1.000  C
  C135     1.0000 0.86500  0.91832  0.10560  Biso   1.000  C
  C136     1.0000 0.96102  0.93431  0.02634  Biso   1.000  C
  H115     1.0000 0.54023  0.92610  0.21972  Biso   1.000  H
  C137     1.0000 0.63094  0.96411  0.26191  Biso   1.000  C
  H116     1.0000 0.72823  0.99159  0.27964  Biso   1.000  H
  H117     1.0000 0.87174  0.70984  0.24202  Biso   1.000  H
  H118     1.0000 0.94831  0.70297  0.24834  Biso   1.000  H
  C138     1.0000 0.89994  0.66544  0.33707  Biso   1.000  C
  H119     1.0000 0.51334  0.85582  0.42123  Biso   1.000  H
  C139     1.0000 0.60084  0.84468  0.48833  Biso   1.000  C
  H120     1.0000 0.68751  0.81901  0.53340  Biso   1.000  H
  H121     1.0000 0.86009  0.53354  0.98436  Biso   1.000  H
  H122     1.0000 0.91383  0.49765  0.01304  Biso   1.000  H
  H123     1.0000 0.82504  0.89942  0.10943  Biso   1.000  H
  C140     1.0000 0.88901  0.95920  0.17351  Biso   1.000  C
  H124     1.0000 0.98502  0.92599  0.97718  Biso   1.000  H
  C141     1.0000 0.98501  0.97511  0.09418  Biso   1.000  C
  H125     1.0000 0.61773  0.98529  0.31114  Biso   1.000  H
  H126     1.0000 0.93807  0.64614  0.34734  Biso   1.000  H
  H127     1.0000 0.86045  0.64145  0.33075  Biso   1.000  H
  C142     1.0000 0.89716  0.70504  0.41962  Biso   1.000  C
  H128     1.0000 0.60242  0.87367  0.53233  Biso   1.000  H
  H129     1.0000 0.86500  0.96750  0.22254  Biso   1.000  H
  C143     1.0000 0.94903  0.98759  0.16773  Biso   1.000  C
  H130     1.0000 0.02503  0.99412  0.09029  Biso   1.000  H
  C144     1.0000 0.93578  0.70099  0.49874  Biso   1.000  C
  C145     1.0000 0.85319  0.74330  0.41895  Biso   1.000  C
  H131     1.0000 0.96499  0.01480  0.21301  Biso   1.000  H
  H132     1.0000 0.96511  0.67546  0.49921  Biso   1.000  H
  C146     1.0000 0.93038  0.73523  0.57720  Biso   1.000  C
  C147     1.0000 0.84749  0.77755  0.49740  Biso   1.000  C
  H133     1.0000 0.82742  0.74599  0.36615  Biso   1.000  H
  H134     1.0000 0.95610  0.73255  0.62999  Biso   1.000  H
  C148     1.0000 0.88636  0.77353  0.57653  Biso   1.000  C
  H135     1.0000 0.81841  0.80308  0.49693  Biso   1.000  H
  H136     1.0000 0.88275  0.79634  0.62885  Biso   1.000  H
  C149     1.0000 0.44767  0.56589  0.52298  Biso   1.000  C
  O25      1.0000 0.42658  0.57697  0.61104  Biso   1.000  O
  O26      1.0000 0.48335  0.60962  0.50001  Biso   1.000  O
  H137     1.0000 0.47584  0.53757  0.52049  Biso   1.000  H
  H138     1.0000 0.40904  0.55530  0.47972  Biso   1.000  H
  C150     1.0000 0.36428  0.59455  0.61225  Biso   1.000  C
  C151     1.0000 0.44589  0.64125  0.45608  Biso   1.000  C
  C152     1.0000 0.31033  0.55847  0.61265  Biso   1.000  C
  C153     1.0000 0.35459  0.64679  0.61876  Biso   1.000  C
  C154     1.0000 0.41506  0.68126  0.50269  Biso   1.000  C
  C155     1.0000 0.44770  0.63724  0.36338  Biso   1.000  C
  O27      1.0000 0.31931  0.50722  0.58397  Biso   1.000  O
  C156     1.0000 0.24664  0.57467  0.61957  Biso   1.000  C
  C157     1.0000 0.29090  0.66300  0.62568  Biso   1.000  C
  C158     1.0000 0.41294  0.68330  0.60405  Biso   1.000  C
  C159     1.0000 0.38599  0.71726  0.45662  Biso   1.000  C
  O28      1.0000 0.48295  0.59884  0.32308  Biso   1.000  O
  C160     1.0000 0.41867  0.67320  0.31731  Biso   1.000  C
  C161     1.0000 0.31233  0.47330  0.64838  Biso   1.000  C
  O29      1.0000 0.19572  0.53759  0.61809  Biso   1.000  O
  C162     1.0000 0.23695  0.62692  0.62608  Biso   1.000  C
  H139     1.0000 0.28447  0.69780  0.63005  Biso   1.000  H
  H140     1.0000 0.45336  0.66879  0.62575  Biso   1.000  H
  C163     1.0000 0.41515  0.73762  0.65651  Biso   1.000  C
  H141     1.0000 0.36540  0.74392  0.48771  Biso   1.000  H
  C164     1.0000 0.38779  0.71321  0.36392  Biso   1.000  C
  C165     1.0000 0.44900  0.56080  0.25215  Biso   1.000  C
  O30      1.0000 0.42668  0.67073  0.22656  Biso   1.000  O
  C166     1.0000 0.30811  0.42016  0.59445  Biso   1.000  C
  H142     1.0000 0.27230  0.47857  0.67821  Biso   1.000  H
  H143     1.0000 0.35047  0.47874  0.69325  Biso   1.000  H
  C167     1.0000 0.15637  0.52013  0.53393  Biso   1.000  C
  C168     1.0000 0.16590  0.64221  0.62763  Biso   1.000  C
  H144     1.0000 0.41183  0.73545  0.71938  Biso   1.000  H
  H145     1.0000 0.37684  0.75394  0.63508  Biso   1.000  H
  C169     1.0000 0.47767  0.77087  0.64852  Biso   1.000  C
  C170     1.0000 0.35920  0.75316  0.31415  Biso   1.000  C
  C171     1.0000 0.48552  0.51343  0.25222  Biso   1.000  C
  H146     1.0000 0.44987  0.57281  0.19479  Biso   1.000  H
  H147     1.0000 0.40298  0.55370  0.26303  Biso   1.000  H
  C172     1.0000 0.37166  0.65293  0.16161  Biso   1.000  C
  C173     1.0000 0.36616  0.40045  0.56603  Biso   1.000  C
  C174     1.0000 0.24612  0.39474  0.56032  Biso   1.000  C
  O31      1.0000 0.10032  0.54824  0.52593  Biso   1.000  O
  H148     1.0000 0.18330  0.52406  0.48510  Biso   1.000  H
  H149     1.0000 0.14195  0.48380  0.52956  Biso   1.000  H
  C175     1.0000 0.13496  0.63963  0.52990  Biso   1.000  C
  H150     1.0000 0.14075  0.61546  0.62561  Biso   1.000  H
  C176     1.0000 0.15898  0.69377  0.68808  Biso   1.000  C
  H151     1.0000 0.51589  0.75583  0.67357  Biso   1.000  H
  H152     1.0000 0.48250  0.77147  0.58551  Biso   1.000  H
  C177     1.0000 0.47675  0.82459  0.69567  Biso   1.000  C
  C178     1.0000 0.28904  0.73305  0.27492  Biso   1.000  C
  H153     1.0000 0.38561  0.75587  0.26357  Biso   1.000  H
  C179     1.0000 0.36391  0.80753  0.37151  Biso   1.000  C
  C180     1.0000 0.46821  0.47265  0.16859  Biso   1.000  C
  H154     1.0000 0.47585  0.49813  0.30448  Biso   1.000  H
  H155     1.0000 0.53296  0.52347  0.25793  Biso   1.000  H
  H156     1.0000 0.38786  0.63616  0.10707  Biso   1.000  H
  H157     1.0000 0.34334  0.62745  0.18404  Biso   1.000  H
  O32      1.0000 0.33337  0.69306  0.14085  Biso   1.000  O
  C181     1.0000 0.36219  0.35527  0.50343  Biso   1.000  C
  H158     1.0000 0.40747  0.41739  0.58874  Biso   1.000  H
  C182     1.0000 0.24216  0.34957  0.49779  Biso   1.000  C
  H159     1.0000 0.20742  0.40787  0.57927  Biso   1.000  H
  C183     1.0000 0.10699  0.59182  0.48409  Biso   1.000  C
  C184     1.0000 0.13581  0.68274  0.48664  Biso   1.000  C
  H160     1.0000 0.18012  0.72163  0.66262  Biso   1.000  H
  H161     1.0000 0.18203  0.69370  0.74692  Biso   1.000  H
  C185     1.0000 0.08594  0.70359  0.69829  Biso   1.000  C
  C186     1.0000 0.46351  0.86415  0.64691  Biso   1.000  C
  C187     1.0000 0.48968  0.83547  0.78897  Biso   1.000  C
  C188     1.0000 0.23444  0.74131  0.32382  Biso   1.000  C
  C189     1.0000 0.28075  0.70116  0.19143  Biso   1.000  C
  H162     1.0000 0.40913  0.81642  0.39939  Biso   1.000  H
  H163     1.0000 0.33480  0.80694  0.41907  Biso   1.000  H
  C190     1.0000 0.34409  0.84951  0.31449  Biso   1.000  C
  C191     1.0000 0.51335  0.43046  0.16497  Biso   1.000  C
  H164     1.0000 0.42274  0.45809  0.16792  Biso   1.000  H
  H165     1.0000 0.47107  0.48891  0.11560  Biso   1.000  H
  C192     1.0000 0.30020  0.32985  0.46938  Biso   1.000  C
  H166     1.0000 0.40089  0.34213  0.48449  Biso   1.000  H
  H167     1.0000 0.20085  0.33262  0.47509  Biso   1.000  H
  C193     1.0000 0.07977  0.58711  0.39502  Biso   1.000  C
  C194     1.0000 0.10863  0.67800  0.39757  Biso   1.000  C
  H168     1.0000 0.15447  0.71461  0.51720  Biso   1.000  H
  H169     1.0000 0.06420  0.70703  0.64012  Biso   1.000  H
  H170     1.0000 0.06373  0.67390  0.71757  Biso   1.000  H
  C195     1.0000 0.07786  0.75002  0.76291  Biso   1.000  C
  H171     1.0000 0.45479  0.85690  0.58471  Biso   1.000  H
  C196     1.0000 0.46319  0.91454  0.69137  Biso   1.000  C
  C197     1.0000 0.48942  0.88591  0.83350  Biso   1.000  C
  H172     1.0000 0.49859  0.80910  0.82148  Biso   1.000  H
  C198     1.0000 0.17160  0.71768  0.28936  Biso   1.000  C
  H173     1.0000 0.23998  0.76256  0.37944  Biso   1.000  H
  C199     1.0000 0.21786  0.67754  0.15697  Biso   1.000  C
  H174     1.0000 0.37029  0.84824  0.26371  Biso   1.000  H
  H175     1.0000 0.29748  0.84286  0.29151  Biso   1.000  H
  C200     1.0000 0.35582  0.90191  0.37111  Biso   1.000  C
  O33      1.0000 0.51697  0.40347  0.07651  Biso   1.000  O
  H176     1.0000 0.55775  0.44496  0.19009  Biso   1.000  H
  H177     1.0000 0.49817  0.40606  0.20238  Biso   1.000  H
  C201     1.0000 0.29559  0.28670  0.39086  Biso   1.000  C
  O34      1.0000 0.06151  0.54024  0.34451  Biso   1.000  O
  C202     1.0000 0.08062  0.63022  0.35176  Biso   1.000  C
  C203     1.0000 0.11337  0.72391  0.34471  Biso   1.000  C
  C204     1.0000 0.06943  0.79690  0.73322  Biso   1.000  C
  C205     1.0000 0.07954  0.74710  0.85426  Biso   1.000  C
  H178     1.0000 0.45428  0.94091  0.65893  Biso   1.000  H
  C206     1.0000 0.47612  0.92545  0.78467  Biso   1.000  C
  H179     1.0000 0.49809  0.89318  0.89570  Biso   1.000  H
  C207     1.0000 0.16331  0.68579  0.20587  Biso   1.000  C
  O35      1.0000 0.21203  0.64214  0.08000  Biso   1.000  O
  C208     1.0000 0.41317  0.93452  0.37030  Biso   1.000  C
  C209     1.0000 0.30774  0.91703  0.42800  Biso   1.000  C
  C210     1.0000 0.46184  0.37206  0.03318  Biso   1.000  C
  O36      1.0000 0.29377  0.31338  0.31361  Biso   1.000  O
  H180     1.0000 0.33403  0.26691  0.39375  Biso   1.000  H
  H181     1.0000 0.25550  0.26380  0.38891  Biso   1.000  H
  C211     1.0000 0.00166  0.51171  0.36070  Biso   1.000  C
  O37      1.0000 0.04488  0.62552  0.26847  Biso   1.000  O
  H182     1.0000 0.07301  0.72056  0.30280  Biso   1.000  H
  C212     1.0000 0.11926  0.77966  0.40140  Biso   1.000  C
  H183     1.0000 0.06831  0.79883  0.67230  Biso   1.000  H
  C213     1.0000 0.06269  0.84085  0.79488  Biso   1.000  C
  C214     1.0000 0.07285  0.79105  0.91592  Biso   1.000  C
  H184     1.0000 0.08522  0.71582  0.87400  Biso   1.000  H
  H185     1.0000 0.47592  0.95903  0.81443  Biso   1.000  H
  O38      1.0000 0.10208  0.66336  0.16544  Biso   1.000  O
  C215     1.0000 0.18832  0.66130  0.99879  Biso   1.000  C
  H186     1.0000 0.44523  0.92446  0.33229  Biso   1.000  H
  C216     1.0000 0.42247  0.98228  0.42619  Biso   1.000  C
  C217     1.0000 0.31700  0.96476  0.48402  Biso   1.000  C
  H187     1.0000 0.26946  0.89528  0.42861  Biso   1.000  H
  C218     1.0000 0.44265  0.32525  0.05985  Biso   1.000  C
  C219     1.0000 0.43426  0.38354  0.95164  Biso   1.000  C
  C220     1.0000 0.27882  0.28233  0.23220  Biso   1.000  C
  C221     1.0000 0.99572  0.46109  0.30307  Biso   1.000  C
  H188     1.0000 0.00351  0.50745  0.42330  Biso   1.000  H
  H189     1.0000 0.96332  0.53019  0.34700  Biso   1.000  H
  C222     1.0000 0.08242  0.61724  0.19217  Biso   1.000  C
  H190     1.0000 0.15473  0.78184  0.44963  Biso   1.000  H
  H191     1.0000 0.13203  0.80431  0.36312  Biso   1.000  H
  C223     1.0000 0.05811  0.79464  0.44070  Biso   1.000  C
  H192     1.0000 0.05712  0.87213  0.77513  Biso   1.000  H
  C224     1.0000 0.06443  0.83793  0.88623  Biso   1.000  C
  H193     1.0000 0.07398  0.78912  0.97684  Biso   1.000  H
  C225     1.0000 0.19108  0.61798  0.92215  Biso   1.000  C
  H194     1.0000 0.14311  0.67074  0.00208  Biso   1.000  H
  H195     1.0000 0.21651  0.69136  0.99100  Biso   1.000  H
  C226     1.0000 0.37439  0.99740  0.48308  Biso   1.000  C
  H196     1.0000 0.46075  0.00403  0.42558  Biso   1.000  H
  H197     1.0000 0.28488  0.97485  0.52190  Biso   1.000  H
  C227     1.0000 0.39589  0.28992  0.00504  Biso   1.000  C
  O39      1.0000 0.47246  0.31483  0.14058  Biso   1.000  O
  C228     1.0000 0.38749  0.34821  0.89683  Biso   1.000  C
  O40      1.0000 0.45338  0.43094  0.92920  Biso   1.000  O
  C229     1.0000 0.21274  0.27185  0.19513  Biso   1.000  C
  C230     1.0000 0.33040  0.26977  0.17961  Biso   1.000  C
  C231     1.0000 0.97571  0.46459  0.20567  Biso   1.000  C
  H198     1.0000 0.03801  0.44619  0.30777  Biso   1.000  H
  H199     1.0000 0.96273  0.43833  0.32409  Biso   1.000  H
  H200     1.0000 0.12140  0.59985  0.20735  Biso   1.000  H
  H201     1.0000 0.05544  0.59522  0.14294  Biso   1.000  H
  H202     1.0000 0.04590  0.77054  0.48012  Biso   1.000  H
  H203     1.0000 0.02229  0.79187  0.39267  Biso   1.000  H
  C232     1.0000 0.06472  0.84950  0.49403  Biso   1.000  C
  H204     1.0000 0.05992  0.86723  0.92740  Biso   1.000  H
  C233     1.0000 0.26259  0.60802  0.90469  Biso   1.000  C
  H205     1.0000 0.16787  0.62642  0.86821  Biso   1.000  H
  H206     1.0000 0.16835  0.58680  0.93565  Biso   1.000  H
  H207     1.0000 0.38060  0.02925  0.52043  Biso   1.000  H
  C234     1.0000 0.37455  0.23796  0.03372  Biso   1.000  C
  C235     1.0000 0.36830  0.30140  0.92349  Biso   1.000  C
  C236     1.0000 0.43283  0.32066  0.21340  Biso   1.000  C
  C237     1.0000 0.35662  0.36019  0.80662  Biso   1.000  C
  C238     1.0000 0.40678  0.46911  0.94284  Biso   1.000  C
  C239     1.0000 0.19824  0.24880  0.10559  Biso   1.000  C
  O41      1.0000 0.16515  0.28209  0.25148  Biso   1.000  O
  C240     1.0000 0.31585  0.24672  0.09007  Biso   1.000  C
  O42      1.0000 0.39429  0.27463  0.22099  Biso   1.000  O
  C241     1.0000 0.98329  0.41745  0.14200  Biso   1.000  C
  H208     1.0000 0.00250  0.49315  0.18935  Biso   1.000  H
  H209     1.0000 0.92957  0.47229  0.19956  Biso   1.000  H
  C242     1.0000 0.00951  0.86426  0.53749  Biso   1.000  C
  C243     1.0000 0.12112  0.88408  0.50001  Biso   1.000  C
  C244     1.0000 0.26723  0.55431  0.85478  Biso   1.000  C
  H210     1.0000 0.27983  0.63307  0.86983  Biso   1.000  H
  H211     1.0000 0.29007  0.61264  0.96158  Biso   1.000  H
  H212     1.0000 0.41157  0.22929  0.07321  Biso   1.000  H
  C245     1.0000 0.35882  0.19353  0.95701  Biso   1.000  C
  H213     1.0000 0.33715  0.27781  0.88695  Biso   1.000  H
  H214     1.0000 0.40325  0.34732  0.20587  Biso   1.000  H
  H215     1.0000 0.46154  0.33194  0.26868  Biso   1.000  H
  C246     1.0000 0.29519  0.38871  0.82617  Biso   1.000  C
  H216     1.0000 0.38872  0.38449  0.78634  Biso   1.000  H
  C247     1.0000 0.34432  0.31289  0.73307  Biso   1.000  C
  H217     1.0000 0.38009  0.46187  0.99039  Biso   1.000  H
  H218     1.0000 0.43089  0.50277  0.96192  Biso   1.000  H
  O43      1.0000 0.36449  0.47010  0.86432  Biso   1.000  O
  C248     1.0000 0.24977  0.23625  0.05300  Biso   1.000  C
  C249     1.0000 0.12581  0.23926  0.06744  Biso   1.000  C
  C250     1.0000 0.13372  0.32878  0.24732  Biso   1.000  C
  O44      1.0000 0.05433  0.41300  0.13790  Biso   1.000  O
  H219     1.0000 0.96270  0.38743  0.16228  Biso   1.000  H
  H220     1.0000 0.96197  0.41971  0.08295  Biso   1.000  H
  C251     1.0000 0.01080  0.91356  0.58712  Biso   1.000  C
  H221     1.0000 0.97189  0.84121  0.53352  Biso   1.000  H
  C252     1.0000 0.12242  0.93339  0.54971  Biso   1.000  C
  H222     1.0000 0.15790  0.87420  0.47099  Biso   1.000  H
  O45      1.0000 0.25598  0.51955  0.91711  Biso   1.000  O
  H223     1.0000 0.23388  0.54659  0.80340  Biso   1.000  H
  H224     1.0000 0.31086  0.55129  0.83362  Biso   1.000  H
  H225     1.0000 0.31425  0.19633  0.93008  Biso   1.000  H
  H226     1.0000 0.38896  0.19875  0.91221  Biso   1.000  H
  C253     1.0000 0.36169  0.14271  0.97246  Biso   1.000  C
  C254     1.0000 0.23216  0.36215  0.81797  Biso   1.000  C
  C255     1.0000 0.30320  0.44176  0.85659  Biso   1.000  C
  H227     1.0000 0.31676  0.28625  0.75369  Biso   1.000  H
  H228     1.0000 0.32062  0.32211  0.68021  Biso   1.000  H
  C256     1.0000 0.40957  0.29230  0.70882  Biso   1.000  C
  H229     1.0000 0.24003  0.22086  0.99328  Biso   1.000  H
  C257     1.0000 0.10598  0.28901  0.03432  Biso   1.000  C
  H230     1.0000 0.09960  0.23441  0.11741  Biso   1.000  H
  C258     1.0000 0.10967  0.19116  0.99590  Biso   1.000  C
  O46      1.0000 0.07549  0.31977  0.18532  Biso   1.000  O
  H231     1.0000 0.12192  0.34252  0.30649  Biso   1.000  H
  H232     1.0000 0.16472  0.35416  0.22911  Biso   1.000  H
  C259     1.0000 0.06817  0.37364  0.07368  Biso   1.000  C
  C260     1.0000 0.06730  0.94815  0.59317  Biso   1.000  C
  H233     1.0000 0.97408  0.92341  0.61621  Biso   1.000  H
  H234     1.0000 0.16009  0.95652  0.55367  Biso   1.000  H
  C261     1.0000 0.24821  0.46821  0.87876  Biso   1.000  C
  H235     1.0000 0.33788  0.13812  0.02398  Biso   1.000  H
  H236     1.0000 0.40778  0.13680  0.98717  Biso   1.000  H
  C262     1.0000 0.32969  0.09939  0.88561  Biso   1.000  C
  C263     1.0000 0.17718  0.38860  0.84014  Biso   1.000  C
  H237     1.0000 0.22678  0.32679  0.79775  Biso   1.000  H
  H238     1.0000 0.43473  0.31834  0.68343  Biso   1.000  H
  H239     1.0000 0.43506  0.28741  0.76370  Biso   1.000  H
  C264     1.0000 0.40404  0.24235  0.64367  Biso   1.000  C
  C265     1.0000 0.08390  0.32656  0.09753  Biso   1.000  C
  C266     1.0000 0.11237  0.29849  0.94721  Biso   1.000  C
  C267     1.0000 0.11831  0.14171  0.03278  Biso   1.000  C
  H240     1.0000 0.06408  0.19056  0.96977  Biso   1.000  H
  H241     1.0000 0.13852  0.19308  0.94841  Biso   1.000  H
  C268     1.0000 0.07450  0.38308  0.98650  Biso   1.000  C
  H242     1.0000 0.06820  0.98105  0.62628  Biso   1.000  H
  C269     1.0000 0.18517  0.44160  0.87050  Biso   1.000  C
  C270     1.0000 0.39585  0.10308  0.86667  Biso   1.000  C
  C271     1.0000 0.28308  0.06379  0.83067  Biso   1.000  C
  C272     1.0000 0.10757  0.35954  0.83255  Biso   1.000  C
  C273     1.0000 0.45505  0.20953  0.64427  Biso   1.000  C
  C274     1.0000 0.35057  0.23161  0.57697  Biso   1.000  C
  C275     1.0000 0.09663  0.34553  0.92329  Biso   1.000  C
  H243     1.0000 0.12710  0.27343  0.90502  Biso   1.000  H
  H244     1.0000 0.16464  0.14164  0.05541  Biso   1.000  H
  H245     1.0000 0.09198  0.14132  0.08329  Biso   1.000  H
  C276     1.0000 0.09895  0.09411  0.96796  Biso   1.000  C
  O47      1.0000 0.05401  0.42853  0.96406  Biso   1.000  O
  O48      1.0000 0.13204  0.47007  0.88615  Biso   1.000  O
  H246     1.0000 0.42686  0.12679  0.90321  Biso   1.000  H
  C277     1.0000 0.41559  0.07141  0.79292  Biso   1.000  C
  C278     1.0000 0.30287  0.03208  0.75698  Biso   1.000  C
  H247     1.0000 0.23896  0.06130  0.84329  Biso   1.000  H
  H248     1.0000 0.07554  0.38447  0.82106  Biso   1.000  H
  C279     1.0000 0.09543  0.31472  0.75168  Biso   1.000  C
  H249     1.0000 0.49067  0.21670  0.68881  Biso   1.000  H
  C280     1.0000 0.45257  0.16605  0.57831  Biso   1.000  C
  C281     1.0000 0.34813  0.18810  0.51101  Biso   1.000  C
  H250     1.0000 0.31660  0.25350  0.57657  Biso   1.000  H
  C282     1.0000 0.13499  0.08171  0.89441  Biso   1.000  C
  C283     1.0000 0.03897  0.06568  0.97367  Biso   1.000  C
  C284     1.0000 0.10471  0.46984  0.96964  Biso   1.000  C
  H251     1.0000 0.45976  0.07389  0.78029  Biso   1.000  H
  C285     1.0000 0.36910  0.03589  0.73811  Biso   1.000  C
  H252     1.0000 0.27176  0.00841  0.72038  Biso   1.000  H
  H253     1.0000 0.12825  0.29015  0.75799  Biso   1.000  H
  H254     1.0000 0.05168  0.29703  0.75168  Biso   1.000  H
  C286     1.0000 0.10009  0.33455  0.66288  Biso   1.000  C
  H255     1.0000 0.48669  0.14418  0.57878  Biso   1.000  H
  C287     1.0000 0.39915  0.15532  0.51168  Biso   1.000  C
  H256     1.0000 0.31248  0.18098  0.46661  Biso   1.000  H
  H257     1.0000 0.17500  0.10058  0.89058  Biso   1.000  H
  C288     1.0000 0.11098  0.04080  0.82650  Biso   1.000  C
  H258     1.0000 0.01502  0.07399  0.02277  Biso   1.000  H
  C289     1.0000 0.01497  0.02488  0.90576  Biso   1.000  C
  H259     1.0000 0.13990  0.46645  0.01565  Biso   1.000  H
  H260     1.0000 0.08616  0.50235  0.98697  Biso   1.000  H
  H261     1.0000 0.38226  0.01470  0.68887  Biso   1.000  H
  H262     1.0000 0.06192  0.35385  0.65267  Biso   1.000  H
  H263     1.0000 0.13954  0.35855  0.66926  Biso   1.000  H
  C290     1.0000 0.10283  0.29495  0.58039  Biso   1.000  C
  H264     1.0000 0.39757  0.12632  0.46769  Biso   1.000  H
  H265     1.0000 0.13499  0.03249  0.77747  Biso   1.000  H
  C291     1.0000 0.05096  0.01241  0.83228  Biso   1.000  C
  H266     1.0000 0.97496  0.00591  0.90966  Biso   1.000  H
  C292     1.0000 0.06422  0.29904  0.50127  Biso   1.000  C
  C293     1.0000 0.14685  0.25669  0.58107  Biso   1.000  C
  H267     1.0000 0.03500  0.98520  0.78701  Biso   1.000  H
  H268     1.0000 0.03488  0.32454  0.50080  Biso   1.000  H
  C294     1.0000 0.06961  0.26476  0.42282  Biso   1.000  C
  C295     1.0000 0.15254  0.22245  0.50261  Biso   1.000  C
  H269     1.0000 0.17256  0.25400  0.63379  Biso   1.000  H
  H270     1.0000 0.04389  0.26745  0.37002  Biso   1.000  H
  C296     1.0000 0.11363  0.22650  0.42349  Biso   1.000  C
  H271     1.0000 0.18157  0.19691  0.50302  Biso   1.000  H
  H272     1.0000 0.11724  0.20366  0.37116  Biso   1.000  H
