data_image0
_cell_length_a       12.815
_cell_length_b       19.973
_cell_length_c       31.372
_cell_angle_alpha    90
_cell_angle_beta     92.46
_cell_angle_gamma    90

_symmetry_space_group_name_H-M    "P 1"
_symmetry_int_tables_number       1

loop_
  _symmetry_equiv_pos_as_xyz
  'x, y, z'

loop_
  _atom_site_label
  _atom_site_occupancy
  _atom_site_fract_x
  _atom_site_fract_y
  _atom_site_fract_z
  _atom_site_thermal_displace_type
  _atom_site_B_iso_or_equiv
  _atom_site_type_symbol
  C1       1.0000 0.54208  0.32018  0.46323  Biso   1.000  C
  N1       1.0000 0.44331  0.32374  0.43888  Biso   1.000  N
  N2       1.0000 0.59248  0.25630  0.46017  Biso   1.000  N
  H1       1.0000 0.53007  0.32949  0.49300  Biso   1.000  H
  H2       1.0000 0.58838  0.35458  0.45311  Biso   1.000  H
  C2       1.0000 0.34701  0.30006  0.45589  Biso   1.000  C
  C3       1.0000 0.42672  0.36634  0.40507  Biso   1.000  C
  C4       1.0000 0.57190  0.20147  0.48929  Biso   1.000  C
  C5       1.0000 0.68863  0.24969  0.44316  Biso   1.000  C
  C6       1.0000 0.26347  0.32704  0.42357  Biso   1.000  C
  N3       1.0000 0.33192  0.22806  0.45270  Biso   1.000  N
  H3       1.0000 0.33709  0.31668  0.48480  Biso   1.000  H
  N4       1.0000 0.32232  0.36760  0.39470  Biso   1.000  N
  O1       1.0000 0.49398  0.39714  0.38720  Biso   1.000  O
  N5       1.0000 0.48116  0.16092  0.47609  Biso   1.000  N
  C7       1.0000 0.66449  0.15371  0.48307  Biso   1.000  C
  H4       1.0000 0.56869  0.21669  0.51890  Biso   1.000  H
  N6       1.0000 0.72949  0.18981  0.45477  Biso   1.000  N
  O2       1.0000 0.73001  0.29229  0.42115  Biso   1.000  O
  N7       1.0000 0.21857  0.26786  0.40395  Biso   1.000  N
  H5       1.0000 0.21071  0.35358  0.43761  Biso   1.000  H
  C8       1.0000 0.25503  0.21103  0.42351  Biso   1.000  C
  C9       1.0000 0.37683  0.18069  0.48355  Biso   1.000  C
  C10      1.0000 0.27446  0.41596  0.36554  Biso   1.000  C
  C11      1.0000 0.50872  0.09743  0.46358  Biso   1.000  C
  N8       1.0000 0.61552  0.09373  0.46479  Biso   1.000  N
  H6       1.0000 0.70177  0.14379  0.51029  Biso   1.000  H
  C12      1.0000 0.83697  0.17098  0.44836  Biso   1.000  C
  C13      1.0000 0.12819  0.26771  0.37415  Biso   1.000  C
  O3       1.0000 0.22277  0.15391  0.41649  Biso   1.000  O
  H7       1.0000 0.33321  0.14099  0.48349  Biso   1.000  H
  H8       1.0000 0.37527  0.20052  0.51179  Biso   1.000  H
  N9       1.0000 0.24712  0.39003  0.32441  Biso   1.000  N
  H9       1.0000 0.32251  0.45301  0.36241  Biso   1.000  H
  H10      1.0000 0.21210  0.43349  0.37801  Biso   1.000  H
  O4       1.0000 0.44743  0.05287  0.45439  Biso   1.000  O
  C14      1.0000 0.67038  0.03014  0.46486  Biso   1.000  C
  N10      1.0000 0.84717  0.11961  0.41693  Biso   1.000  N
  H11      1.0000 0.86844  0.15551  0.47529  Biso   1.000  H
  H12      1.0000 0.87531  0.21028  0.43971  Biso   1.000  H
  N11      1.0000 0.15337  0.28463  0.33152  Biso   1.000  N
  H13      1.0000 0.07709  0.29930  0.38391  Biso   1.000  H
  H14      1.0000 0.09658  0.22350  0.37409  Biso   1.000  H
  C15      1.0000 0.15209  0.35273  0.31493  Biso   1.000  C
  C16      1.0000 0.30408  0.39994  0.28874  Biso   1.000  C
  N12      1.0000 0.73623  0.02303  0.42832  Biso   1.000  N
  H15      1.0000 0.71346  0.02639  0.49089  Biso   1.000  H
  H16      1.0000 0.61994  0.99399  0.46450  Biso   1.000  H
  C17      1.0000 0.84102  0.04847  0.42600  Biso   1.000  C
  C18      1.0000 0.89772  0.13058  0.37970  Biso   1.000  C
  C19      1.0000 0.15469  0.23707  0.29952  Biso   1.000  C
  C20      1.0000 0.15400  0.34181  0.26548  Biso   1.000  C
  H17      1.0000 0.08989  0.37741  0.32301  Biso   1.000  H
  N13      1.0000 0.25052  0.37285  0.25425  Biso   1.000  N
  O5       1.0000 0.38754  0.42898  0.28762  Biso   1.000  O
  C21      1.0000 0.70809  0.98378  0.39374  Biso   1.000  C
  C22      1.0000 0.88318  0.01562  0.38615  Biso   1.000  C
  H18      1.0000 0.88358  0.03670  0.45161  Biso   1.000  H
  N14      1.0000 0.91922  0.07060  0.36148  Biso   1.000  N
  O6       1.0000 0.91872  0.18610  0.36563  Biso   1.000  O
  N15      1.0000 0.15236  0.26971  0.26108  Biso   1.000  N
  O7       1.0000 0.15556  0.17724  0.30482  Biso   1.000  O
  H19      1.0000 0.09358  0.36259  0.25049  Biso   1.000  H
  C23      1.0000 0.28220  0.38452  0.21124  Biso   1.000  C
  O8       1.0000 0.62515  0.95519  0.38790  Biso   1.000  O
  N16      1.0000 0.79157  0.98132  0.36755  Biso   1.000  N
  H20      1.0000 0.93983  0.98408  0.39352  Biso   1.000  H
  C24      1.0000 0.98002  0.06489  0.32377  Biso   1.000  C
  C25      1.0000 0.13119  0.23557  0.22148  Biso   1.000  C
  N17      1.0000 0.32621  0.32704  0.19114  Biso   1.000  N
  H21      1.0000 0.33330  0.42042  0.21179  Biso   1.000  H
  H22      1.0000 0.22187  0.39949  0.19401  Biso   1.000  H
  C26      1.0000 0.79678  0.93506  0.33248  Biso   1.000  C
  N18      1.0000 0.91727  0.05583  0.28504  Biso   1.000  N
  H23      1.0000 0.02753  0.02729  0.32731  Biso   1.000  H
  H24      1.0000 0.02180  0.10509  0.32109  Biso   1.000  H
  N19      1.0000 0.22461  0.22460  0.19711  Biso   1.000  N
  H25      1.0000 0.09942  0.19261  0.22729  Biso   1.000  H
  H26      1.0000 0.08116  0.26160  0.20429  Biso   1.000  H
  C27      1.0000 0.26460  0.27572  0.16919  Biso   1.000  C
  C28      1.0000 0.43051  0.31918  0.18569  Biso   1.000  C
  N20      1.0000 0.78889  0.96655  0.29085  Biso   1.000  N
  H27      1.0000 0.86238  0.91088  0.33519  Biso   1.000  H
  H28      1.0000 0.74079  0.90272  0.33440  Biso   1.000  H
  C29      1.0000 0.88026  0.99129  0.27001  Biso   1.000  C
  C30      1.0000 0.89733  0.10569  0.25572  Biso   1.000  C
  C31      1.0000 0.25698  0.16237  0.18655  Biso   1.000  C
  H29      1.0000 0.20934  0.29500  0.15050  Biso   1.000  H
  C32      1.0000 0.34490  0.23712  0.14396  Biso   1.000  C
  N21      1.0000 0.44510  0.26436  0.16035  Biso   1.000  N
  O9       1.0000 0.49979  0.35538  0.20040  Biso   1.000  O
  C33      1.0000 0.70373  0.95914  0.26315  Biso   1.000  C
  C34      1.0000 0.83646  0.00661  0.22372  Biso   1.000  C
  H30      1.0000 0.93647  0.95799  0.27020  Biso   1.000  H
  N22      1.0000 0.84668  0.07831  0.22075  Biso   1.000  N
  O10      1.0000 0.92251  0.16467  0.25987  Biso   1.000  O
  O11      1.0000 0.22674  0.10955  0.20174  Biso   1.000  O
  N23      1.0000 0.32850  0.16843  0.15579  Biso   1.000  N
  H31      1.0000 0.33449  0.24398  0.11320  Biso   1.000  H
  C35      1.0000 0.54108  0.25484  0.13812  Biso   1.000  C
  N24      1.0000 0.72993  0.98238  0.22432  Biso   1.000  N
  O12      1.0000 0.61968  0.93526  0.27193  Biso   1.000  O
  H32      1.0000 0.87642  0.98348  0.20221  Biso   1.000  H
  C36      1.0000 0.83661  0.11310  0.18055  Biso   1.000  C
  C37      1.0000 0.37267  0.11080  0.13429  Biso   1.000  C
  N25      1.0000 0.59363  0.19331  0.15024  Biso   1.000  N
  H33      1.0000 0.58762  0.29219  0.14431  Biso   1.000  H
  H34      1.0000 0.52508  0.25429  0.10762  Biso   1.000  H
  C38      1.0000 0.66500  0.97381  0.18565  Biso   1.000  C
  N26      1.0000 0.72962  0.12962  0.16792  Biso   1.000  N
  H35      1.0000 0.87723  0.15411  0.18250  Biso   1.000  H
  H36      1.0000 0.86567  0.08542  0.15860  Biso   1.000  H
  N27      1.0000 0.47831  0.09588  0.14817  Biso   1.000  N
  H37      1.0000 0.37048  0.11921  0.10379  Biso   1.000  H
  H38      1.0000 0.32957  0.07190  0.13920  Biso   1.000  H
  C39      1.0000 0.56698  0.12983  0.13059  Biso   1.000  C
  C40      1.0000 0.69049  0.19296  0.16983  Biso   1.000  C
  N28      1.0000 0.61181  0.03475  0.17111  Biso   1.000  N
  H39      1.0000 0.70821  0.95779  0.16319  Biso   1.000  H
  H40      1.0000 0.61300  0.93972  0.19060  Biso   1.000  H
  C41      1.0000 0.66064  0.08426  0.14488  Biso   1.000  C
  C42      1.0000 0.50511  0.04116  0.17005  Biso   1.000  C
  H41      1.0000 0.55973  0.13348  0.09951  Biso   1.000  H
  O13      1.0000 0.73438  0.24218  0.18642  Biso   1.000  O
  H42      1.0000 0.69390  0.06389  0.12051  Biso   1.000  H
  O14      1.0000 0.44499  0.00110  0.18684  Biso   1.000  O
  C43      1.0000 0.45788  0.67982  0.53677  Biso   1.000  C
  N29      1.0000 0.40749  0.74370  0.53986  Biso   1.000  N
  N30      1.0000 0.55674  0.67626  0.56111  Biso   1.000  N
  H43      1.0000 0.46989  0.67051  0.50700  Biso   1.000  H
  H44      1.0000 0.41158  0.64542  0.54691  Biso   1.000  H
  C44      1.0000 0.42807  0.79853  0.51070  Biso   1.000  C
  C45      1.0000 0.31142  0.75031  0.55684  Biso   1.000  C
  C46      1.0000 0.65304  0.69994  0.54411  Biso   1.000  C
  C47      1.0000 0.57332  0.63366  0.59493  Biso   1.000  C
  N31      1.0000 0.51880  0.83908  0.52391  Biso   1.000  N
  C48      1.0000 0.33547  0.84629  0.51692  Biso   1.000  C
  H45      1.0000 0.43128  0.78331  0.48109  Biso   1.000  H
  O15      1.0000 0.27003  0.70771  0.57885  Biso   1.000  O
  N32      1.0000 0.27048  0.81019  0.54522  Biso   1.000  N
  N33      1.0000 0.66812  0.77194  0.54730  Biso   1.000  N
  H46      1.0000 0.66287  0.68332  0.51520  Biso   1.000  H
  C49      1.0000 0.73650  0.67296  0.57643  Biso   1.000  C
  O16      1.0000 0.50598  0.60286  0.61280  Biso   1.000  O
  N34      1.0000 0.67773  0.63240  0.60530  Biso   1.000  N
  C50      1.0000 0.49132  0.90257  0.53642  Biso   1.000  C
  C51      1.0000 0.62321  0.81931  0.51645  Biso   1.000  C
  N35      1.0000 0.38452  0.90627  0.53521  Biso   1.000  N
  H47      1.0000 0.29820  0.85621  0.48971  Biso   1.000  H
  C52      1.0000 0.16300  0.82902  0.55164  Biso   1.000  C
  C53      1.0000 0.74501  0.78897  0.57649  Biso   1.000  C
  N36      1.0000 0.78140  0.73214  0.59605  Biso   1.000  N
  H48      1.0000 0.78933  0.64642  0.56239  Biso   1.000  H
  C54      1.0000 0.72550  0.58404  0.63446  Biso   1.000  C
  O17      1.0000 0.55261  0.94713  0.54561  Biso   1.000  O
  H49      1.0000 0.66684  0.85901  0.51651  Biso   1.000  H
  H50      1.0000 0.62469  0.79948  0.48821  Biso   1.000  H
  C55      1.0000 0.32959  0.96986  0.53517  Biso   1.000  C
  N37      1.0000 0.15280  0.88039  0.58306  Biso   1.000  N
  H51      1.0000 0.13161  0.84449  0.52471  Biso   1.000  H
  H52      1.0000 0.12474  0.78972  0.56031  Biso   1.000  H
  O18      1.0000 0.77719  0.84609  0.58351  Biso   1.000  O
  C56      1.0000 0.87177  0.73229  0.62585  Biso   1.000  C
  N38      1.0000 0.75292  0.60997  0.67559  Biso   1.000  N
  H53      1.0000 0.67753  0.54699  0.63759  Biso   1.000  H
  H54      1.0000 0.78787  0.56651  0.62199  Biso   1.000  H
  N39      1.0000 0.26381  0.97697  0.57167  Biso   1.000  N
  H55      1.0000 0.28650  0.97361  0.50911  Biso   1.000  H
  H56      1.0000 0.38011  0.00601  0.53549  Biso   1.000  H
  C57      1.0000 0.15903  0.95153  0.57403  Biso   1.000  C
  C58      1.0000 0.10232  0.86942  0.62030  Biso   1.000  C
  N40      1.0000 0.84660  0.71537  0.66847  Biso   1.000  N
  H57      1.0000 0.92287  0.70070  0.61608  Biso   1.000  H
  H58      1.0000 0.90338  0.77650  0.62591  Biso   1.000  H
  C59      1.0000 0.84787  0.64727  0.68506  Biso   1.000  C
  C60      1.0000 0.69588  0.60006  0.71126  Biso   1.000  C
  C61      1.0000 0.29187  0.01622  0.60626  Biso   1.000  C
  C62      1.0000 0.11678  0.98438  0.61385  Biso   1.000  C
  H59      1.0000 0.11638  0.96330  0.54841  Biso   1.000  H
  O19      1.0000 0.08133  0.81390  0.63437  Biso   1.000  O
  N41      1.0000 0.08083  0.92940  0.63851  Biso   1.000  N
  C63      1.0000 0.84528  0.76293  0.70047  Biso   1.000  C
  H60      1.0000 0.91007  0.62259  0.67699  Biso   1.000  H
  C64      1.0000 0.84597  0.65819  0.73452  Biso   1.000  C
  O20      1.0000 0.61250  0.57102  0.71237  Biso   1.000  O
  N42      1.0000 0.74953  0.62715  0.74575  Biso   1.000  N
  O21      1.0000 0.37489  0.04481  0.61210  Biso   1.000  O
  N43      1.0000 0.20840  0.01868  0.63245  Biso   1.000  N
  H61      1.0000 0.06022  0.01592  0.60651  Biso   1.000  H
  C65      1.0000 0.02002  0.93511  0.67623  Biso   1.000  C
  O22      1.0000 0.84441  0.82276  0.69518  Biso   1.000  O
  N44      1.0000 0.84760  0.73029  0.73892  Biso   1.000  N
  H62      1.0000 0.90638  0.63741  0.74951  Biso   1.000  H
  C66      1.0000 0.71784  0.61548  0.78875  Biso   1.000  C
  C67      1.0000 0.20319  0.06494  0.66752  Biso   1.000  C
  N45      1.0000 0.08269  0.94417  0.71496  Biso   1.000  N
  H63      1.0000 0.97252  0.97271  0.67268  Biso   1.000  H
  H64      1.0000 0.97816  0.89491  0.67891  Biso   1.000  H
  C68      1.0000 0.86877  0.76443  0.77851  Biso   1.000  C
  N46      1.0000 0.67383  0.67296  0.80885  Biso   1.000  N
  H65      1.0000 0.66667  0.57958  0.78821  Biso   1.000  H
  H66      1.0000 0.77810  0.60051  0.80602  Biso   1.000  H
  N47      1.0000 0.21107  0.03345  0.70915  Biso   1.000  N
  H67      1.0000 0.13759  0.08912  0.66480  Biso   1.000  H
  H68      1.0000 0.25917  0.09728  0.66560  Biso   1.000  H
  C69      1.0000 0.10271  0.89431  0.74428  Biso   1.000  C
  C70      1.0000 0.11970  0.00871  0.72999  Biso   1.000  C
  N48      1.0000 0.77543  0.77540  0.80289  Biso   1.000  N
  H69      1.0000 0.90062  0.80739  0.77271  Biso   1.000  H
  H70      1.0000 0.91880  0.73840  0.79571  Biso   1.000  H
  C71      1.0000 0.73537  0.72428  0.83081  Biso   1.000  C
  C72      1.0000 0.56953  0.68082  0.81431  Biso   1.000  C
  C73      1.0000 0.29631  0.04086  0.73685  Biso   1.000  C
  O23      1.0000 0.07754  0.83533  0.74013  Biso   1.000  O
  N49      1.0000 0.15328  0.92169  0.77925  Biso   1.000  N
  C74      1.0000 0.16350  0.99339  0.77628  Biso   1.000  C
  H71      1.0000 0.06350  0.04201  0.72979  Biso   1.000  H
  C75      1.0000 0.74298  0.83763  0.81345  Biso   1.000  C
  H72      1.0000 0.79071  0.70500  0.84950  Biso   1.000  H
  C76      1.0000 0.65507  0.76288  0.85604  Biso   1.000  C
  O24      1.0000 0.50025  0.64462  0.79960  Biso   1.000  O
  N50      1.0000 0.55487  0.73564  0.83964  Biso   1.000  N
  O25      1.0000 0.38029  0.06474  0.72807  Biso   1.000  O
  N51      1.0000 0.27011  0.01762  0.77571  Biso   1.000  N
  C77      1.0000 0.16344  0.88690  0.81945  Biso   1.000  C
  H73      1.0000 0.12363  0.01652  0.79782  Biso   1.000  H
  O26      1.0000 0.77331  0.89045  0.79829  Biso   1.000  O
  N52      1.0000 0.67154  0.83157  0.84421  Biso   1.000  N
  H74      1.0000 0.66548  0.75602  0.88680  Biso   1.000  H
  C78      1.0000 0.45888  0.74516  0.86188  Biso   1.000  C
  C79      1.0000 0.33496  0.02619  0.81434  Biso   1.000  C
  N53      1.0000 0.27042  0.87038  0.83208  Biso   1.000  N
  H75      1.0000 0.12281  0.84589  0.81750  Biso   1.000  H
  H76      1.0000 0.13429  0.91458  0.84140  Biso   1.000  H
  C80      1.0000 0.62729  0.88920  0.86571  Biso   1.000  C
  N54      1.0000 0.40642  0.80669  0.84976  Biso   1.000  N
  H77      1.0000 0.41243  0.70781  0.85569  Biso   1.000  H
  H78      1.0000 0.47489  0.74571  0.89241  Biso   1.000  H
  N55      1.0000 0.38823  0.96525  0.82889  Biso   1.000  N
  H79      1.0000 0.29183  0.04221  0.83680  Biso   1.000  H
  H80      1.0000 0.38704  0.06028  0.80940  Biso   1.000  H
  C81      1.0000 0.33940  0.91574  0.85512  Biso   1.000  C
  C82      1.0000 0.30947  0.80704  0.83017  Biso   1.000  C
  N56      1.0000 0.52173  0.90412  0.85183  Biso   1.000  N
  H81      1.0000 0.62948  0.88079  0.89621  Biso   1.000  H
  H82      1.0000 0.67039  0.92810  0.86080  Biso   1.000  H
  C83      1.0000 0.43298  0.87017  0.86941  Biso   1.000  C
  C84      1.0000 0.49493  0.95884  0.82994  Biso   1.000  C
  H83      1.0000 0.30607  0.93611  0.87949  Biso   1.000  H
  O27      1.0000 0.26559  0.75782  0.81358  Biso   1.000  O
  H84      1.0000 0.44031  0.86652  0.90049  Biso   1.000  H
  O28      1.0000 0.55497  0.99890  0.81316  Biso   1.000  O
  C85      1.0000 0.66337  0.61308  0.31943  Biso   1.000  C
  N57      1.0000 0.65330  0.57833  0.27926  Biso   1.000  N
  N58      1.0000 0.77044  0.62965  0.33210  Biso   1.000  N
  H85      1.0000 0.62283  0.65408  0.31749  Biso   1.000  H
  H86      1.0000 0.63431  0.58539  0.34141  Biso   1.000  H
  C86      1.0000 0.66352  0.50663  0.27627  Biso   1.000  C
  C87      1.0000 0.60272  0.60567  0.24426  Biso   1.000  C
  C88      1.0000 0.83942  0.58429  0.35513  Biso   1.000  C
  C89      1.0000 0.80949  0.69299  0.33015  Biso   1.000  C
  C90      1.0000 0.61972  0.49131  0.23000  Biso   1.000  C
  N59      1.0000 0.77013  0.48240  0.27569  Biso   1.000  N
  H87      1.0000 0.62357  0.48350  0.29780  Biso   1.000  H
  N60      1.0000 0.58271  0.55580  0.21498  Biso   1.000  N
  O29      1.0000 0.57748  0.66465  0.24015  Biso   1.000  O
  N61      1.0000 0.88817  0.53472  0.32891  Biso   1.000  N
  C91      1.0000 0.93300  0.62985  0.36940  Biso   1.000  C
  H88      1.0000 0.80609  0.56391  0.37951  Biso   1.000  H
  O30      1.0000 0.76561  0.74215  0.31359  Biso   1.000  O
  N62      1.0000 0.90644  0.69329  0.34977  Biso   1.000  N
  N63      1.0000 0.71109  0.46658  0.20917  Biso   1.000  N
  H89      1.0000 0.56352  0.45802  0.22981  Biso   1.000  H
  C92      1.0000 0.79633  0.45912  0.23686  Biso   1.000  C
  C93      1.0000 0.83498  0.47384  0.31436  Biso   1.000  C
  C94      1.0000 0.51996  0.56491  0.17624  Biso   1.000  C
  C95      1.0000 0.99487  0.54113  0.32993  Biso   1.000  C
  N64      1.0000 0.02167  0.59590  0.35182  Biso   1.000  N
  H90      1.0000 0.94033  0.63351  0.40050  Biso   1.000  H
  C96      1.0000 0.95890  0.75482  0.36190  Biso   1.000  C
  C97      1.0000 0.70321  0.43509  0.16753  Biso   1.000  C
  O31      1.0000 0.88030  0.43524  0.22806  Biso   1.000  O
  H91      1.0000 0.79177  0.45782  0.33679  Biso   1.000  H
  H92      1.0000 0.88698  0.43969  0.30941  Biso   1.000  H
  N65      1.0000 0.58076  0.57062  0.13850  Biso   1.000  N
  H93      1.0000 0.47254  0.52731  0.17270  Biso   1.000  H
  H94      1.0000 0.47818  0.60512  0.17889  Biso   1.000  H
  O32      1.0000 0.05499  0.50108  0.31315  Biso   1.000  O
  C98      1.0000 0.12731  0.61077  0.36569  Biso   1.000  C
  H95      1.0000 0.91237  0.79222  0.35571  Biso   1.000  H
  H96      1.0000 0.97490  0.75432  0.39240  Biso   1.000  H
  N66      1.0000 0.05488  0.76438  0.33963  Biso   1.000  N
  N67      1.0000 0.70842  0.48130  0.13247  Biso   1.000  N
  H97      1.0000 0.63760  0.41090  0.16479  Biso   1.000  H
  H98      1.0000 0.75919  0.40269  0.16559  Biso   1.000  H
  C99      1.0000 0.61680  0.51560  0.11384  Biso   1.000  C
  C100     1.0000 0.60226  0.63060  0.12028  Biso   1.000  C
  N68      1.0000 0.17148  0.66840  0.34419  Biso   1.000  N
  H99      1.0000 0.12950  0.61919  0.39620  Biso   1.000  H
  H100     1.0000 0.17041  0.57192  0.36081  Biso   1.000  H
  C101     1.0000 0.15508  0.73715  0.35603  Biso   1.000  C
  C102     1.0000 0.06947  0.81916  0.31430  Biso   1.000  C
  C103     1.0000 0.79189  0.48380  0.10624  Biso   1.000  C
  H101     1.0000 0.56023  0.48410  0.10650  Biso   1.000  H
  C104     1.0000 0.65897  0.54849  0.07402  Biso   1.000  C
  O33      1.0000 0.58127  0.68613  0.13438  Biso   1.000  O
  N69      1.0000 0.65282  0.61964  0.08308  Biso   1.000  N
  C105     1.0000 0.24300  0.66239  0.31347  Biso   1.000  C
  C106     1.0000 0.23538  0.77575  0.33079  Biso   1.000  C
  H102     1.0000 0.16550  0.74400  0.38682  Biso   1.000  H
  O34      1.0000 0.00027  0.85540  0.29962  Biso   1.000  O
  N70      1.0000 0.17377  0.82702  0.30884  Biso   1.000  N
  O35      1.0000 0.87491  0.45516  0.11211  Biso   1.000  O
  N71      1.0000 0.76383  0.52301  0.07166  Biso   1.000  N
  H103     1.0000 0.61640  0.53672  0.04840  Biso   1.000  H
  C107     1.0000 0.66302  0.67101  0.05165  Biso   1.000  C
  O36      1.0000 0.27332  0.60952  0.29828  Biso   1.000  O
  N72      1.0000 0.27537  0.72458  0.30291  Biso   1.000  N
  H104     1.0000 0.29072  0.79502  0.34949  Biso   1.000  H
  C108     1.0000 0.21778  0.88454  0.28877  Biso   1.000  C
  C109     1.0000 0.82960  0.53017  0.03516  Biso   1.000  C
  N73      1.0000 0.77050  0.68983  0.04524  Biso   1.000  N
  H105     1.0000 0.63162  0.65548  0.02469  Biso   1.000  H
  H106     1.0000 0.62467  0.71031  0.06030  Biso   1.000  H
  C110     1.0000 0.36879  0.73559  0.27850  Biso   1.000  C
  N74      1.0000 0.24947  0.87283  0.24576  Biso   1.000  N
  H107     1.0000 0.16669  0.92039  0.28820  Biso   1.000  H
  H108     1.0000 0.27812  0.89951  0.30600  Biso   1.000  H
  N75      1.0000 0.88447  0.59375  0.03522  Biso   1.000  N
  H109     1.0000 0.78652  0.52641  0.00909  Biso   1.000  H
  H110     1.0000 0.88013  0.49402  0.03551  Biso   1.000  H
  C111     1.0000 0.83549  0.65368  0.01691  Biso   1.000  C
  C112     1.0000 0.81144  0.74966  0.05685  Biso   1.000  C
  N76      1.0000 0.34762  0.76969  0.23890  Biso   1.000  N
  H111     1.0000 0.40056  0.69258  0.27269  Biso   1.000  H
  H112     1.0000 0.41882  0.76158  0.29570  Biso   1.000  H
  C113     1.0000 0.34599  0.84179  0.23453  Biso   1.000  C
  C114     1.0000 0.19590  0.89991  0.21124  Biso   1.000  C
  C115     1.0000 0.99126  0.59741  0.03640  Biso   1.000  C
  C116     1.0000 0.92808  0.70145  0.01069  Biso   1.000  C
  H113     1.0000 0.79821  0.64382  0.98969  Biso   1.000  H
  O37      1.0000 0.76997  0.79232  0.07884  Biso   1.000  O
  N77      1.0000 0.90750  0.75632  0.03985  Biso   1.000  N
  C117     1.0000 0.34529  0.73710  0.20046  Biso   1.000  C
  C118     1.0000 0.34789  0.85275  0.18508  Biso   1.000  C
  H114     1.0000 0.40640  0.86261  0.24950  Biso   1.000  H
  O38      1.0000 0.11252  0.92900  0.21239  Biso   1.000  O
  N78      1.0000 0.25286  0.89000  0.17560  Biso   1.000  N
  O39      1.0000 0.05255  0.55285  0.04562  Biso   1.000  O
  N79      1.0000 0.01882  0.66094  0.02390  Biso   1.000  N
  H115     1.0000 0.93137  0.71672  0.98111  Biso   1.000  H
  C119     1.0000 0.95790  0.82021  0.03679  Biso   1.000  C
  O40      1.0000 0.34442  0.67721  0.19516  Biso   1.000  O
  N80      1.0000 0.34661  0.78461  0.16846  Biso   1.000  N
  H116     1.0000 0.41009  0.87738  0.17701  Biso   1.000  H
  C120     1.0000 0.22552  0.91594  0.13445  Biso   1.000  C
  C121     1.0000 0.12322  0.68072  0.01643  Biso   1.000  C
  H117     1.0000 0.96991  0.82952  0.00699  Biso   1.000  H
  H118     1.0000 0.91160  0.85460  0.04690  Biso   1.000  H
  N81      1.0000 0.05667  0.82376  0.06110  Biso   1.000  N
  C122     1.0000 0.37179  0.76769  0.12583  Biso   1.000  C
  N82      1.0000 0.17767  0.86757  0.10532  Biso   1.000  N
  H119     1.0000 0.17747  0.95299  0.13761  Biso   1.000  H
  H120     1.0000 0.28789  0.93351  0.12200  Biso   1.000  H
  H121     1.0000 0.12471  0.70050  0.98820  Biso   1.000  H
  N83      1.0000 0.16814  0.72803  0.04728  Biso   1.000  N
  H122     1.0000 0.16677  0.64102  0.01649  Biso   1.000  H
  C123     1.0000 0.15298  0.80008  0.04412  Biso   1.000  C
  C124     1.0000 0.07334  0.86632  0.09492  Biso   1.000  C
  N84      1.0000 0.28141  0.76789  0.09603  Biso   1.000  N
  H123     1.0000 0.42289  0.79928  0.11610  Biso   1.000  H
  H124     1.0000 0.40340  0.72348  0.12590  Biso   1.000  H
  C125     1.0000 0.23651  0.82702  0.07644  Biso   1.000  C
  C126     1.0000 0.24502  0.71106  0.07648  Biso   1.000  C
  H125     1.0000 0.16289  0.81670  0.01519  Biso   1.000  H
  O41      1.0000 0.00600  0.89716  0.11282  Biso   1.000  O
  H126     1.0000 0.28927  0.85360  0.06241  Biso   1.000  H
  O42      1.0000 0.27721  0.65393  0.08350  Biso   1.000  O
  C127     1.0000 0.33659  0.38692  0.68056  Biso   1.000  C
  N85      1.0000 0.22960  0.37035  0.66790  Biso   1.000  N
  N86      1.0000 0.34667  0.42167  0.72076  Biso   1.000  N
  H127     1.0000 0.37722  0.34592  0.68251  Biso   1.000  H
  H128     1.0000 0.36573  0.41461  0.65861  Biso   1.000  H
  C128     1.0000 0.16062  0.41571  0.64486  Biso   1.000  C
  C129     1.0000 0.19048  0.30701  0.66984  Biso   1.000  C
  C130     1.0000 0.33652  0.49337  0.72373  Biso   1.000  C
  C131     1.0000 0.39732  0.39433  0.75573  Biso   1.000  C
  C132     1.0000 0.06696  0.37015  0.63060  Biso   1.000  C
  N87      1.0000 0.11179  0.46528  0.67109  Biso   1.000  N
  H129     1.0000 0.19388  0.43609  0.62049  Biso   1.000  H
  N88      1.0000 0.09361  0.30671  0.65022  Biso   1.000  N
  O43      1.0000 0.23444  0.25785  0.68644  Biso   1.000  O
  N89      1.0000 0.22991  0.51760  0.72431  Biso   1.000  N
  H130     1.0000 0.37640  0.51650  0.70220  Biso   1.000  H
  C133     1.0000 0.38032  0.50869  0.76999  Biso   1.000  C
  O44      1.0000 0.42249  0.33535  0.75985  Biso   1.000  O
  N90      1.0000 0.41733  0.44420  0.78502  Biso   1.000  N
  H131     1.0000 0.05971  0.36649  0.59949  Biso   1.000  H
  N91      1.0000 0.97829  0.40410  0.64818  Biso   1.000  N
  C134     1.0000 0.00509  0.45887  0.67007  Biso   1.000  C
  C135     1.0000 0.16498  0.52616  0.68564  Biso   1.000  C
  C136     1.0000 0.04106  0.24518  0.63810  Biso   1.000  C
  C137     1.0000 0.20371  0.54088  0.76313  Biso   1.000  C
  N92      1.0000 0.28887  0.53342  0.79083  Biso   1.000  N
  H132     1.0000 0.43653  0.54198  0.77019  Biso   1.000  H
  C138     1.0000 0.48000  0.43509  0.82375  Biso   1.000  C
  C139     1.0000 0.87274  0.38923  0.63430  Biso   1.000  C
  O45      1.0000 0.94498  0.49892  0.68685  Biso   1.000  O
  H133     1.0000 0.20820  0.54218  0.66321  Biso   1.000  H
  H134     1.0000 0.11299  0.56031  0.69061  Biso   1.000  H
  H135     1.0000 0.08760  0.20778  0.64429  Biso   1.000  H
  H136     1.0000 0.02506  0.24568  0.60760  Biso   1.000  H
  N93      1.0000 0.94508  0.23562  0.66037  Biso   1.000  N
  O46      1.0000 0.11974  0.56476  0.77194  Biso   1.000  O
  C140     1.0000 0.29684  0.56491  0.83246  Biso   1.000  C
  N94      1.0000 0.41920  0.42938  0.86150  Biso   1.000  N
  H137     1.0000 0.52751  0.47269  0.82730  Biso   1.000  H
  H138     1.0000 0.52178  0.39488  0.82111  Biso   1.000  H
  N95      1.0000 0.82849  0.33160  0.65581  Biso   1.000  N
  H139     1.0000 0.87047  0.38081  0.60380  Biso   1.000  H
  H140     1.0000 0.82963  0.42808  0.63922  Biso   1.000  H
  C141     1.0000 0.84488  0.26285  0.64397  Biso   1.000  C
  C142     1.0000 0.93050  0.18084  0.68570  Biso   1.000  C
  N96      1.0000 0.29162  0.51870  0.86753  Biso   1.000  N
  H141     1.0000 0.36244  0.58910  0.83521  Biso   1.000  H
  H142     1.0000 0.24078  0.59731  0.83441  Biso   1.000  H
  C143     1.0000 0.38316  0.48440  0.88616  Biso   1.000  C
  C144     1.0000 0.39770  0.36940  0.87972  Biso   1.000  C
  C145     1.0000 0.75696  0.33761  0.68653  Biso   1.000  C
  C146     1.0000 0.76458  0.22425  0.66921  Biso   1.000  C
  H143     1.0000 0.83447  0.25600  0.61321  Biso   1.000  H
  O47      1.0000 0.99977  0.14460  0.70038  Biso   1.000  O
  N97      1.0000 0.82619  0.17298  0.69116  Biso   1.000  N
  C147     1.0000 0.20807  0.51620  0.89375  Biso   1.000  C
  H144     1.0000 0.43981  0.51590  0.89350  Biso   1.000  H
  C148     1.0000 0.34100  0.45151  0.92598  Biso   1.000  C
  O48      1.0000 0.41870  0.31387  0.86561  Biso   1.000  O
  N98      1.0000 0.34722  0.38036  0.91692  Biso   1.000  N
  O49      1.0000 0.72672  0.39048  0.70172  Biso   1.000  O
  N99      1.0000 0.72460  0.27542  0.69712  Biso   1.000  N
  H145     1.0000 0.70932  0.20498  0.65051  Biso   1.000  H
  C149     1.0000 0.78218  0.11546  0.71123  Biso   1.000  C
  O50      1.0000 0.12514  0.54484  0.88792  Biso   1.000  O
  N100     1.0000 0.23621  0.47699  0.92834  Biso   1.000  N
  H146     1.0000 0.38356  0.46328  0.95160  Biso   1.000  H
  C150     1.0000 0.33703  0.32899  0.94837  Biso   1.000  C
  C151     1.0000 0.63118  0.26441  0.72150  Biso   1.000  C
  N101     1.0000 0.75050  0.12717  0.75423  Biso   1.000  N
  H147     1.0000 0.83328  0.07961  0.71180  Biso   1.000  H
  H148     1.0000 0.72193  0.10049  0.69400  Biso   1.000  H
  C152     1.0000 0.17036  0.46983  0.96484  Biso   1.000  C
  N102     1.0000 0.22947  0.31017  0.95476  Biso   1.000  N
  H149     1.0000 0.36842  0.34452  0.97530  Biso   1.000  H
  H150     1.0000 0.37529  0.28969  0.93970  Biso   1.000  H
  N103     1.0000 0.65243  0.23031  0.76109  Biso   1.000  N
  H151     1.0000 0.59940  0.30742  0.72731  Biso   1.000  H
  H152     1.0000 0.58122  0.23842  0.70430  Biso   1.000  H
  C153     1.0000 0.65398  0.15821  0.76550  Biso   1.000  C
  C154     1.0000 0.80407  0.10009  0.78875  Biso   1.000  C
  N104     1.0000 0.11550  0.40625  0.96477  Biso   1.000  N
  H153     1.0000 0.21352  0.47359  0.99090  Biso   1.000  H
  H154     1.0000 0.11992  0.50598  0.96449  Biso   1.000  H
  C155     1.0000 0.16448  0.34632  0.98309  Biso   1.000  C
  C156     1.0000 0.18861  0.25034  0.94317  Biso   1.000  C
  C157     1.0000 0.65467  0.26290  0.79954  Biso   1.000  C
  C158     1.0000 0.65207  0.14725  0.81492  Biso   1.000  C
  H155     1.0000 0.59357  0.13739  0.75050  Biso   1.000  H
  O51      1.0000 0.88752  0.07100  0.78761  Biso   1.000  O
  N105     1.0000 0.74710  0.11000  0.82439  Biso   1.000  N
  C159     1.0000 0.00870  0.40259  0.96359  Biso   1.000  C
  C160     1.0000 0.07188  0.29855  0.98931  Biso   1.000  C
  H156     1.0000 0.20175  0.35618  0.01030  Biso   1.000  H
  O52      1.0000 0.22999  0.20768  0.92116  Biso   1.000  O
  N106     1.0000 0.09254  0.24368  0.96015  Biso   1.000  N
  O53      1.0000 0.65554  0.32279  0.80483  Biso   1.000  O
  N107     1.0000 0.65343  0.21539  0.83154  Biso   1.000  N
  H157     1.0000 0.58987  0.12262  0.82299  Biso   1.000  H
  C161     1.0000 0.77452  0.08406  0.86555  Biso   1.000  C
  O54      1.0000 0.94742  0.44715  0.95440  Biso   1.000  O
  N108     1.0000 0.98122  0.33906  0.97610  Biso   1.000  N
  H158     1.0000 0.06867  0.28328  0.01888  Biso   1.000  H
  C162     1.0000 0.04206  0.17979  0.96321  Biso   1.000  C
  C163     1.0000 0.62818  0.23231  0.87416  Biso   1.000  C
  N109     1.0000 0.82230  0.13243  0.89468  Biso   1.000  N
  H159     1.0000 0.82249  0.04701  0.86239  Biso   1.000  H
  H160     1.0000 0.71208  0.06649  0.87799  Biso   1.000  H
  C164     1.0000 0.87682  0.31928  0.98357  Biso   1.000  C
  N110     1.0000 0.94329  0.17624  0.93890  Biso   1.000  N
  H161     1.0000 0.03013  0.17048  0.99301  Biso   1.000  H
  H162     1.0000 0.08836  0.14540  0.95310  Biso   1.000  H
  N111     1.0000 0.71863  0.23211  0.90396  Biso   1.000  N
  H163     1.0000 0.57707  0.20072  0.88390  Biso   1.000  H
  H164     1.0000 0.59657  0.27652  0.87410  Biso   1.000  H
  C165     1.0000 0.76353  0.17298  0.92355  Biso   1.000  C
  C166     1.0000 0.92671  0.13368  0.90508  Biso   1.000  C
  N112     1.0000 0.83191  0.27197  0.95271  Biso   1.000  N
  H165     1.0000 0.83319  0.35898  0.98350  Biso   1.000  H
  H166     1.0000 0.87526  0.29950  0.01180  Biso   1.000  H
  C167     1.0000 0.84699  0.19992  0.95587  Biso   1.000  C
  C168     1.0000 0.75502  0.28894  0.92352  Biso   1.000  C
  H167     1.0000 0.71069  0.14640  0.93759  Biso   1.000  H
  O55      1.0000 0.99397  0.10284  0.88721  Biso   1.000  O
  H168     1.0000 0.83707  0.18330  0.98481  Biso   1.000  H
  O56      1.0000 0.72283  0.34607  0.91650  Biso   1.000  O
