data_image0
_cell_length_a       12.181
_cell_length_b       15.626
_cell_length_c       15.937
_cell_angle_alpha    63.27
_cell_angle_beta     77.69
_cell_angle_gamma    86.66

_symmetry_space_group_name_H-M    "P 1"
_symmetry_int_tables_number       1

loop_
  _symmetry_equiv_pos_as_xyz
  'x, y, z'

loop_
  _atom_site_label
  _atom_site_occupancy
  _atom_site_fract_x
  _atom_site_fract_y
  _atom_site_fract_z
  _atom_site_thermal_displace_type
  _atom_site_B_iso_or_equiv
  _atom_site_type_symbol
  C1       1.0000 0.70346  0.49200  0.13192  Biso   1.000  C
  C2       1.0000 0.61709  0.43240  0.13760  Biso   1.000  C
  C3       1.0000 0.80698  0.45331  0.15290  Biso   1.000  C
  O1       1.0000 0.52330  0.48531  0.10620  Biso   1.000  O
  C4       1.0000 0.63015  0.33352  0.16260  Biso   1.000  C
  C5       1.0000 0.81831  0.35317  0.17942  Biso   1.000  C
  C6       1.0000 0.41485  0.45103  0.13307  Biso   1.000  C
  C7       1.0000 0.73068  0.29865  0.18207  Biso   1.000  C
  C8       1.0000 0.93192  0.30193  0.19407  Biso   1.000  C
  N1       1.0000 0.39218  0.35387  0.18502  Biso   1.000  N
  N2       1.0000 0.34670  0.52131  0.09750  Biso   1.000  N
  C9       1.0000 0.76368  0.19283  0.20809  Biso   1.000  C
  C10      1.0000 0.95329  0.26239  0.12100  Biso   1.000  C
  C11      1.0000 0.89926  0.21434  0.29136  Biso   1.000  C
  C12      1.0000 0.28274  0.33682  0.20492  Biso   1.000  C
  C13      1.0000 0.24147  0.48612  0.12157  Biso   1.000  C
  C14      1.0000 0.80953  0.15734  0.29898  Biso   1.000  C
  C15      1.0000 0.86748  0.20482  0.12502  Biso   1.000  C
  C16      1.0000 0.05359  0.28330  0.04893  Biso   1.000  C
  C17      1.0000 0.94781  0.18733  0.37119  Biso   1.000  C
  O2       1.0000 0.24352  0.24578  0.25249  Biso   1.000  O
  N3       1.0000 0.20177  0.39690  0.17539  Biso   1.000  N
  Cl1      1.0000 0.14166  0.57050  0.08242  Biso   1.000  Cl
  C18      1.0000 0.77061  0.07151  0.38147  Biso   1.000  C
  C19      1.0000 0.87243  0.16520  0.06402  Biso   1.000  C
  C20      1.0000 0.05960  0.24494  0.98470  Biso   1.000  C
  C21      1.0000 0.91733  0.10554  0.45526  Biso   1.000  C
  C22      1.0000 0.32173  0.17093  0.28267  Biso   1.000  C
  C23      1.0000 0.82423  0.04883  0.46108  Biso   1.000  C
  C24      1.0000 0.97200  0.18457  0.99411  Biso   1.000  C
  C25      1.0000 0.31617  0.10363  0.24998  Biso   1.000  C
  C26      1.0000 0.38546  0.16583  0.34662  Biso   1.000  C
  O3       1.0000 0.99123  0.15878  0.91708  Biso   1.000  O
  C27      1.0000 0.38467  0.02339  0.28490  Biso   1.000  C
  C28      1.0000 0.45478  0.08443  0.38010  Biso   1.000  C
  C29      1.0000 0.93548  0.09049  0.91097  Biso   1.000  C
  C30      1.0000 0.44888  0.01281  0.34978  Biso   1.000  C
  C31      1.0000 0.38734  0.93675  0.26118  Biso   1.000  C
  N4       1.0000 0.85126  0.03749  0.98311  Biso   1.000  N
  N5       1.0000 0.97155  0.08738  0.82842  Biso   1.000  N
  C32      1.0000 0.51086  0.91939  0.38247  Biso   1.000  C
  C33      1.0000 0.35413  0.84977  0.35998  Biso   1.000  C
  C34      1.0000 0.50991  0.92677  0.22677  Biso   1.000  C
  C35      1.0000 0.80513  0.97557  0.96321  Biso   1.000  C
  C36      1.0000 0.91755  0.02168  0.82152  Biso   1.000  C
  C37      1.0000 0.57683  0.91834  0.28899  Biso   1.000  C
  C38      1.0000 0.41756  0.84010  0.42271  Biso   1.000  C
  C39      1.0000 0.26380  0.78397  0.38298  Biso   1.000  C
  C40      1.0000 0.55783  0.93339  0.13178  Biso   1.000  C
  O4       1.0000 0.71691  0.91810  0.02587  Biso   1.000  O
  N6       1.0000 0.83223  0.96091  0.88468  Biso   1.000  N
  Cl2      1.0000 0.96483  0.00456  0.71812  Biso   1.000  Cl
  C41      1.0000 0.69467  0.90956  0.26593  Biso   1.000  C
  C42      1.0000 0.40296  0.76518  0.51662  Biso   1.000  C
  C43      1.0000 0.24305  0.70754  0.47610  Biso   1.000  C
  C44      1.0000 0.67697  0.92329  0.11439  Biso   1.000  C
  C45      1.0000 0.74469  0.91236  0.17561  Biso   1.000  C
  C46      1.0000 0.30940  0.69337  0.54457  Biso   1.000  C
  C47      1.0000 0.29645  0.50804  0.86805  Biso   1.000  C
  C48      1.0000 0.19293  0.54672  0.84707  Biso   1.000  C
  C49      1.0000 0.38281  0.56763  0.86238  Biso   1.000  C
  C50      1.0000 0.18160  0.64686  0.82056  Biso   1.000  C
  O5       1.0000 0.47661  0.51473  0.89378  Biso   1.000  O
  C51      1.0000 0.36976  0.66652  0.83737  Biso   1.000  C
  C52      1.0000 0.26922  0.70145  0.81790  Biso   1.000  C
  C53      1.0000 0.06799  0.69811  0.80590  Biso   1.000  C
  C54      1.0000 0.58506  0.54900  0.86690  Biso   1.000  C
  C55      1.0000 0.23623  0.80720  0.79189  Biso   1.000  C
  C56      1.0000 0.04662  0.73765  0.87897  Biso   1.000  C
  C57      1.0000 0.10065  0.78569  0.70861  Biso   1.000  C
  N7       1.0000 0.60773  0.64617  0.81495  Biso   1.000  N
  N8       1.0000 0.65321  0.47872  0.90247  Biso   1.000  N
  C58      1.0000 0.19046  0.84269  0.70100  Biso   1.000  C
  C59      1.0000 0.13241  0.79519  0.87502  Biso   1.000  C
  C60      1.0000 0.94630  0.71670  0.95112  Biso   1.000  C
  C61      1.0000 0.05210  0.81270  0.62878  Biso   1.000  C
  C62      1.0000 0.71715  0.66319  0.79512  Biso   1.000  C
  C63      1.0000 0.75844  0.51392  0.87840  Biso   1.000  C
  C64      1.0000 0.22930  0.92852  0.61851  Biso   1.000  C
  C65      1.0000 0.12748  0.83484  0.93595  Biso   1.000  C
  C66      1.0000 0.94030  0.75516  0.01528  Biso   1.000  C
  C67      1.0000 0.08266  0.89450  0.54472  Biso   1.000  C
  O6       1.0000 0.75647  0.75425  0.74748  Biso   1.000  O
  N9       1.0000 0.79814  0.60314  0.82458  Biso   1.000  N
  Cl3      1.0000 0.85825  0.42953  0.91756  Biso   1.000  Cl
  C68      1.0000 0.17576  0.95121  0.53890  Biso   1.000  C
  C69      1.0000 0.02790  0.81547  0.00587  Biso   1.000  C
  C70      1.0000 0.67826  0.82911  0.71731  Biso   1.000  C
  O7       1.0000 0.00868  0.84125  0.08289  Biso   1.000  O
  C71      1.0000 0.68374  0.89640  0.75000  Biso   1.000  C
  C72      1.0000 0.61444  0.83427  0.65336  Biso   1.000  C
  C73      1.0000 0.06443  0.90955  0.08900  Biso   1.000  C
  C74      1.0000 0.61524  0.97665  0.71508  Biso   1.000  C
  C75      1.0000 0.54513  0.91561  0.61987  Biso   1.000  C
  N10      1.0000 0.14864  0.96254  0.01686  Biso   1.000  N
  N11      1.0000 0.02836  0.91266  0.17156  Biso   1.000  N
  C76      1.0000 0.55102  0.98723  0.65020  Biso   1.000  C
  C77      1.0000 0.61266  0.06328  0.73879  Biso   1.000  C
  C78      1.0000 0.19478  0.02447  0.03676  Biso   1.000  C
  C79      1.0000 0.08236  0.97836  0.17846  Biso   1.000  C
  C80      1.0000 0.48904  0.08065  0.61750  Biso   1.000  C
  C81      1.0000 0.64586  0.15026  0.63999  Biso   1.000  C
  C82      1.0000 0.49000  0.07326  0.77321  Biso   1.000  C
  O8       1.0000 0.28300  0.08194  0.97411  Biso   1.000  O
  N12      1.0000 0.16768  0.03913  0.11530  Biso   1.000  N
  Cl4      1.0000 0.03508  0.99548  0.28185  Biso   1.000  Cl
  C83      1.0000 0.42316  0.08169  0.71098  Biso   1.000  C
  C84      1.0000 0.58234  0.16000  0.57727  Biso   1.000  C
  C85      1.0000 0.73610  0.21607  0.61700  Biso   1.000  C
  C86      1.0000 0.44208  0.06665  0.86820  Biso   1.000  C
  C87      1.0000 0.32294  0.07675  0.88559  Biso   1.000  C
  C88      1.0000 0.30522  0.09044  0.73412  Biso   1.000  C
  C89      1.0000 0.59693  0.23483  0.48343  Biso   1.000  C
  C90      1.0000 0.75686  0.29249  0.52388  Biso   1.000  C
  C91      1.0000 0.25522  0.08768  0.82437  Biso   1.000  C
  C92      1.0000 0.69051  0.30667  0.45540  Biso   1.000  C
  Ne1      1.0000 0.62689  0.14460  0.16407  Biso   1.000  Ne
  He1      1.0000 0.61041  0.19380  0.32786  Biso   1.000  He
  He2      1.0000 0.79329  0.04877  0.20936  Biso   1.000  He
  He3      1.0000 0.61153  0.13889  0.10287  Biso   1.000  He
  Ar1      1.0000 0.59498  0.13452  0.12625  Biso   1.000  Ar
  Ne2      1.0000 0.37303  0.85544  0.83591  Biso   1.000  Ne
  He4      1.0000 0.41400  0.86021  0.87336  Biso   1.000  He
  He5      1.0000 0.22906  0.94399  0.80139  Biso   1.000  He
  He6      1.0000 0.39055  0.80611  0.67430  Biso   1.000  He
  Ar2      1.0000 0.40495  0.86549  0.87375  Biso   1.000  Ar
