data_image0
_cell_length_a       11.027
_cell_length_b       24.258
_cell_length_c       26.222
_cell_angle_alpha    90
_cell_angle_beta     90
_cell_angle_gamma    90

_symmetry_space_group_name_H-M    "P 1"
_symmetry_int_tables_number       1

loop_
  _symmetry_equiv_pos_as_xyz
  'x, y, z'

loop_
  _atom_site_label
  _atom_site_occupancy
  _atom_site_fract_x
  _atom_site_fract_y
  _atom_site_fract_z
  _atom_site_thermal_displace_type
  _atom_site_B_iso_or_equiv
  _atom_site_type_symbol
  O1       1.0000 0.28893  0.36450  0.45950  Biso   1.000  O
  C1       1.0000 0.16387  0.37291  0.45450  Biso   1.000  C
  H1       1.0000 0.31514  0.39397  0.44886  Biso   1.000  H
  C2       1.0000 0.08706  0.33230  0.47609  Biso   1.000  C
  C3       1.0000 0.11871  0.41999  0.43109  Biso   1.000  C
  C4       1.0000 0.13948  0.28201  0.50000  Biso   1.000  C
  C5       1.0000 0.96400  0.34269  0.47311  Biso   1.000  C
  Br1      1.0000 0.22980  0.47057  0.40172  Biso   1.000  Br
  C6       1.0000 0.99728  0.42889  0.42842  Biso   1.000  C
  C7       1.0000 0.15689  0.23452  0.46282  Biso   1.000  C
  H2       1.0000 0.08543  0.26977  0.52799  Biso   1.000  H
  H3       1.0000 0.21901  0.29145  0.51529  Biso   1.000  H
  C8       1.0000 0.91711  0.38919  0.45061  Biso   1.000  C
  H4       1.0000 0.90949  0.31651  0.48722  Biso   1.000  H
  C9       1.0000 0.92790  0.47799  0.40439  Biso   1.000  C
  C10      1.0000 0.26789  0.22821  0.43490  Biso   1.000  C
  C11      1.0000 0.06783  0.19511  0.45519  Biso   1.000  C
  C12      1.0000 0.78380  0.40440  0.44680  Biso   1.000  C
  H5       1.0000 0.98232  0.50589  0.38811  Biso   1.000  H
  C13      1.0000 0.83758  0.45189  0.36710  Biso   1.000  C
  C14      1.0000 0.85155  0.50148  0.44802  Biso   1.000  C
  C15      1.0000 0.28330  0.18538  0.40199  Biso   1.000  C
  H6       1.0000 0.33137  0.25418  0.43944  Biso   1.000  H
  C16      1.0000 0.08851  0.14981  0.42091  Biso   1.000  C
  O2       1.0000 0.96518  0.20059  0.48330  Biso   1.000  O
  C17      1.0000 0.75633  0.41450  0.38960  Biso   1.000  C
  H7       1.0000 0.72858  0.37682  0.46305  Biso   1.000  H
  C18      1.0000 0.77192  0.46409  0.47010  Biso   1.000  C
  C19      1.0000 0.82507  0.46611  0.31542  Biso   1.000  C
  C20      1.0000 0.85291  0.55701  0.46320  Biso   1.000  C
  C21      1.0000 0.40047  0.17561  0.36950  Biso   1.000  C
  C22      1.0000 0.19552  0.14610  0.39551  Biso   1.000  C
  Br2      1.0000 0.95964  0.09803  0.41316  Biso   1.000  Br
  H8       1.0000 0.91194  0.17899  0.47224  Biso   1.000  H
  C23      1.0000 0.66373  0.39422  0.36149  Biso   1.000  C
  C24      1.0000 0.68922  0.47951  0.50721  Biso   1.000  C
  C25      1.0000 0.72984  0.44410  0.28671  Biso   1.000  C
  H9       1.0000 0.88129  0.49072  0.30002  Biso   1.000  H
  C26      1.0000 0.76340  0.57012  0.50332  Biso   1.000  C
  H10      1.0000 0.90641  0.58364  0.44905  Biso   1.000  H
  C27      1.0000 0.35912  0.16869  0.31531  Biso   1.000  C
  H11      1.0000 0.46314  0.20500  0.37392  Biso   1.000  H
  C28      1.0000 0.44346  0.11782  0.38750  Biso   1.000  C
  C29      1.0000 0.23488  0.09939  0.35939  Biso   1.000  C
  C30      1.0000 0.64632  0.40721  0.30909  Biso   1.000  C
  Br3      1.0000 0.54648  0.34636  0.39318  Biso   1.000  Br
  H12      1.0000 0.63363  0.45321  0.52048  Biso   1.000  H
  C31      1.0000 0.68777  0.53380  0.52532  Biso   1.000  C
  C32      1.0000 0.71289  0.45919  0.23160  Biso   1.000  C
  H13      1.0000 0.75896  0.60730  0.51445  Biso   1.000  H
  C33      1.0000 0.39993  0.19639  0.27309  Biso   1.000  C
  C34      1.0000 0.26689  0.12961  0.31031  Biso   1.000  C
  C35      1.0000 0.35522  0.07560  0.37980  Biso   1.000  C
  C36      1.0000 0.55827  0.10388  0.40630  Biso   1.000  C
  H14      1.0000 0.17076  0.07070  0.35451  Biso   1.000  H
  O3       1.0000 0.55527  0.38552  0.28209  Biso   1.000  O
  H15      1.0000 0.63508  0.54465  0.55213  Biso   1.000  H
  C37      1.0000 0.78997  0.42221  0.19690  Biso   1.000  C
  H16      1.0000 0.73637  0.49819  0.22641  Biso   1.000  H
  H17      1.0000 0.62637  0.45531  0.22229  Biso   1.000  H
  C38      1.0000 0.34887  0.18361  0.22432  Biso   1.000  C
  Br4      1.0000 0.52689  0.24804  0.27637  Biso   1.000  Br
  C39      1.0000 0.21701  0.11819  0.26161  Biso   1.000  C
  C40      1.0000 0.38451  0.02222  0.39249  Biso   1.000  C
  H18      1.0000 0.61948  0.13126  0.40912  Biso   1.000  H
  C41      1.0000 0.58239  0.04959  0.42091  Biso   1.000  C
  H19      1.0000 0.50676  0.36957  0.30192  Biso   1.000  H
  C42      1.0000 0.91049  0.43932  0.18080  Biso   1.000  C
  C43      1.0000 0.75433  0.37192  0.17951  Biso   1.000  C
  O4       1.0000 0.38841  0.21209  0.18092  Biso   1.000  O
  C44      1.0000 0.25628  0.14680  0.21871  Biso   1.000  C
  H20      1.0000 0.15607  0.09077  0.25822  Biso   1.000  H
  C45      1.0000 0.49814  0.01059  0.41320  Biso   1.000  C
  H21      1.0000 0.32756  0.99332  0.38712  Biso   1.000  H
  H22      1.0000 0.65784  0.04044  0.43608  Biso   1.000  H
  C46      1.0000 0.97787  0.40712  0.14892  Biso   1.000  C
  O5       1.0000 0.94423  0.49089  0.19869  Biso   1.000  O
  C47      1.0000 0.82098  0.33882  0.14911  Biso   1.000  C
  H23      1.0000 0.67643  0.35918  0.18957  Biso   1.000  H
  H24      1.0000 0.44826  0.23213  0.18187  Biso   1.000  H
  C48      1.0000 0.19779  0.13579  0.16681  Biso   1.000  C
  H25      1.0000 0.51664  0.97362  0.42232  Biso   1.000  H
  C49      1.0000 0.94015  0.35650  0.13470  Biso   1.000  C
  Br5      1.0000 0.12977  0.43581  0.12734  Biso   1.000  Br
  H26      1.0000 0.00472  0.50223  0.18233  Biso   1.000  H
  C50      1.0000 0.78580  0.28279  0.12741  Biso   1.000  C
  C51      1.0000 0.08661  0.17322  0.15868  Biso   1.000  C
  H27      1.0000 0.17258  0.09671  0.16482  Biso   1.000  H
  H28      1.0000 0.25782  0.14263  0.13946  Biso   1.000  H
  C52      1.0000 0.00834  0.31569  0.09961  Biso   1.000  C
  C53      1.0000 0.88800  0.24301  0.14259  Biso   1.000  C
  C54      1.0000 0.80303  0.28861  0.06948  Biso   1.000  C
  H29      1.0000 0.70300  0.27018  0.13767  Biso   1.000  H
  C55      1.0000 0.10438  0.22640  0.13759  Biso   1.000  C
  C56      1.0000 0.97098  0.15632  0.17051  Biso   1.000  C
  C57      1.0000 0.00181  0.25942  0.12909  Biso   1.000  C
  H30      1.0000 0.09150  0.32756  0.08912  Biso   1.000  H
  C58      1.0000 0.91738  0.30510  0.05480  Biso   1.000  C
  C59      1.0000 0.87395  0.18950  0.16269  Biso   1.000  C
  C60      1.0000 0.71008  0.27579  0.03428  Biso   1.000  C
  H31      1.0000 0.18337  0.23930  0.12947  Biso   1.000  H
  O6       1.0000 0.96264  0.10129  0.18961  Biso   1.000  O
  C61      1.0000 0.94822  0.31309  0.00252  Biso   1.000  C
  Br6      1.0000 0.71606  0.16193  0.17851  Biso   1.000  Br
  C62      1.0000 0.73402  0.28048  0.98139  Biso   1.000  C
  H32      1.0000 0.63263  0.26416  0.04595  Biso   1.000  H
  H33      1.0000 0.88936  0.09296  0.19373  Biso   1.000  H
  C63      1.0000 0.85200  0.29722  0.96789  Biso   1.000  C
  H34      1.0000 0.87023  0.29809  0.93250  Biso   1.000  H
  C64      1.0000 0.58846  0.35019  0.57909  Biso   1.000  C
  C65      1.0000 0.56779  0.30489  0.54481  Biso   1.000  C
  Br7      1.0000 0.45960  0.40197  0.58687  Biso   1.000  Br
  C66      1.0000 0.69547  0.35390  0.60449  Biso   1.000  C
  O7       1.0000 0.46522  0.29941  0.51670  Biso   1.000  O
  C67      1.0000 0.65684  0.26552  0.53722  Biso   1.000  C
  C68      1.0000 0.73483  0.40061  0.64061  Biso   1.000  C
  C69      1.0000 0.78326  0.31462  0.59801  Biso   1.000  C
  H35      1.0000 0.41190  0.32101  0.52780  Biso   1.000  H
  C70      1.0000 0.76784  0.27179  0.56510  Biso   1.000  C
  C71      1.0000 0.63952  0.21799  0.50000  Biso   1.000  C
  C72      1.0000 0.76685  0.37039  0.68973  Biso   1.000  C
  H36      1.0000 0.67081  0.42930  0.64549  Biso   1.000  H
  C73      1.0000 0.85517  0.42440  0.62020  Biso   1.000  C
  C74      1.0000 0.90043  0.32439  0.63050  Biso   1.000  C
  H37      1.0000 0.83132  0.24582  0.56060  Biso   1.000  H
  H38      1.0000 0.58547  0.23023  0.47205  Biso   1.000  H
  H39      1.0000 0.71896  0.20855  0.48475  Biso   1.000  H
  C75      1.0000 0.58710  0.16770  0.52391  Biso   1.000  C
  C76      1.0000 0.85907  0.33131  0.68469  Biso   1.000  C
  C77      1.0000 0.71697  0.38181  0.73843  Biso   1.000  C
  C78      1.0000 0.94350  0.38218  0.61250  Biso   1.000  C
  C79      1.0000 0.88447  0.47782  0.60751  Biso   1.000  C
  H40      1.0000 0.96309  0.29500  0.62608  Biso   1.000  H
  C80      1.0000 0.66392  0.12709  0.54550  Biso   1.000  C
  C81      1.0000 0.46395  0.15731  0.52692  Biso   1.000  C
  C82      1.0000 0.89988  0.30361  0.72691  Biso   1.000  C
  C83      1.0000 0.75623  0.35320  0.78133  Biso   1.000  C
  H41      1.0000 0.65603  0.40923  0.74178  Biso   1.000  H
  C84      1.0000 0.05822  0.39612  0.59370  Biso   1.000  C
  C85      1.0000 0.99819  0.48941  0.58680  Biso   1.000  C
  H42      1.0000 0.82760  0.50668  0.61292  Biso   1.000  H
  O8       1.0000 0.78888  0.13550  0.54050  Biso   1.000  O
  C86      1.0000 0.61866  0.08001  0.56891  Biso   1.000  C
  C87      1.0000 0.41707  0.11081  0.54942  Biso   1.000  C
  H43      1.0000 0.40945  0.18349  0.51278  Biso   1.000  H
  C88      1.0000 0.84883  0.31639  0.77572  Biso   1.000  C
  Br8      1.0000 0.02684  0.25196  0.72363  Biso   1.000  Br
  C89      1.0000 0.69774  0.36421  0.83323  Biso   1.000  C
  H44      1.0000 0.11943  0.36874  0.59088  Biso   1.000  H
  C90      1.0000 0.08234  0.45041  0.57909  Biso   1.000  C
  H45      1.0000 0.01669  0.52638  0.57768  Biso   1.000  H
  H46      1.0000 0.81518  0.10603  0.55114  Biso   1.000  H
  Br9      1.0000 0.72975  0.02943  0.59828  Biso   1.000  Br
  C91      1.0000 0.49732  0.07111  0.57162  Biso   1.000  C
  C92      1.0000 0.28376  0.09560  0.55320  Biso   1.000  C
  O9       1.0000 0.88836  0.28791  0.81912  Biso   1.000  O
  C93      1.0000 0.58656  0.32682  0.84132  Biso   1.000  C
  H47      1.0000 0.67253  0.40333  0.83521  Biso   1.000  H
  H48      1.0000 0.75778  0.35737  0.86054  Biso   1.000  H
  H49      1.0000 0.15789  0.45956  0.56395  Biso   1.000  H
  C94      1.0000 0.42786  0.02201  0.59561  Biso   1.000  C
  C95      1.0000 0.25628  0.08550  0.61040  Biso   1.000  C
  H50      1.0000 0.22853  0.12318  0.53695  Biso   1.000  H
  C96      1.0000 0.27188  0.03591  0.52990  Biso   1.000  C
  H51      1.0000 0.94822  0.26787  0.81813  Biso   1.000  H
  C97      1.0000 0.47103  0.34372  0.82949  Biso   1.000  C
  C98      1.0000 0.60433  0.27360  0.86241  Biso   1.000  C
  C99      1.0000 0.33763  0.04811  0.63290  Biso   1.000  C
  H52      1.0000 0.48227  0.99411  0.61193  Biso   1.000  H
  C100     1.0000 0.35150  0.99852  0.55202  Biso   1.000  C
  C101     1.0000 0.16369  0.10582  0.63851  Biso   1.000  C
  C102     1.0000 0.18917  0.02049  0.49279  Biso   1.000  C
  O10      1.0000 0.46259  0.39871  0.81043  Biso   1.000  O
  C103     1.0000 0.37390  0.31050  0.83731  Biso   1.000  C
  C104     1.0000 0.50177  0.24062  0.87091  Biso   1.000  C
  H53      1.0000 0.68341  0.26070  0.87057  Biso   1.000  H
  C105     1.0000 0.32511  0.03389  0.68462  Biso   1.000  C
  C106     1.0000 0.35286  0.94299  0.53680  Biso   1.000  C
  Br10     1.0000 0.04652  0.15364  0.60682  Biso   1.000  Br
  C107     1.0000 0.14628  0.09279  0.69091  Biso   1.000  C
  H54      1.0000 0.13358  0.04679  0.47956  Biso   1.000  H
  C108     1.0000 0.18781  0.96620  0.47472  Biso   1.000  C
  H55      1.0000 0.38932  0.40704  0.80631  Biso   1.000  H
  Br11     1.0000 0.21602  0.33807  0.82149  Biso   1.000  Br
  C109     1.0000 0.38796  0.25699  0.85741  Biso   1.000  C
  C110     1.0000 0.50830  0.18431  0.90043  Biso   1.000  C
  H56      1.0000 0.38125  0.00928  0.70002  Biso   1.000  H
  C111     1.0000 0.22980  0.05590  0.71329  Biso   1.000  C
  C112     1.0000 0.26335  0.92992  0.49672  Biso   1.000  C
  H57      1.0000 0.40637  0.91636  0.55099  Biso   1.000  H
  O11      1.0000 0.05532  0.11452  0.71791  Biso   1.000  O
  H58      1.0000 0.13503  0.95535  0.44787  Biso   1.000  H
  C113     1.0000 0.28575  0.21721  0.87263  Biso   1.000  C
  C114     1.0000 0.44010  0.14350  0.86530  Biso   1.000  C
  H59      1.0000 0.59146  0.17244  0.91091  Biso   1.000  H
  C115     1.0000 0.41743  0.19490  0.94520  Biso   1.000  C
  C116     1.0000 0.21293  0.04081  0.76840  Biso   1.000  C
  H60      1.0000 0.25891  0.89274  0.48555  Biso   1.000  H
  H61      1.0000 0.00680  0.13047  0.69812  Biso   1.000  H
  C117     1.0000 0.32103  0.16118  0.85093  Biso   1.000  C
  H62      1.0000 0.20296  0.22982  0.86237  Biso   1.000  H
  C118     1.0000 0.30298  0.21139  0.93052  Biso   1.000  C
  C119     1.0000 0.47792  0.09292  0.85112  Biso   1.000  C
  C120     1.0000 0.44817  0.18691  0.99752  Biso   1.000  C
  C121     1.0000 0.29002  0.07779  0.80310  Biso   1.000  C
  H63      1.0000 0.23642  0.00181  0.77363  Biso   1.000  H
  H64      1.0000 0.12633  0.04469  0.77774  Biso   1.000  H
  C122     1.0000 0.25428  0.12808  0.82049  Biso   1.000  C
  C123     1.0000 0.21012  0.22421  0.96572  Biso   1.000  C
  C124     1.0000 0.41045  0.06068  0.81920  Biso   1.000  C
  Br12     1.0000 0.62982  0.06419  0.87270  Biso   1.000  Br
  C125     1.0000 0.35195  0.20282  0.03211  Biso   1.000  C
  H65      1.0000 0.17648  0.14082  0.81046  Biso   1.000  H
  H66      1.0000 0.13258  0.23584  0.95408  Biso   1.000  H
  C126     1.0000 0.23397  0.21952  0.01861  Biso   1.000  C
  O12      1.0000 0.44418  0.00911  0.80131  Biso   1.000  O
  H67      1.0000 0.37018  0.20191  0.06754  Biso   1.000  H
  H68      1.0000 0.50476  0.99777  0.81771  Biso   1.000  H
  C127     1.0000 0.52208  0.59292  0.64892  Biso   1.000  C
  C128     1.0000 0.55990  0.64350  0.63470  Biso   1.000  C
  Br13     1.0000 0.37018  0.56419  0.62734  Biso   1.000  Br
  C129     1.0000 0.58946  0.56072  0.68080  Biso   1.000  C
  C130     1.0000 0.49170  0.68431  0.59961  Biso   1.000  C
  C131     1.0000 0.67897  0.66123  0.64911  Biso   1.000  C
  O13      1.0000 0.55582  0.50911  0.69873  Biso   1.000  O
  C132     1.0000 0.70998  0.57779  0.69690  Biso   1.000  C
  C133     1.0000 0.58257  0.69490  0.55480  Biso   1.000  C
  C134     1.0000 0.49814  0.74062  0.62913  Biso   1.000  C
  H69      1.0000 0.40845  0.67244  0.58912  Biso   1.000  H
  C135     1.0000 0.71416  0.71721  0.62741  Biso   1.000  C
  C136     1.0000 0.74572  0.62812  0.67951  Biso   1.000  C
  H70      1.0000 0.49524  0.49777  0.68233  Biso   1.000  H
  C137     1.0000 0.78707  0.54081  0.73160  Biso   1.000  C
  C138     1.0000 0.55174  0.68691  0.50252  Biso   1.000  C
  C139     1.0000 0.69702  0.71139  0.56952  Biso   1.000  C
  C140     1.0000 0.61195  0.75699  0.64263  Biso   1.000  C
  C141     1.0000 0.39557  0.77360  0.63759  Biso   1.000  C
  H71      1.0000 0.79695  0.72982  0.63767  Biso   1.000  H
  H72      1.0000 0.82352  0.64082  0.68957  Biso   1.000  H
  C142     1.0000 0.77020  0.55590  0.78671  Biso   1.000  C
  H73      1.0000 0.76358  0.50181  0.72641  Biso   1.000  H
  H74      1.0000 0.87367  0.54469  0.72229  Biso   1.000  H
  C143     1.0000 0.64796  0.70282  0.46789  Biso   1.000  C
  C144     1.0000 0.78988  0.72421  0.53432  Biso   1.000  C
  C145     1.0000 0.62610  0.81050  0.66273  Biso   1.000  C
  C146     1.0000 0.41335  0.82682  0.65872  Biso   1.000  C
  H75      1.0000 0.31659  0.76070  0.62947  Biso   1.000  H
  C147     1.0000 0.67489  0.53389  0.81542  Biso   1.000  C
  C148     1.0000 0.85363  0.59279  0.80913  Biso   1.000  C
  C149     1.0000 0.76594  0.71952  0.48139  Biso   1.000  C
  H76      1.0000 0.62973  0.70191  0.43250  Biso   1.000  H
  H77      1.0000 0.86733  0.73584  0.54595  Biso   1.000  H
  Br14     1.0000 0.78389  0.83812  0.67851  Biso   1.000  Br
  C150     1.0000 0.52897  0.84372  0.67051  Biso   1.000  C
  C151     1.0000 0.30217  0.86421  0.66681  Biso   1.000  C
  C152     1.0000 0.66237  0.54811  0.86710  Biso   1.000  C
  H78      1.0000 0.61866  0.50928  0.80002  Biso   1.000  H
  O14      1.0000 0.94468  0.61452  0.78213  Biso   1.000  O
  C153     1.0000 0.83631  0.60582  0.86153  Biso   1.000  C
  O15      1.0000 0.53741  0.89871  0.68961  Biso   1.000  O
  H79      1.0000 0.32738  0.90333  0.66482  Biso   1.000  H
  H80      1.0000 0.24213  0.85737  0.63950  Biso   1.000  H
  C154     1.0000 0.24367  0.85320  0.71871  Biso   1.000  C
  C155     1.0000 0.57205  0.52201  0.90443  Biso   1.000  C
  C156     1.0000 0.74363  0.58550  0.88960  Biso   1.000  C
  H81      1.0000 0.99320  0.63047  0.80192  Biso   1.000  H
  Br15     1.0000 0.95348  0.65364  0.89322  Biso   1.000  Br
  H82      1.0000 0.61068  0.90704  0.69373  Biso   1.000  H
  C157     1.0000 0.15108  0.81639  0.72432  Biso   1.000  C
  C158     1.0000 0.28303  0.88181  0.76161  Biso   1.000  C
  C159     1.0000 0.50268  0.57111  0.92842  Biso   1.000  C
  H83      1.0000 0.51773  0.49411  0.88811  Biso   1.000  H
  C160     1.0000 0.64850  0.49852  0.94802  Biso   1.000  C
  C161     1.0000 0.71615  0.59560  0.94680  Biso   1.000  C
  O16      1.0000 0.11164  0.78791  0.68092  Biso   1.000  O
  C162     1.0000 0.10012  0.80361  0.77313  Biso   1.000  C
  C163     1.0000 0.23306  0.87039  0.81031  Biso   1.000  C
  H84      1.0000 0.34388  0.90927  0.75826  Biso   1.000  H
  C164     1.0000 0.38125  0.58001  0.93113  Biso   1.000  C
  C165     1.0000 0.58284  0.61081  0.95061  Biso   1.000  C
  C166     1.0000 0.72803  0.53591  0.97010  Biso   1.000  C
  C167     1.0000 0.64705  0.44299  0.96320  Biso   1.000  C
  H85      1.0000 0.77138  0.62318  0.96305  Biso   1.000  H
  H86      1.0000 0.05178  0.76787  0.68187  Biso   1.000  H
  C168     1.0000 0.14093  0.83131  0.81531  Biso   1.000  C
  Br16     1.0000 0.97307  0.75196  0.77641  Biso   1.000  Br
  C169     1.0000 0.26508  0.90061  0.85943  Biso   1.000  C
  Br17     1.0000 0.27016  0.52943  0.90176  Biso   1.000  Br
  C170     1.0000 0.33608  0.62709  0.95450  Biso   1.000  C
  C171     1.0000 0.53596  0.65731  0.97311  Biso   1.000  C
  C172     1.0000 0.81074  0.52049  0.00721  Biso   1.000  C
  H87      1.0000 0.59363  0.41636  0.94905  Biso   1.000  H
  C173     1.0000 0.73656  0.42992  0.00332  Biso   1.000  C
  C174     1.0000 0.09948  0.82439  0.86950  Biso   1.000  C
  H88      1.0000 0.32919  0.92930  0.85455  Biso   1.000  H
  C175     1.0000 0.30453  0.85390  0.89551  Biso   1.000  C
  C176     1.0000 0.14483  0.92440  0.87980  Biso   1.000  C
  O17      1.0000 0.21112  0.63550  0.95950  Biso   1.000  O
  C177     1.0000 0.41290  0.66770  0.97613  Biso   1.000  C
  H89      1.0000 0.59046  0.68349  0.98722  Biso   1.000  H
  H90      1.0000 0.86633  0.54683  0.02048  Biso   1.000  H
  C178     1.0000 0.81219  0.46620  0.02532  Biso   1.000  C
  H91      1.0000 0.74109  0.39274  0.01445  Biso   1.000  H
  C179     1.0000 0.21665  0.81462  0.90203  Biso   1.000  C
  H92      1.0000 0.03691  0.79500  0.87392  Biso   1.000  H
  C180     1.0000 0.05650  0.88222  0.88750  Biso   1.000  C
  C181     1.0000 0.41144  0.85019  0.92091  Biso   1.000  C
  C182     1.0000 0.11553  0.97782  0.89249  Biso   1.000  C
  H93      1.0000 0.18482  0.60603  0.94890  Biso   1.000  H
  C183     1.0000 0.36048  0.71799  0.00000  Biso   1.000  C
  H94      1.0000 0.86488  0.45535  0.05213  Biso   1.000  H
  C184     1.0000 0.23207  0.77179  0.93490  Biso   1.000  C
  C185     1.0000 0.94169  0.89612  0.90630  Biso   1.000  C
  Br18     1.0000 0.54040  0.90197  0.91316  Biso   1.000  Br
  C186     1.0000 0.43221  0.80489  0.95523  Biso   1.000  C
  C187     1.0000 0.00181  0.98941  0.91320  Biso   1.000  C
  H95      1.0000 0.17240  0.00668  0.88712  Biso   1.000  H
  C188     1.0000 0.34307  0.76552  0.96282  Biso   1.000  C
  H96      1.0000 0.41453  0.73027  0.02799  Biso   1.000  H
  H97      1.0000 0.28104  0.70855  0.01529  Biso   1.000  H
  H98      1.0000 0.16859  0.74582  0.93944  Biso   1.000  H
  H99      1.0000 0.88048  0.86874  0.90912  Biso   1.000  H
  C189     1.0000 0.91757  0.95041  0.92091  Biso   1.000  C
  O18      1.0000 0.53478  0.79941  0.98330  Biso   1.000  O
  H100     1.0000 0.98331  0.02638  0.92232  Biso   1.000  H
  H101     1.0000 0.84211  0.95956  0.93608  Biso   1.000  H
  H102     1.0000 0.58801  0.82101  0.97224  Biso   1.000  H
  C190     1.0000 0.80221  0.63579  0.33319  Biso   1.000  C
  C191     1.0000 0.74363  0.64680  0.28129  Biso   1.000  C
  C192     1.0000 0.91339  0.67322  0.34132  Biso   1.000  C
  H103     1.0000 0.82733  0.59671  0.33518  Biso   1.000  H
  H104     1.0000 0.74209  0.64263  0.36054  Biso   1.000  H
  C193     1.0000 0.78299  0.61819  0.23839  Biso   1.000  C
  C194     1.0000 0.65104  0.68361  0.27572  Biso   1.000  C
  C195     1.0000 0.89553  0.72640  0.36241  Biso   1.000  C
  C196     1.0000 0.02893  0.65632  0.32949  Biso   1.000  C
  C197     1.0000 0.73311  0.62961  0.18969  Biso   1.000  C
  H105     1.0000 0.84393  0.59077  0.24178  Biso   1.000  H
  C198     1.0000 0.60007  0.69639  0.22691  Biso   1.000  C
  O19      1.0000 0.61159  0.71209  0.31912  Biso   1.000  O
  C199     1.0000 0.99819  0.75942  0.37091  Biso   1.000  C
  H106     1.0000 0.81654  0.73930  0.37053  Biso   1.000  H
  O20      1.0000 0.03736  0.60129  0.31039  Biso   1.000  O
  C200     1.0000 0.12605  0.68950  0.33731  Biso   1.000  C
  C201     1.0000 0.76503  0.59939  0.14061  Biso   1.000  C
  C202     1.0000 0.64088  0.66869  0.18469  Biso   1.000  C
  Br19     1.0000 0.47311  0.74804  0.22363  Biso   1.000  Br
  H107     1.0000 0.55174  0.73217  0.31813  Biso   1.000  H
  C203     1.0000 0.99166  0.81569  0.40039  Biso   1.000  C
  C204     1.0000 0.11200  0.74301  0.35741  Biso   1.000  C
  H108     1.0000 0.11064  0.59296  0.30631  Biso   1.000  H
  Br20     1.0000 0.28394  0.66193  0.32149  Biso   1.000  Br
  C205     1.0000 0.64478  0.57560  0.12020  Biso   1.000  C
  H109     1.0000 0.82915  0.57074  0.14549  Biso   1.000  H
  C206     1.0000 0.80448  0.64610  0.10449  Biso   1.000  C
  C207     1.0000 0.59944  0.67561  0.13050  Biso   1.000  C
  H110     1.0000 0.90850  0.82756  0.41088  Biso   1.000  H
  C208     1.0000 0.05985  0.85650  0.36530  Biso   1.000  C
  C209     1.0000 0.08252  0.80510  0.44520  Biso   1.000  C
  C210     1.0000 0.21411  0.78279  0.37259  Biso   1.000  C
  C211     1.0000 0.61549  0.52222  0.10751  Biso   1.000  C
  C212     1.0000 0.55645  0.61782  0.11250  Biso   1.000  C
  C213     1.0000 0.71670  0.68542  0.09801  Biso   1.000  C
  C214     1.0000 0.91149  0.64981  0.07909  Biso   1.000  C
  H111     1.0000 0.53686  0.70500  0.12608  Biso   1.000  H
  C215     1.0000 0.02204  0.90712  0.35112  Biso   1.000  C
  C216     1.0000 0.17892  0.83882  0.35089  Biso   1.000  C
  C217     1.0000 0.19697  0.78861  0.43052  Biso   1.000  C
  C218     1.0000 0.05178  0.81309  0.49752  Biso   1.000  C
  H112     1.0000 0.29700  0.77018  0.36233  Biso   1.000  H
  C219     1.0000 0.50177  0.51059  0.08680  Biso   1.000  C
  H113     1.0000 0.67235  0.49332  0.11288  Biso   1.000  H
  C220     1.0000 0.44164  0.60392  0.09370  Biso   1.000  C
  C221     1.0000 0.73211  0.72821  0.06510  Biso   1.000  C
  C222     1.0000 0.93217  0.69511  0.04481  Biso   1.000  C
  Br21     1.0000 0.04036  0.59803  0.08684  Biso   1.000  Br
  Br22     1.0000 0.87014  0.93586  0.37266  Biso   1.000  Br
  C223     1.0000 0.08942  0.93932  0.31920  Biso   1.000  C
  C224     1.0000 0.24567  0.87192  0.32049  Biso   1.000  C
  C225     1.0000 0.28983  0.77583  0.46572  Biso   1.000  C
  C226     1.0000 0.14800  0.79722  0.53211  Biso   1.000  C
  C227     1.0000 0.41761  0.54959  0.07909  Biso   1.000  C
  H114     1.0000 0.48327  0.47366  0.07768  Biso   1.000  H
  H115     1.0000 0.38052  0.63126  0.09088  Biso   1.000  H
  C228     1.0000 0.84311  0.73452  0.03718  Biso   1.000  C
  H116     1.0000 0.66854  0.75418  0.06056  Biso   1.000  H
  O21      1.0000 0.03473  0.70059  0.01670  Biso   1.000  O
  O22      1.0000 0.05577  0.99089  0.30131  Biso   1.000  O
  C229     1.0000 0.20994  0.92221  0.30310  Biso   1.000  C
  H117     1.0000 0.32348  0.85918  0.31043  Biso   1.000  H
  H118     1.0000 0.36728  0.76416  0.45405  Biso   1.000  H
  C230     1.0000 0.26598  0.78053  0.51861  Biso   1.000  C
  H119     1.0000 0.12977  0.79809  0.56754  Biso   1.000  H
  H120     1.0000 0.34207  0.54044  0.06392  Biso   1.000  H
  C231     1.0000 0.86043  0.78201  0.00000  Biso   1.000  C
  H121     1.0000 0.08797  0.67899  0.02780  Biso   1.000  H
  H122     1.0000 0.99519  0.00223  0.31767  Biso   1.000  H
  C232     1.0000 0.28702  0.95919  0.26840  Biso   1.000  C
  C233     1.0000 0.91285  0.83230  0.02391  Biso   1.000  C
  H123     1.0000 0.91448  0.76977  0.97205  Biso   1.000  H
  H124     1.0000 0.78099  0.79145  0.98471  Biso   1.000  H
  C234     1.0000 0.27016  0.94410  0.21329  Biso   1.000  C
  H125     1.0000 0.26353  0.99819  0.27363  Biso   1.000  H
  H126     1.0000 0.37363  0.95531  0.27774  Biso   1.000  H
  C235     1.0000 0.83604  0.87291  0.04550  Biso   1.000  C
  C236     1.0000 0.03600  0.84269  0.02689  Biso   1.000  C
  C237     1.0000 0.17484  0.96611  0.18462  Biso   1.000  C
  C238     1.0000 0.35368  0.90721  0.19091  Biso   1.000  C
  O23      1.0000 0.71107  0.86450  0.04050  Biso   1.000  O
  C239     1.0000 0.88129  0.92003  0.06891  Biso   1.000  C
  C240     1.0000 0.08289  0.88919  0.04939  Biso   1.000  C
  H127     1.0000 0.09051  0.81651  0.01278  Biso   1.000  H
  C241     1.0000 0.16233  0.95189  0.13290  Biso   1.000  C
  H128     1.0000 0.11871  0.99072  0.19998  Biso   1.000  H
  C242     1.0000 0.33627  0.89422  0.13851  Biso   1.000  C
  O24      1.0000 0.44464  0.88552  0.21791  Biso   1.000  O
  H129     1.0000 0.68477  0.89397  0.05114  Biso   1.000  H
  Br23     1.0000 0.77020  0.97061  0.09828  Biso   1.000  Br
  C243     1.0000 0.00263  0.92889  0.07162  Biso   1.000  C
  C244     1.0000 0.21620  0.90440  0.05320  Biso   1.000  C
  C245     1.0000 0.07210  0.97803  0.09561  Biso   1.000  C
  C246     1.0000 0.24367  0.91450  0.11040  Biso   1.000  C
  Br24     1.0000 0.45343  0.84636  0.10682  Biso   1.000  Br
  H130     1.0000 0.49315  0.86957  0.19812  Biso   1.000  H
  H131     1.0000 0.27133  0.87682  0.03695  Biso   1.000  H
  C247     1.0000 0.22808  0.96409  0.02990  Biso   1.000  C
  H132     1.0000 0.01768  0.00589  0.11193  Biso   1.000  H
  C248     1.0000 0.14845  0.00153  0.05202  Biso   1.000  C
  C249     1.0000 0.31078  0.97951  0.99279  Biso   1.000  C
  C250     1.0000 0.14709  0.05701  0.03680  Biso   1.000  C
  H133     1.0000 0.36637  0.95321  0.97956  Biso   1.000  H
  C251     1.0000 0.31214  0.03380  0.97472  Biso   1.000  C
  C252     1.0000 0.23651  0.07012  0.99668  Biso   1.000  C
  H134     1.0000 0.09359  0.08368  0.05095  Biso   1.000  H
  H135     1.0000 0.36492  0.04465  0.94787  Biso   1.000  H
  H136     1.0000 0.24104  0.10730  0.98555  Biso   1.000  H
