data_image0
_cell_length_a       12.555
_cell_length_b       17.818
_cell_length_c       17.84
_cell_angle_alpha    73.99
_cell_angle_beta     89.55
_cell_angle_gamma    87.33

_symmetry_space_group_name_H-M    "P 1"
_symmetry_int_tables_number       1

loop_
  _symmetry_equiv_pos_as_xyz
  'x, y, z'

loop_
  _atom_site_label
  _atom_site_occupancy
  _atom_site_fract_x
  _atom_site_fract_y
  _atom_site_fract_z
  _atom_site_thermal_displace_type
  _atom_site_B_iso_or_equiv
  _atom_site_type_symbol
  C1       1.0000 0.78359  0.57894  0.47440  Biso   1.000  C
  O1       1.0000 0.86390  0.55055  0.43341  Biso   1.000  O
  H1       1.0000 0.77457  0.63587  0.45341  Biso   1.000  H
  H2       1.0000 0.80318  0.56602  0.52969  Biso   1.000  H
  H3       1.0000 0.71642  0.55496  0.46886  Biso   1.000  H
  C2       1.0000 0.89199  0.47112  0.45650  Biso   1.000  C
  C3       1.0000 0.84799  0.41985  0.52088  Biso   1.000  C
  C4       1.0000 0.96914  0.44682  0.41090  Biso   1.000  C
  C5       1.0000 0.88376  0.34271  0.54182  Biso   1.000  C
  H4       1.0000 0.79384  0.43771  0.55016  Biso   1.000  H
  C6       1.0000 0.01679  0.50530  0.34138  Biso   1.000  C
  C7       1.0000 0.00269  0.36822  0.43242  Biso   1.000  C
  C8       1.0000 0.84936  0.27873  0.61331  Biso   1.000  C
  C9       1.0000 0.96239  0.31624  0.49791  Biso   1.000  C
  C10      1.0000 0.94902  0.52343  0.26808  Biso   1.000  C
  H5       1.0000 0.02708  0.55454  0.35532  Biso   1.000  H
  H6       1.0000 0.08782  0.48450  0.33025  Biso   1.000  H
  H7       1.0000 0.05427  0.34989  0.40157  Biso   1.000  H
  C11      1.0000 0.81375  0.21166  0.58316  Biso   1.000  C
  C12      1.0000 0.95122  0.24833  0.65927  Biso   1.000  C
  H8       1.0000 0.79336  0.29770  0.64469  Biso   1.000  H
  C13      1.0000 0.99353  0.22862  0.53179  Biso   1.000  C
  C14      1.0000 0.86937  0.58493  0.25391  Biso   1.000  C
  C15      1.0000 0.95991  0.47959  0.21589  Biso   1.000  C
  C16      1.0000 0.71654  0.17753  0.59588  Biso   1.000  C
  C17      1.0000 0.89142  0.18502  0.53972  Biso   1.000  C
  C18      1.0000 0.03066  0.22026  0.61530  Biso   1.000  C
  C19      1.0000 0.97225  0.24612  0.73578  Biso   1.000  C
  H9       1.0000 0.04877  0.20919  0.50001  Biso   1.000  H
  C20      1.0000 0.80462  0.59939  0.18877  Biso   1.000  C
  H10      1.0000 0.86070  0.61608  0.28919  Biso   1.000  H
  C21      1.0000 0.89679  0.49523  0.14830  Biso   1.000  C
  O2       1.0000 0.03722  0.41913  0.23420  Biso   1.000  O
  C22      1.0000 0.69462  0.11523  0.56678  Biso   1.000  C
  H11      1.0000 0.66380  0.19693  0.62509  Biso   1.000  H
  C23      1.0000 0.87136  0.12244  0.50998  Biso   1.000  C
  C24      1.0000 0.12655  0.18945  0.64871  Biso   1.000  C
  H12      1.0000 0.91969  0.26504  0.76552  Biso   1.000  H
  C25      1.0000 0.06991  0.21627  0.76896  Biso   1.000  C
  C26      1.0000 0.71073  0.65930  0.16778  Biso   1.000  C
  C27      1.0000 0.81932  0.55588  0.13582  Biso   1.000  C
  H13      1.0000 0.90674  0.46526  0.11203  Biso   1.000  H
  C28      1.0000 0.04929  0.37153  0.18381  Biso   1.000  C
  C29      1.0000 0.58847  0.07605  0.58270  Biso   1.000  C
  C30      1.0000 0.77348  0.08865  0.52327  Biso   1.000  C
  H14      1.0000 0.92441  0.10316  0.48094  Biso   1.000  H
  H15      1.0000 0.17850  0.16886  0.61973  Biso   1.000  H
  C31      1.0000 0.14717  0.18857  0.72668  Biso   1.000  C
  H16      1.0000 0.08400  0.21477  0.82156  Biso   1.000  H
  C32      1.0000 0.61531  0.61232  0.16090  Biso   1.000  C
  H17      1.0000 0.69966  0.69016  0.20656  Biso   1.000  H
  C33      1.0000 0.73115  0.71009  0.08608  Biso   1.000  C
  C34      1.0000 0.73957  0.57849  0.06782  Biso   1.000  C
  H18      1.0000 0.98189  0.34708  0.18020  Biso   1.000  H
  H19      1.0000 0.06927  0.40335  0.13191  Biso   1.000  H
  H20      1.0000 0.10520  0.33087  0.20387  Biso   1.000  H
  C35      1.0000 0.49976  0.12236  0.52817  Biso   1.000  C
  H21      1.0000 0.56764  0.07109  0.63746  Biso   1.000  H
  H22      1.0000 0.59669  0.02279  0.57599  Biso   1.000  H
  O3       1.0000 0.74623  0.02739  0.49470  Biso   1.000  O
  H23      1.0000 0.21416  0.16881  0.75001  Biso   1.000  H
  C36      1.0000 0.52020  0.60780  0.20247  Biso   1.000  C
  C37      1.0000 0.63028  0.56839  0.10783  Biso   1.000  C
  C38      1.0000 0.74700  0.66609  0.03202  Biso   1.000  C
  C39      1.0000 0.73349  0.78989  0.06018  Biso   1.000  C
  H24      1.0000 0.75067  0.54731  0.02939  Biso   1.000  H
  C40      1.0000 0.43535  0.17866  0.54870  Biso   1.000  C
  C41      1.0000 0.48363  0.10882  0.45498  Biso   1.000  C
  C42      1.0000 0.83031  0.97899  0.47709  Biso   1.000  C
  C43      1.0000 0.44263  0.55912  0.19099  Biso   1.000  C
  H25      1.0000 0.50849  0.63799  0.23840  Biso   1.000  H
  C44      1.0000 0.55139  0.52020  0.09640  Biso   1.000  C
  C45      1.0000 0.76693  0.70317  0.95376  Biso   1.000  C
  H26      1.0000 0.72217  0.82010  0.09622  Biso   1.000  H
  C46      1.0000 0.75210  0.82747  0.98256  Biso   1.000  C
  C47      1.0000 0.35463  0.22142  0.49866  Biso   1.000  C
  O4       1.0000 0.45556  0.18983  0.62049  Biso   1.000  O
  C48      1.0000 0.40558  0.15085  0.40477  Biso   1.000  C
  H27      1.0000 0.52712  0.07030  0.44006  Biso   1.000  H
  H28      1.0000 0.86401  0.00654  0.42804  Biso   1.000  H
  H29      1.0000 0.80164  0.93053  0.47172  Biso   1.000  H
  H30      1.0000 0.88339  0.96668  0.51919  Biso   1.000  H
  C49      1.0000 0.45531  0.51611  0.13681  Biso   1.000  C
  O5       1.0000 0.34559  0.55052  0.23000  Biso   1.000  O
  H31      1.0000 0.56312  0.48983  0.06071  Biso   1.000  H
  C50      1.0000 0.76860  0.78428  0.93025  Biso   1.000  C
  H32      1.0000 0.77901  0.67363  0.91731  Biso   1.000  H
  H33      1.0000 0.75364  0.88289  0.96559  Biso   1.000  H
  C51      1.0000 0.34112  0.20654  0.42647  Biso   1.000  C
  H34      1.0000 0.31037  0.25949  0.51359  Biso   1.000  H
  C52      1.0000 0.41273  0.25911  0.63612  Biso   1.000  C
  C53      1.0000 0.37873  0.14431  0.32290  Biso   1.000  C
  C54      1.0000 0.36946  0.46524  0.12328  Biso   1.000  C
  C55      1.0000 0.32720  0.59263  0.28581  Biso   1.000  C
  H35      1.0000 0.78150  0.81025  0.87713  Biso   1.000  H
  C56      1.0000 0.26070  0.24931  0.36401  Biso   1.000  C
  H36      1.0000 0.43723  0.30479  0.59629  Biso   1.000  H
  H37      1.0000 0.43672  0.26100  0.68761  Biso   1.000  H
  H38      1.0000 0.33466  0.25949  0.63495  Biso   1.000  H
  C57      1.0000 0.38849  0.22651  0.26802  Biso   1.000  C
  C58      1.0000 0.26058  0.12915  0.32307  Biso   1.000  C
  H39      1.0000 0.42467  0.10387  0.30721  Biso   1.000  H
  C59      1.0000 0.37842  0.38100  0.17600  Biso   1.000  C
  H40      1.0000 0.37223  0.46395  0.06817  Biso   1.000  H
  H41      1.0000 0.29929  0.48906  0.13180  Biso   1.000  H
  H42      1.0000 0.33254  0.64867  0.26073  Biso   1.000  H
  H43      1.0000 0.38059  0.57564  0.32756  Biso   1.000  H
  H44      1.0000 0.25577  0.58278  0.30785  Biso   1.000  H
  C60      1.0000 0.32524  0.28295  0.29047  Biso   1.000  C
  H45      1.0000 0.21515  0.28980  0.37993  Biso   1.000  H
  C61      1.0000 0.19579  0.18629  0.34401  Biso   1.000  C
  C62      1.0000 0.44569  0.24640  0.19909  Biso   1.000  C
  C63      1.0000 0.21465  0.06832  0.30208  Biso   1.000  C
  C64      1.0000 0.32132  0.35951  0.24540  Biso   1.000  C
  C65      1.0000 0.43862  0.32359  0.15337  Biso   1.000  C
  C66      1.0000 0.08604  0.18420  0.34162  Biso   1.000  C
  H46      1.0000 0.48869  0.20821  0.18341  Biso   1.000  H
  H47      1.0000 0.25819  0.02884  0.28902  Biso   1.000  H
  C67      1.0000 0.10489  0.06623  0.30050  Biso   1.000  C
  H48      1.0000 0.27942  0.39787  0.26172  Biso   1.000  H
  O6       1.0000 0.49008  0.34753  0.08281  Biso   1.000  O
  C68      1.0000 0.03946  0.12402  0.31887  Biso   1.000  C
  H49      1.0000 0.04252  0.22334  0.35532  Biso   1.000  H
  H50      1.0000 0.07324  0.02450  0.28663  Biso   1.000  H
  C69      1.0000 0.52637  0.29029  0.04619  Biso   1.000  C
  H51      1.0000 0.96408  0.12255  0.31608  Biso   1.000  H
  H52      1.0000 0.46802  0.25656  0.04321  Biso   1.000  H
  H53      1.0000 0.58555  0.25859  0.07651  Biso   1.000  H
  H54      1.0000 0.55091  0.31600  0.99341  Biso   1.000  H
  C70      1.0000 0.21639  0.42112  0.52561  Biso   1.000  C
  H55      1.0000 0.22534  0.36421  0.54654  Biso   1.000  H
  H56      1.0000 0.19672  0.43406  0.47026  Biso   1.000  H
  H57      1.0000 0.28348  0.44510  0.53115  Biso   1.000  H
  O7       1.0000 0.13608  0.44952  0.56660  Biso   1.000  O
  C71      1.0000 0.10799  0.52894  0.54351  Biso   1.000  C
  C72      1.0000 0.03076  0.55325  0.58911  Biso   1.000  C
  C73      1.0000 0.15199  0.58023  0.47907  Biso   1.000  C
  C74      1.0000 0.99729  0.63184  0.56759  Biso   1.000  C
  C75      1.0000 0.98312  0.49472  0.65857  Biso   1.000  C
  C76      1.0000 0.11615  0.65730  0.45819  Biso   1.000  C
  H58      1.0000 0.20615  0.56235  0.44985  Biso   1.000  H
  C77      1.0000 0.03760  0.68382  0.50210  Biso   1.000  C
  H59      1.0000 0.94564  0.65017  0.59844  Biso   1.000  H
  C78      1.0000 0.05096  0.47665  0.73187  Biso   1.000  C
  H60      1.0000 0.97283  0.44546  0.64469  Biso   1.000  H
  H61      1.0000 0.91209  0.51556  0.66976  Biso   1.000  H
  C79      1.0000 0.15055  0.72133  0.38670  Biso   1.000  C
  C80      1.0000 0.00638  0.77141  0.46816  Biso   1.000  C
  C81      1.0000 0.04000  0.52044  0.78406  Biso   1.000  C
  C82      1.0000 0.13054  0.41513  0.74610  Biso   1.000  C
  C83      1.0000 0.04869  0.75175  0.34068  Biso   1.000  C
  H62      1.0000 0.20663  0.70232  0.35526  Biso   1.000  H
  C84      1.0000 0.18616  0.78842  0.41679  Biso   1.000  C
  C85      1.0000 0.10848  0.81505  0.46029  Biso   1.000  C
  H63      1.0000 0.95114  0.79087  0.50001  Biso   1.000  H
  C86      1.0000 0.96924  0.77981  0.38471  Biso   1.000  C
  C87      1.0000 0.10312  0.50483  0.85171  Biso   1.000  C
  O8       1.0000 0.96276  0.58093  0.76581  Biso   1.000  O
  C88      1.0000 0.19537  0.40063  0.81118  Biso   1.000  C
  H64      1.0000 0.13928  0.38398  0.71082  Biso   1.000  H
  C89      1.0000 0.02766  0.75390  0.26417  Biso   1.000  C
  C90      1.0000 0.28337  0.82255  0.40407  Biso   1.000  C
  C91      1.0000 0.12855  0.87764  0.48997  Biso   1.000  C
  C92      1.0000 0.87335  0.81062  0.35130  Biso   1.000  C
  C93      1.0000 0.18059  0.44413  0.86419  Biso   1.000  C
  H65      1.0000 0.09316  0.53481  0.88798  Biso   1.000  H
  C94      1.0000 0.95061  0.62853  0.81620  Biso   1.000  C
  C95      1.0000 0.28925  0.34078  0.83218  Biso   1.000  C
  H66      1.0000 0.08022  0.73497  0.23449  Biso   1.000  H
  C96      1.0000 0.92999  0.78381  0.23099  Biso   1.000  C
  C97      1.0000 0.30529  0.88485  0.43317  Biso   1.000  C
  H67      1.0000 0.33619  0.80313  0.37492  Biso   1.000  H
  H68      1.0000 0.07557  0.89690  0.51907  Biso   1.000  H
  C98      1.0000 0.22650  0.91142  0.47668  Biso   1.000  C
  H69      1.0000 0.82141  0.83116  0.38022  Biso   1.000  H
  C99      1.0000 0.85282  0.81151  0.27327  Biso   1.000  C
  C100     1.0000 0.26033  0.42157  0.93219  Biso   1.000  C
  H70      1.0000 0.01801  0.65298  0.81981  Biso   1.000  H
  H71      1.0000 0.93063  0.59671  0.86810  Biso   1.000  H
  H72      1.0000 0.89470  0.66921  0.79608  Biso   1.000  H
  C101     1.0000 0.38460  0.38774  0.83912  Biso   1.000  C
  H73      1.0000 0.30025  0.30992  0.79340  Biso   1.000  H
  C102     1.0000 0.26884  0.28994  0.91388  Biso   1.000  C
  H74      1.0000 0.91590  0.78531  0.17839  Biso   1.000  H
  C103     1.0000 0.41152  0.92401  0.41731  Biso   1.000  C
  O9       1.0000 0.25367  0.97267  0.50531  Biso   1.000  O
  H75      1.0000 0.78574  0.83125  0.25000  Biso   1.000  H
  C104     1.0000 0.36963  0.43167  0.89218  Biso   1.000  C
  C105     1.0000 0.25290  0.33397  0.96799  Biso   1.000  C
  H76      1.0000 0.24932  0.45275  0.97062  Biso   1.000  H
  C106     1.0000 0.47971  0.39222  0.79748  Biso   1.000  C
  C107     1.0000 0.26642  0.21013  0.93977  Biso   1.000  C
  H77      1.0000 0.43235  0.92899  0.36250  Biso   1.000  H
  H78      1.0000 0.40330  0.97727  0.42402  Biso   1.000  H
  C108     1.0000 0.50015  0.87772  0.47178  Biso   1.000  C
  C109     1.0000 0.16967  0.02108  0.52287  Biso   1.000  C
  C110     1.0000 0.44851  0.47987  0.90361  Biso   1.000  C
  C111     1.0000 0.23297  0.29691  0.04620  Biso   1.000  C
  C112     1.0000 0.55736  0.44096  0.80897  Biso   1.000  C
  H79      1.0000 0.49142  0.36204  0.76155  Biso   1.000  H
  H80      1.0000 0.27774  0.17996  0.90379  Biso   1.000  H
  C113     1.0000 0.24780  0.17261  0.01739  Biso   1.000  C
  C114     1.0000 0.56455  0.82141  0.45131  Biso   1.000  C
  C115     1.0000 0.51628  0.89126  0.54497  Biso   1.000  C
  H81      1.0000 0.13590  0.99348  0.57191  Biso   1.000  H
  H82      1.0000 0.19827  0.06949  0.52823  Biso   1.000  H
  H83      1.0000 0.11660  0.03340  0.48076  Biso   1.000  H
  C116     1.0000 0.54459  0.48396  0.86320  Biso   1.000  C
  H84      1.0000 0.43679  0.51023  0.93930  Biso   1.000  H
  C117     1.0000 0.23130  0.21580  0.06970  Biso   1.000  C
  H85      1.0000 0.22090  0.32639  0.08265  Biso   1.000  H
  O10      1.0000 0.65432  0.44950  0.76995  Biso   1.000  O
  H86      1.0000 0.24634  0.11719  0.03436  Biso   1.000  H
  C118     1.0000 0.64528  0.77860  0.50129  Biso   1.000  C
  O11      1.0000 0.54435  0.81018  0.37952  Biso   1.000  O
  C119     1.0000 0.59432  0.84923  0.59518  Biso   1.000  C
  H87      1.0000 0.47279  0.92972  0.55990  Biso   1.000  H
  C120     1.0000 0.63044  0.53484  0.87667  Biso   1.000  C
  H88      1.0000 0.21841  0.18982  0.12283  Biso   1.000  H
  C121     1.0000 0.67270  0.40743  0.71420  Biso   1.000  C
  H89      1.0000 0.68954  0.74057  0.48642  Biso   1.000  H
  C122     1.0000 0.65878  0.79354  0.57348  Biso   1.000  C
  C123     1.0000 0.58718  0.74090  0.36389  Biso   1.000  C
  C124     1.0000 0.62117  0.85575  0.67711  Biso   1.000  C
  C125     1.0000 0.62156  0.61907  0.82401  Biso   1.000  C
  H90      1.0000 0.62767  0.53613  0.93178  Biso   1.000  H
  H91      1.0000 0.70061  0.51102  0.86816  Biso   1.000  H
  H92      1.0000 0.66736  0.35140  0.73928  Biso   1.000  H
  H93      1.0000 0.61932  0.42438  0.67239  Biso   1.000  H
  H94      1.0000 0.74414  0.41729  0.69216  Biso   1.000  H
  C126     1.0000 0.73929  0.75075  0.63600  Biso   1.000  C
  H95      1.0000 0.56275  0.69529  0.40367  Biso   1.000  H
  H96      1.0000 0.56327  0.73906  0.31240  Biso   1.000  H
  H97      1.0000 0.66525  0.74059  0.36500  Biso   1.000  H
  C127     1.0000 0.61142  0.77355  0.73199  Biso   1.000  C
  H98      1.0000 0.57523  0.89619  0.69280  Biso   1.000  H
  C128     1.0000 0.73933  0.87093  0.67688  Biso   1.000  C
  C129     1.0000 0.67866  0.64055  0.75461  Biso   1.000  C
  C130     1.0000 0.56136  0.67643  0.84658  Biso   1.000  C
  H99      1.0000 0.78484  0.71021  0.62008  Biso   1.000  H
  C131     1.0000 0.67466  0.71713  0.70948  Biso   1.000  C
  C132     1.0000 0.80412  0.81371  0.65600  Biso   1.000  C
  C133     1.0000 0.55422  0.75368  0.80086  Biso   1.000  C
  C134     1.0000 0.78525  0.93176  0.69787  Biso   1.000  C
  H100     1.0000 0.72057  0.60221  0.73823  Biso   1.000  H
  O12      1.0000 0.50983  0.65253  0.91720  Biso   1.000  O
  C135     1.0000 0.91386  0.81586  0.65839  Biso   1.000  C
  H101     1.0000 0.51122  0.79180  0.81661  Biso   1.000  H
  H102     1.0000 0.74172  0.97124  0.71094  Biso   1.000  H
  C136     1.0000 0.89501  0.93383  0.69951  Biso   1.000  C
  C137     1.0000 0.47353  0.70979  0.95377  Biso   1.000  C
  C138     1.0000 0.96045  0.87606  0.68108  Biso   1.000  C
  H103     1.0000 0.95739  0.77673  0.64469  Biso   1.000  H
  H104     1.0000 0.92667  0.97556  0.71339  Biso   1.000  H
  H105     1.0000 0.53189  0.74345  0.95680  Biso   1.000  H
  H106     1.0000 0.41443  0.74141  0.92350  Biso   1.000  H
  H107     1.0000 0.44908  0.68408  0.00654  Biso   1.000  H
  H108     1.0000 0.03583  0.87753  0.68388  Biso   1.000  H
  Ne1      1.0000 0.65498  0.35424  0.34577  Biso   1.000  Ne
  He1      1.0000 0.49540  0.47027  0.48276  Biso   1.000  He
  He2      1.0000 0.74382  0.28170  0.29921  Biso   1.000  He
  Ar1      1.0000 0.65262  0.35246  0.34248  Biso   1.000  Ar
  Ne2      1.0000 0.34495  0.64582  0.65422  Biso   1.000  Ne
  He3      1.0000 0.25215  0.72788  0.70450  Biso   1.000  He
  He4      1.0000 0.50074  0.53326  0.52104  Biso   1.000  He
  Ar2      1.0000 0.32247  0.65188  0.66821  Biso   1.000  Ar
