data_image0
_cell_length_a       15.26
_cell_length_b       15.434
_cell_length_c       17.95
_cell_angle_alpha    99.2
_cell_angle_beta     113.15
_cell_angle_gamma    103.27

_symmetry_space_group_name_H-M    "P 1"
_symmetry_int_tables_number       1

loop_
  _symmetry_equiv_pos_as_xyz
  'x, y, z'

loop_
  _atom_site_label
  _atom_site_occupancy
  _atom_site_fract_x
  _atom_site_fract_y
  _atom_site_fract_z
  _atom_site_thermal_displace_type
  _atom_site_B_iso_or_equiv
  _atom_site_type_symbol
  C1       1.0000 0.58449  0.40446  0.53670  Biso   1.000  C
  C2       1.0000 0.57097  0.37144  0.60737  Biso   1.000  C
  C3       1.0000 0.69555  0.44782  0.56408  Biso   1.000  C
  H1       1.0000 0.55012  0.45216  0.52446  Biso   1.000  H
  O1       1.0000 0.54038  0.32776  0.46211  Biso   1.000  O
  O2       1.0000 0.46475  0.33420  0.58257  Biso   1.000  O
  H2       1.0000 0.60295  0.32223  0.61861  Biso   1.000  H
  C4       1.0000 0.62018  0.45305  0.68670  Biso   1.000  C
  C5       1.0000 0.74505  0.52440  0.64656  Biso   1.000  C
  H3       1.0000 0.72773  0.39843  0.57387  Biso   1.000  H
  O3       1.0000 0.71593  0.48375  0.50268  Biso   1.000  O
  H4       1.0000 0.50396  0.28247  0.46829  Biso   1.000  H
  C6       1.0000 0.42818  0.24181  0.58346  Biso   1.000  C
  H5       1.0000 0.58707  0.50163  0.67559  Biso   1.000  H
  C7       1.0000 0.61477  0.42531  0.76091  Biso   1.000  C
  O4       1.0000 0.72546  0.49163  0.70979  Biso   1.000  O
  H6       1.0000 0.81945  0.54644  0.66587  Biso   1.000  H
  O5       1.0000 0.70738  0.59902  0.63179  Biso   1.000  O
  H7       1.0000 0.70087  0.53262  0.50098  Biso   1.000  H
  C8       1.0000 0.33638  0.19201  0.49978  Biso   1.000  C
  H8       1.0000 0.48087  0.21156  0.58901  Biso   1.000  H
  O6       1.0000 0.40344  0.23754  0.65085  Biso   1.000  O
  H9       1.0000 0.64936  0.48009  0.81076  Biso   1.000  H
  H10      1.0000 0.54339  0.40174  0.74961  Biso   1.000  H
  O7       1.0000 0.66033  0.35540  0.77820  Biso   1.000  O
  C9       1.0000 0.77965  0.68854  0.65300  Biso   1.000  C
  O8       1.0000 0.36265  0.19034  0.43188  Biso   1.000  O
  H11      1.0000 0.30809  0.12672  0.49959  Biso   1.000  H
  C10      1.0000 0.25775  0.24036  0.49139  Biso   1.000  C
  C11      1.0000 0.32826  0.28029  0.65047  Biso   1.000  C
  H12      1.0000 0.62538  0.31585  0.79119  Biso   1.000  H
  C12      1.0000 0.74114  0.72736  0.57759  Biso   1.000  C
  H13      1.0000 0.84584  0.68053  0.66158  Biso   1.000  H
  C13      1.0000 0.79251  0.75079  0.73346  Biso   1.000  C
  H14      1.0000 0.33550  0.13685  0.39818  Biso   1.000  H
  H15      1.0000 0.28335  0.30548  0.48969  Biso   1.000  H
  C14      1.0000 0.23373  0.23995  0.56636  Biso   1.000  C
  O9       1.0000 0.16620  0.18886  0.41579  Biso   1.000  O
  H16      1.0000 0.35627  0.34875  0.66051  Biso   1.000  H
  C15      1.0000 0.30615  0.26200  0.72336  Biso   1.000  C
  C16      1.0000 0.81031  0.82522  0.60037  Biso   1.000  C
  H17      1.0000 0.67175  0.72881  0.56497  Biso   1.000  H
  O10      1.0000 0.73839  0.67154  0.50571  Biso   1.000  O
  H18      1.0000 0.72463  0.75021  0.72809  Biso   1.000  H
  C17      1.0000 0.84566  0.72028  0.81057  Biso   1.000  C
  O11      1.0000 0.85224  0.84525  0.74860  Biso   1.000  O
  H19      1.0000 0.19654  0.17533  0.56188  Biso   1.000  H
  O12      1.0000 0.17157  0.29717  0.56150  Biso   1.000  O
  H20      1.0000 0.16621  0.21057  0.37572  Biso   1.000  H
  H21      1.0000 0.36965  0.28600  0.77637  Biso   1.000  H
  H22      1.0000 0.26038  0.29574  0.72961  Biso   1.000  H
  O13      1.0000 0.26114  0.16582  0.71017  Biso   1.000  O
  C18      1.0000 0.81576  0.88310  0.68089  Biso   1.000  C
  H23      1.0000 0.87934  0.82224  0.61299  Biso   1.000  H
  O14      1.0000 0.78121  0.86753  0.53436  Biso   1.000  O
  H24      1.0000 0.67828  0.64143  0.47120  Biso   1.000  H
  H25      1.0000 0.85717  0.76563  0.86200  Biso   1.000  H
  H26      1.0000 0.80296  0.65930  0.80666  Biso   1.000  H
  O15      1.0000 0.93971  0.71392  0.81606  Biso   1.000  O
  C19      1.0000 0.08048  0.26270  0.56718  Biso   1.000  C
  H27      1.0000 0.29604  0.14900  0.75100  Biso   1.000  H
  H28      1.0000 0.86105  0.94791  0.69597  Biso   1.000  H
  O16      1.0000 0.71655  0.88405  0.66101  Biso   1.000  O
  H29      1.0000 0.72073  0.86462  0.51840  Biso   1.000  H
  H30      1.0000 0.95128  0.66942  0.83549  Biso   1.000  H
  H31      1.0000 0.06956  0.19652  0.56800  Biso   1.000  H
  O17      1.0000 0.08352  0.31370  0.64025  Biso   1.000  O
  C20      1.0000 0.99480  0.26748  0.48931  Biso   1.000  C
  C21      1.0000 0.69988  0.97246  0.67338  Biso   1.000  C
  C22      1.0000 0.09987  0.41102  0.64631  Biso   1.000  C
  C23      1.0000 0.00775  0.36875  0.49000  Biso   1.000  C
  H32      1.0000 0.93000  0.24023  0.49139  Biso   1.000  H
  O18      1.0000 0.99088  0.21594  0.41447  Biso   1.000  O
  C24      1.0000 0.61565  0.97295  0.59261  Biso   1.000  C
  C25      1.0000 0.66751  0.98133  0.74475  Biso   1.000  C
  H33      1.0000 0.76274  0.02410  0.68916  Biso   1.000  H
  C26      1.0000 0.01376  0.42283  0.57008  Biso   1.000  C
  H34      1.0000 0.16608  0.43962  0.64688  Biso   1.000  H
  C27      1.0000 0.10156  0.45519  0.72967  Biso   1.000  C
  H35      1.0000 0.07118  0.39608  0.48577  Biso   1.000  H
  O19      1.0000 0.92359  0.37443  0.41939  Biso   1.000  O
  H36      1.0000 0.04825  0.21257  0.42387  Biso   1.000  H
  H37      1.0000 0.55624  0.91641  0.57387  Biso   1.000  H
  O20      1.0000 0.65145  0.97048  0.52969  Biso   1.000  O
  C28      1.0000 0.58597  0.05822  0.60819  Biso   1.000  C
  H38      1.0000 0.61206  0.92409  0.73308  Biso   1.000  H
  C29      1.0000 0.75541  0.99811  0.83019  Biso   1.000  C
  O21      1.0000 0.63451  0.06174  0.75276  Biso   1.000  O
  O22      1.0000 0.03606  0.51805  0.57191  Biso   1.000  O
  H39      1.0000 0.94834  0.40024  0.57260  Biso   1.000  H
  H40      1.0000 0.10592  0.52094  0.73415  Biso   1.000  H
  H41      1.0000 0.03837  0.42285  0.73099  Biso   1.000  H
  O23      1.0000 0.18635  0.44949  0.79997  Biso   1.000  O
  H42      1.0000 0.92807  0.35625  0.37471  Biso   1.000  H
  H43      1.0000 0.60373  0.96314  0.48262  Biso   1.000  H
  C30      1.0000 0.55405  0.06072  0.67919  Biso   1.000  C
  H44      1.0000 0.64721  0.11332  0.62807  Biso   1.000  H
  O24      1.0000 0.51133  0.06523  0.53367  Biso   1.000  O
  H45      1.0000 0.78556  0.94779  0.82868  Biso   1.000  H
  H46      1.0000 0.80791  0.05770  0.84408  Biso   1.000  H
  O25      1.0000 0.71881  0.00049  0.89298  Biso   1.000  O
  C31      1.0000 0.96777  0.56276  0.58049  Biso   1.000  C
  H47      1.0000 0.16621  0.42488  0.83127  Biso   1.000  H
  O26      1.0000 0.47005  0.98066  0.65281  Biso   1.000  O
  H48      1.0000 0.53464  0.11753  0.68947  Biso   1.000  H
  H49      1.0000 0.45405  0.03935  0.52938  Biso   1.000  H
  H50      1.0000 0.69420  0.04389  0.89450  Biso   1.000  H
  O27      1.0000 0.01285  0.63104  0.65956  Biso   1.000  O
  H51      1.0000 0.90733  0.51541  0.57588  Biso   1.000  H
  C32      1.0000 0.93495  0.60771  0.50836  Biso   1.000  C
  C33      1.0000 0.37776  0.99295  0.64927  Biso   1.000  C
  C34      1.0000 0.10063  0.70415  0.67325  Biso   1.000  C
  C35      1.0000 0.02659  0.67896  0.51600  Biso   1.000  C
  H52      1.0000 0.88818  0.64076  0.51518  Biso   1.000  H
  O28      1.0000 0.88276  0.54027  0.42879  Biso   1.000  O
  C36      1.0000 0.29555  0.93998  0.56371  Biso   1.000  C
  C37      1.0000 0.35713  0.95811  0.71768  Biso   1.000  C
  H53      1.0000 0.38416  0.06025  0.65880  Biso   1.000  H
  C38      1.0000 0.07555  0.75032  0.60207  Biso   1.000  C
  H54      1.0000 0.15556  0.67781  0.67616  Biso   1.000  H
  C39      1.0000 0.13224  0.77082  0.75857  Biso   1.000  C
  H55      1.0000 0.07548  0.64745  0.51158  Biso   1.000  H
  O29      1.0000 0.99649  0.72107  0.44848  Biso   1.000  O
  H56      1.0000 0.92357  0.51886  0.41781  Biso   1.000  H
  C40      1.0000 0.19531  0.94692  0.55986  Biso   1.000  C
  H57      1.0000 0.29227  0.87348  0.55329  Biso   1.000  H
  O30      1.0000 0.31442  0.97567  0.50130  Biso   1.000  O
  O31      1.0000 0.25932  0.95840  0.70866  Biso   1.000  O
  H58      1.0000 0.36065  0.89371  0.71326  Biso   1.000  H
  C41      1.0000 0.42965  0.01992  0.80647  Biso   1.000  C
  H59      1.0000 0.02876  0.78536  0.60517  Biso   1.000  H
  O32      1.0000 0.16674  0.81354  0.61066  Biso   1.000  O
  H60      1.0000 0.14354  0.73650  0.80180  Biso   1.000  H
  H61      1.0000 0.19672  0.81923  0.77466  Biso   1.000  H
  O33      1.0000 0.05951  0.81394  0.75807  Biso   1.000  O
  H62      1.0000 0.96055  0.75266  0.45510  Biso   1.000  H
  C42      1.0000 0.17805  0.91060  0.62889  Biso   1.000  C
  O34      1.0000 0.11469  0.89697  0.48129  Biso   1.000  O
  H63      1.0000 0.19915  0.01367  0.57021  Biso   1.000  H
  H64      1.0000 0.26263  0.95333  0.45479  Biso   1.000  H
  H65      1.0000 0.41552  0.99199  0.84818  Biso   1.000  H
  H66      1.0000 0.49962  0.02501  0.81719  Biso   1.000  H
  O35      1.0000 0.41880  0.11074  0.81606  Biso   1.000  O
  H67      1.0000 0.08752  0.87160  0.77807  Biso   1.000  H
  H68      1.0000 0.11493  0.91913  0.62870  Biso   1.000  H
  H69      1.0000 0.09025  0.93388  0.45668  Biso   1.000  H
  H70      1.0000 0.40343  0.12284  0.85569  Biso   1.000  H
  C43      1.0000 0.44477  0.33711  0.23891  Biso   1.000  C
  C44      1.0000 0.39791  0.23360  0.21051  Biso   1.000  C
  H71      1.0000 0.39817  0.36645  0.25122  Biso   1.000  H
  C45      1.0000 0.46110  0.36691  0.16729  Biso   1.000  C
  O36      1.0000 0.53816  0.36280  0.31388  Biso   1.000  O
  C46      1.0000 0.30075  0.20307  0.12867  Biso   1.000  C
  H72      1.0000 0.44619  0.20569  0.19941  Biso   1.000  H
  O37      1.0000 0.37768  0.19809  0.27330  Biso   1.000  O
  C47      1.0000 0.36057  0.33827  0.08898  Biso   1.000  C
  H73      1.0000 0.50729  0.33735  0.15448  Biso   1.000  H
  O38      1.0000 0.50519  0.46546  0.19360  Biso   1.000  O
  H74      1.0000 0.53468  0.39576  0.35401  Biso   1.000  H
  O39      1.0000 0.22932  0.23549  0.14470  Biso   1.000  O
  H75      1.0000 0.27470  0.13390  0.10892  Biso   1.000  H
  O40      1.0000 0.31787  0.23709  0.06601  Biso   1.000  O
  H76      1.0000 0.40409  0.24076  0.31861  Biso   1.000  H
  H77      1.0000 0.31428  0.36777  0.10160  Biso   1.000  H
  C48      1.0000 0.37059  0.36163  0.01331  Biso   1.000  C
  C49      1.0000 0.59924  0.50119  0.19398  Biso   1.000  C
  C50      1.0000 0.13518  0.16878  0.12539  Biso   1.000  C
  H78      1.0000 0.39006  0.42959  0.02259  Biso   1.000  H
  O41      1.0000 0.44269  0.32930  0.00082  Biso   1.000  O
  H79      1.0000 0.30494  0.33290  0.96245  Biso   1.000  H
  H80      1.0000 0.62789  0.44980  0.18792  Biso   1.000  H
  C51      1.0000 0.66884  0.57299  0.27867  Biso   1.000  C
  O42      1.0000 0.58996  0.54268  0.12728  Biso   1.000  O
  C52      1.0000 0.11387  0.19077  0.20048  Biso   1.000  C
  H81      1.0000 0.14067  0.10509  0.11611  Biso   1.000  H
  C53      1.0000 0.05323  0.17582  0.04512  Biso   1.000  C
  H82      1.0000 0.42028  0.27115  0.98227  Biso   1.000  H
  H83      1.0000 0.73572  0.59986  0.27987  Biso   1.000  H
  C54      1.0000 0.62425  0.65095  0.28908  Biso   1.000  C
  O43      1.0000 0.68247  0.53157  0.34581  Biso   1.000  O
  C55      1.0000 0.54565  0.61657  0.12943  Biso   1.000  C
  O44      1.0000 0.18729  0.17339  0.27090  Biso   1.000  O
  C56      1.0000 0.00991  0.12989  0.17997  Biso   1.000  C
  H84      1.0000 0.11819  0.25735  0.21481  Biso   1.000  H
  O45      1.0000 0.95496  0.12307  0.03269  Biso   1.000  O
  H85      1.0000 0.05711  0.24233  0.05143  Biso   1.000  H
  C57      1.0000 0.06106  0.13980  0.96706  Biso   1.000  C
  H86      1.0000 0.55864  0.62555  0.29047  Biso   1.000  H
  C58      1.0000 0.60718  0.69048  0.21361  Biso   1.000  C
  O46      1.0000 0.69015  0.72395  0.36291  Biso   1.000  O
  H87      1.0000 0.62606  0.50304  0.34158  Biso   1.000  H
  H88      1.0000 0.47529  0.59028  0.12141  Biso   1.000  H
  C59      1.0000 0.54356  0.65418  0.05572  Biso   1.000  C
  H89      1.0000 0.22140  0.14669  0.25462  Biso   1.000  H
  H90      1.0000 0.00669  0.06346  0.16697  Biso   1.000  H
  C60      1.0000 0.93437  0.14611  0.10229  Biso   1.000  C
  O47      1.0000 0.98778  0.15015  0.24920  Biso   1.000  O
  H91      1.0000 0.00323  0.14221  0.91746  Biso   1.000  H
  H92      1.0000 0.12362  0.17932  0.96914  Biso   1.000  H
  O48      1.0000 0.06203  0.04488  0.95841  Biso   1.000  O
  H93      1.0000 0.67358  0.72480  0.21739  Biso   1.000  H
  O49      1.0000 0.55373  0.75379  0.22099  Biso   1.000  O
  H94      1.0000 0.73615  0.70646  0.39421  Biso   1.000  H
  H95      1.0000 0.50810  0.60272  0.00303  Biso   1.000  H
  H96      1.0000 0.50600  0.69922  0.04979  Biso   1.000  H
  O50      1.0000 0.64430  0.69909  0.06822  Biso   1.000  O
  H97      1.0000 0.86460  0.10779  0.08828  Biso   1.000  H
  O51      1.0000 0.94442  0.24146  0.12362  Biso   1.000  O
  H98      1.0000 0.02141  0.20519  0.27841  Biso   1.000  H
  H99      1.0000 0.05067  0.02053  0.90882  Biso   1.000  H
  C61      1.0000 0.58841  0.84224  0.21247  Biso   1.000  C
  H100     1.0000 0.68425  0.67630  0.09958  Biso   1.000  H
  C62      1.0000 0.85817  0.26790  0.11302  Biso   1.000  C
  H101     1.0000 0.65448  0.85058  0.21058  Biso   1.000  H
  C63      1.0000 0.60366  0.91310  0.28908  Biso   1.000  C
  O52      1.0000 0.51813  0.85328  0.13700  Biso   1.000  O
  C64      1.0000 0.87906  0.33480  0.19518  Biso   1.000  C
  H102     1.0000 0.80046  0.21131  0.09869  Biso   1.000  H
  C65      1.0000 0.83151  0.31270  0.04039  Biso   1.000  C
  H103     1.0000 0.62936  0.97609  0.28327  Biso   1.000  H
  C66      1.0000 0.50415  0.90415  0.29179  Biso   1.000  C
  O53      1.0000 0.67696  0.90498  0.36367  Biso   1.000  O
  C67      1.0000 0.41952  0.84157  0.13397  Biso   1.000  C
  C68      1.0000 0.78918  0.36730  0.18048  Biso   1.000  C
  H104     1.0000 0.94038  0.38906  0.21298  Biso   1.000  H
  O54      1.0000 0.89434  0.28736  0.25898  Biso   1.000  O
  C69      1.0000 0.79405  0.24183  0.95614  Biso   1.000  C
  H105     1.0000 0.89264  0.36290  0.05017  Biso   1.000  H
  O55      1.0000 0.75288  0.35157  0.03408  Biso   1.000  O
  H106     1.0000 0.47674  0.84184  0.29810  Biso   1.000  H
  C70      1.0000 0.43056  0.91485  0.20849  Biso   1.000  C
  O56      1.0000 0.52058  0.97539  0.36228  Biso   1.000  O
  H107     1.0000 0.64915  0.86568  0.38178  Biso   1.000  H
  H108     1.0000 0.39173  0.77829  0.13839  Biso   1.000  H
  C71      1.0000 0.35379  0.85082  0.04941  Biso   1.000  C
  C72      1.0000 0.77061  0.41439  0.10860  Biso   1.000  C
  H109     1.0000 0.72888  0.31168  0.16218  Biso   1.000  H
  O57      1.0000 0.80199  0.42756  0.25488  Biso   1.000  O
  H110     1.0000 0.94050  0.26455  0.26340  Biso   1.000  H
  H111     1.0000 0.77812  0.27213  0.91001  Biso   1.000  H
  H112     1.0000 0.84673  0.21411  0.95671  Biso   1.000  H
  O58      1.0000 0.70573  0.17130  0.94283  Biso   1.000  O
  H113     1.0000 0.45454  0.97865  0.20338  Biso   1.000  H
  O59      1.0000 0.33445  0.89775  0.20919  Biso   1.000  O
  H114     1.0000 0.48227  0.95504  0.38317  Biso   1.000  H
  H115     1.0000 0.34659  0.80004  0.00391  Biso   1.000  H
  H116     1.0000 0.28590  0.84592  0.04493  Biso   1.000  H
  O60      1.0000 0.39589  0.93533  0.04020  Biso   1.000  O
  H117     1.0000 0.71078  0.43562  0.09838  Biso   1.000  H
  O61      1.0000 0.85769  0.49288  0.13353  Biso   1.000  O
  H118     1.0000 0.83136  0.48225  0.25847  Biso   1.000  H
  H119     1.0000 0.70997  0.11890  0.92674  Biso   1.000  H
  C73      1.0000 0.29107  0.97031  0.20181  Biso   1.000  C
  H120     1.0000 0.44075  0.97019  0.08740  Biso   1.000  H
  C74      1.0000 0.84428  0.58162  0.13593  Biso   1.000  C
  C75      1.0000 0.26418  0.98740  0.27482  Biso   1.000  C
  O62      1.0000 0.20445  0.94559  0.12413  Biso   1.000  O
  H121     1.0000 0.34168  0.02777  0.20660  Biso   1.000  H
  C76      1.0000 0.91786  0.64787  0.22181  Biso   1.000  C
  H122     1.0000 0.77390  0.57647  0.12589  Biso   1.000  H
  C77      1.0000 0.86499  0.61717  0.06721  Biso   1.000  C
  C78      1.0000 0.18898  0.89978  0.26870  Biso   1.000  C
  H123     1.0000 0.23236  0.03747  0.27072  Biso   1.000  H
  O63      1.0000 0.35123  0.01626  0.35319  Biso   1.000  O
  C79      1.0000 0.12679  0.86177  0.10980  Biso   1.000  C
  C80      1.0000 0.90777  0.74305  0.22307  Biso   1.000  C
  H124     1.0000 0.98818  0.65017  0.23342  Biso   1.000  H
  O64      1.0000 0.89306  0.61426  0.28340  Biso   1.000  O
  C81      1.0000 0.78422  0.56245  0.97854  Biso   1.000  C
  H125     1.0000 0.93209  0.61432  0.07288  Biso   1.000  H
  O65      1.0000 0.86416  0.71081  0.07408  Biso   1.000  O
  C82      1.0000 0.09735  0.87280  0.18300  Biso   1.000  C
  H126     1.0000 0.21963  0.84907  0.27286  Biso   1.000  H
  O66      1.0000 0.16334  0.91746  0.33559  Biso   1.000  O
  H127     1.0000 0.38644  0.98186  0.35237  Biso   1.000  H
  H128     1.0000 0.15266  0.80801  0.10728  Biso   1.000  H
  C83      1.0000 0.03987  0.84799  0.02568  Biso   1.000  C
  C84      1.0000 0.92945  0.77560  0.15328  Biso   1.000  C
  H129     1.0000 0.83719  0.73939  0.21159  Biso   1.000  H
  O67      1.0000 0.97427  0.80857  0.30138  Biso   1.000  O
  H130     1.0000 0.93416  0.64904  0.33186  Biso   1.000  H
  H131     1.0000 0.80361  0.58433  0.93664  Biso   1.000  H
  H132     1.0000 0.77837  0.49591  0.96996  Biso   1.000  H
  O68      1.0000 0.68942  0.57325  0.96624  Biso   1.000  O
  O69      1.0000 0.03128  0.78292  0.17341  Biso   1.000  O
  H133     1.0000 0.06172  0.91988  0.18067  Biso   1.000  H
  H134     1.0000 0.11486  0.87254  0.32827  Biso   1.000  H
  H135     1.0000 0.98955  0.78629  0.00921  Biso   1.000  H
  O70      1.0000 0.99199  0.91858  0.02770  Biso   1.000  O
  H136     1.0000 0.06462  0.84899  0.98233  Biso   1.000  H
  H137     1.0000 0.92008  0.83751  0.15240  Biso   1.000  H
  H138     1.0000 0.94116  0.83234  0.32158  Biso   1.000  H
  H139     1.0000 0.67756  0.61100  0.93765  Biso   1.000  H
  H140     1.0000 0.02717  0.96760  0.02518  Biso   1.000  H
