data_image0
_cell_length_a       25.256
_cell_length_b       25.256
_cell_length_c       11.007
_cell_angle_alpha    90
_cell_angle_beta     90
_cell_angle_gamma    120

_symmetry_space_group_name_H-M    "P 1"
_symmetry_int_tables_number       1

loop_
  _symmetry_equiv_pos_as_xyz
  'x, y, z'

loop_
  _atom_site_label
  _atom_site_occupancy
  _atom_site_fract_x
  _atom_site_fract_y
  _atom_site_fract_z
  _atom_site_thermal_displace_type
  _atom_site_B_iso_or_equiv
  _atom_site_type_symbol
  N1       1.0000 0.87940  0.12299  0.43272  Biso   1.000  N
  C1       1.0000 0.85319  0.12189  0.55038  Biso   1.000  C
  C2       1.0000 0.85202  0.07782  0.36186  Biso   1.000  C
  C3       1.0000 0.85198  0.07782  0.36186  Biso   1.000  C
  H1       1.0000 0.81609  0.08111  0.56400  Biso   1.000  H
  C4       1.0000 0.90121  0.13359  0.64831  Biso   1.000  C
  N2       1.0000 0.87944  0.12299  0.43272  Biso   1.000  N
  C5       1.0000 0.83562  0.17172  0.55347  Biso   1.000  C
  C6       1.0000 0.90117  0.13359  0.64831  Biso   1.000  C
  H2       1.0000 0.81510  0.04302  0.38739  Biso   1.000  H
  C7       1.0000 0.87683  0.07873  0.24030  Biso   1.000  C
  C8       1.0000 0.87677  0.07868  0.24030  Biso   1.000  C
  H3       1.0000 0.94030  0.17131  0.62569  Biso   1.000  H
  N3       1.0000 0.91229  0.08202  0.65231  Biso   1.000  N
  N4       1.0000 0.91233  0.08202  0.65231  Biso   1.000  N
  C9       1.0000 0.88209  0.14301  0.77287  Biso   1.000  C
  H4       1.0000 0.80181  0.16080  0.49523  Biso   1.000  H
  H5       1.0000 0.87101  0.21081  0.52666  Biso   1.000  H
  C10      1.0000 0.81550  0.18018  0.67902  Biso   1.000  C
  C11      1.0000 0.81553  0.18023  0.67902  Biso   1.000  C
  C12      1.0000 0.93310  0.12879  0.20478  Biso   1.000  C
  C13      1.0000 0.84488  0.03068  0.15708  Biso   1.000  C
  C14      1.0000 0.84491  0.03072  0.15708  Biso   1.000  C
  C15      1.0000 0.96648  0.09341  0.64822  Biso   1.000  C
  C16      1.0000 0.96652  0.09341  0.64822  Biso   1.000  C
  H6       1.0000 0.91591  0.15380  0.83120  Biso   1.000  H
  H7       1.0000 0.84621  0.10461  0.80058  Biso   1.000  H
  C17      1.0000 0.86607  0.19390  0.77115  Biso   1.000  C
  H8       1.0000 0.80701  0.21452  0.67711  Biso   1.000  H
  H9       1.0000 0.77762  0.14283  0.70310  Biso   1.000  H
  H10      1.0000 0.95510  0.16139  0.26011  Biso   1.000  H
  C18      1.0000 0.95660  0.13112  0.09176  Biso   1.000  C
  H11      1.0000 0.80672  0.99680  0.17952  Biso   1.000  H
  C19      1.0000 0.86872  0.03251  0.04306  Biso   1.000  C
  C20      1.0000 0.86868  0.03251  0.04306  Biso   1.000  C
  C21      1.0000 0.98376  0.04535  0.65222  Biso   1.000  C
  H12      1.0000 0.99812  0.13483  0.64232  Biso   1.000  H
  H13      1.0000 0.90300  0.23322  0.75007  Biso   1.000  H
  H14      1.0000 0.85250  0.19820  0.85309  Biso   1.000  H
  C22      1.0000 0.92439  0.08239  0.00918  Biso   1.000  C
  C23      1.0000 0.01321  0.18663  0.05197  Biso   1.000  C
  C24      1.0000 0.83711  0.98441  0.95176  Biso   1.000  C
  C25      1.0000 0.93851  0.98281  0.65168  Biso   1.000  C
  C26      1.0000 0.04429  0.06149  0.65168  Biso   1.000  C
  H15      1.0000 0.94070  0.08380  0.93077  Biso   1.000  H
  N5       1.0000 0.03151  0.19399  0.94322  Biso   1.000  N
  H16      1.0000 0.03640  0.21740  0.11002  Biso   1.000  H
  N6       1.0000 0.78394  0.93887  0.96602  Biso   1.000  N
  H17      1.0000 0.85768  0.98761  0.87762  Biso   1.000  H
  H18      1.0000 0.89663  0.97152  0.65086  Biso   1.000  H
  C27      1.0000 0.95464  0.93842  0.65222  Biso   1.000  C
  H19      1.0000 0.07491  0.10342  0.65086  Biso   1.000  H
  C28      1.0000 0.06157  0.01623  0.65222  Biso   1.000  C
  C29      1.0000 0.06159  0.01628  0.65222  Biso   1.000  C
  C30      1.0000 0.08518  0.25256  0.91233  Biso   1.000  C
  C31      1.0000 0.08522  0.25256  0.91233  Biso   1.000  C
  C32      1.0000 0.75869  0.89503  0.86681  Biso   1.000  C
  C33      1.0000 0.90663  0.87313  0.64822  Biso   1.000  C
  C34      1.0000 0.90659  0.87313  0.64822  Biso   1.000  C
  C35      1.0000 0.01721  0.95570  0.65168  Biso   1.000  C
  C36      1.0000 0.12691  0.03351  0.64822  Biso   1.000  C
  C37      1.0000 0.13633  0.24131  0.86681  Biso   1.000  C
  H20      1.0000 0.09962  0.27930  0.98601  Biso   1.000  H
  C38      1.0000 0.06690  0.28291  0.81403  Biso   1.000  C
  C39      1.0000 0.13636  0.24136  0.86681  Biso   1.000  C
  H21      1.0000 0.09958  0.27930  0.98601  Biso   1.000  H
  C40      1.0000 0.69920  0.89000  0.82193  Biso   1.000  C
  H22      1.0000 0.78881  0.90911  0.79840  Biso   1.000  H
  C41      1.0000 0.74746  0.83267  0.91233  Biso   1.000  C
  H23      1.0000 0.86521  0.86330  0.64232  Biso   1.000  H
  N7       1.0000 0.91799  0.83029  0.65231  Biso   1.000  N
  H24      1.0000 0.02852  0.92511  0.65086  Biso   1.000  H
  H25      1.0000 0.02848  0.92511  0.65086  Biso   1.000  H
  N8       1.0000 0.16972  0.08769  0.65231  Biso   1.000  N
  H26      1.0000 0.13673  0.00192  0.64232  Biso   1.000  H
  N9       1.0000 0.15496  0.21607  0.96602  Biso   1.000  N
  C42      1.0000 0.19078  0.30079  0.82193  Biso   1.000  C
  H27      1.0000 0.12028  0.21118  0.79840  Biso   1.000  H
  H28      1.0000 0.12030  0.21123  0.79840  Biso   1.000  H
  H29      1.0000 0.04920  0.25480  0.74398  Biso   1.000  H
  H30      1.0000 0.03532  0.29142  0.84619  Biso   1.000  H
  C43      1.0000 0.12209  0.34230  0.77224  Biso   1.000  C
  H31      1.0000 0.67090  0.88021  0.89143  Biso   1.000  H
  H32      1.0000 0.70791  0.92991  0.78832  Biso   1.000  H
  C44      1.0000 0.66859  0.84089  0.72481  Biso   1.000  C
  H33      1.0000 0.72070  0.82032  0.98601  Biso   1.000  H
  C45      1.0000 0.71712  0.78402  0.81403  Biso   1.000  C
  N10      1.0000 0.80599  0.83751  0.94322  Biso   1.000  N
  C46      1.0000 0.86642  0.76761  0.64831  Biso   1.000  C
  C47      1.0000 0.86638  0.76761  0.64831  Biso   1.000  C
  C48      1.0000 0.23241  0.09880  0.64831  Biso   1.000  C
  C49      1.0000 0.14730  0.16290  0.95176  Biso   1.000  C
  H34      1.0000 0.20929  0.32909  0.89143  Biso   1.000  H
  H35      1.0000 0.22199  0.29210  0.78832  Biso   1.000  H
  C50      1.0000 0.17232  0.33142  0.72481  Biso   1.000  C
  C51      1.0000 0.17226  0.33138  0.72481  Biso   1.000  C
  H36      1.0000 0.13810  0.37138  0.84110  Biso   1.000  H
  H37      1.0000 0.10958  0.36091  0.70728  Biso   1.000  H
  C52      1.0000 0.65772  0.77981  0.77224  Biso   1.000  C
  H38      1.0000 0.69499  0.85260  0.65177  Biso   1.000  H
  H39      1.0000 0.62920  0.83751  0.70119  Biso   1.000  H
  C53      1.0000 0.65768  0.77981  0.77224  Biso   1.000  C
  H40      1.0000 0.74520  0.79440  0.74398  Biso   1.000  H
  H41      1.0000 0.70859  0.74392  0.84619  Biso   1.000  H
  H42      1.0000 0.70863  0.74392  0.84619  Biso   1.000  H
  C54      1.0000 0.81340  0.82658  0.05197  Biso   1.000  C
  C55      1.0000 0.81342  0.82663  0.05197  Biso   1.000  C
  H43      1.0000 0.82872  0.76902  0.62569  Biso   1.000  H
  C56      1.0000 0.85701  0.73912  0.77287  Biso   1.000  C
  C57      1.0000 0.87808  0.73130  0.55038  Biso   1.000  C
  C58      1.0000 0.87812  0.73130  0.55038  Biso   1.000  C
  H44      1.0000 0.23100  0.05971  0.62569  Biso   1.000  H
  C59      1.0000 0.26868  0.14681  0.55038  Biso   1.000  C
  C60      1.0000 0.26093  0.11791  0.77287  Biso   1.000  C
  C61      1.0000 0.26872  0.14681  0.55038  Biso   1.000  C
  H45      1.0000 0.12992  0.14233  0.87762  Biso   1.000  H
  C62      1.0000 0.16381  0.13131  0.04306  Biso   1.000  C
  H46      1.0000 0.15761  0.30500  0.65177  Biso   1.000  H
  H47      1.0000 0.20828  0.37079  0.70119  Biso   1.000  H
  H48      1.0000 0.63913  0.74872  0.70728  Biso   1.000  H
  H49      1.0000 0.62859  0.76669  0.84110  Biso   1.000  H
  H50      1.0000 0.63909  0.74872  0.70728  Biso   1.000  H
  C63      1.0000 0.86887  0.82549  0.09176  Biso   1.000  C
  H51      1.0000 0.78260  0.81900  0.11002  Biso   1.000  H
  H52      1.0000 0.84622  0.76212  0.83120  Biso   1.000  H
  H53      1.0000 0.89538  0.74159  0.80058  Biso   1.000  H
  C64      1.0000 0.80608  0.67219  0.77115  Biso   1.000  C
  N11      1.0000 0.87704  0.75645  0.43272  Biso   1.000  N
  C65      1.0000 0.82831  0.66391  0.55347  Biso   1.000  C
  H54      1.0000 0.91890  0.73501  0.56400  Biso   1.000  H
  H55      1.0000 0.23787  0.08408  0.83120  Biso   1.000  H
  H56      1.0000 0.25840  0.15380  0.80058  Biso   1.000  H
  C66      1.0000 0.32781  0.13391  0.77115  Biso   1.000  C
  H57      1.0000 0.23790  0.08412  0.83120  Biso   1.000  H
  N12      1.0000 0.24359  0.12061  0.43272  Biso   1.000  N
  C67      1.0000 0.33608  0.16441  0.55347  Biso   1.000  C
  C68      1.0000 0.33612  0.16441  0.55347  Biso   1.000  C
  H58      1.0000 0.26497  0.18389  0.56400  Biso   1.000  H
  C69      1.0000 0.15802  0.07562  0.00918  Biso   1.000  C
  C70      1.0000 0.18582  0.15513  0.15708  Biso   1.000  C
  C71      1.0000 0.87120  0.80432  0.20478  Biso   1.000  C
  C72      1.0000 0.91759  0.84199  0.00918  Biso   1.000  C
  H59      1.0000 0.76680  0.66981  0.75007  Biso   1.000  H
  H60      1.0000 0.80182  0.65431  0.85309  Biso   1.000  H
  C73      1.0000 0.81978  0.63529  0.67902  Biso   1.000  C
  C74      1.0000 0.92218  0.77419  0.36186  Biso   1.000  C
  C75      1.0000 0.92222  0.77419  0.36186  Biso   1.000  C
  H61      1.0000 0.83919  0.64101  0.49523  Biso   1.000  H
  H62      1.0000 0.78920  0.66021  0.52666  Biso   1.000  H
  H63      1.0000 0.33022  0.09702  0.75007  Biso   1.000  H
  H64      1.0000 0.34568  0.14749  0.85309  Biso   1.000  H
  C76      1.0000 0.36471  0.18453  0.67902  Biso   1.000  C
  H65      1.0000 0.33018  0.09702  0.75007  Biso   1.000  H
  C77      1.0000 0.22580  0.14800  0.36186  Biso   1.000  C
  H66      1.0000 0.35900  0.19820  0.49523  Biso   1.000  H
  H67      1.0000 0.33981  0.12902  0.52666  Biso   1.000  H
  H68      1.0000 0.14309  0.05930  0.93077  Biso   1.000  H
  C78      1.0000 0.17449  0.04339  0.09176  Biso   1.000  C
  C79      1.0000 0.20189  0.12321  0.24030  Biso   1.000  C
  H69      1.0000 0.19009  0.19330  0.17952  Biso   1.000  H
  C80      1.0000 0.92130  0.79810  0.24030  Biso   1.000  C
  H70      1.0000 0.83861  0.79371  0.26011  Biso   1.000  H
  H71      1.0000 0.91617  0.85690  0.93077  Biso   1.000  H
  C81      1.0000 0.96751  0.83619  0.04306  Biso   1.000  C
  C82      1.0000 0.96753  0.83623  0.04306  Biso   1.000  C
  C83      1.0000 0.96747  0.83619  0.04306  Biso   1.000  C
  H72      1.0000 0.85719  0.63479  0.70310  Biso   1.000  H
  H73      1.0000 0.78548  0.59250  0.67711  Biso   1.000  H
  H74      1.0000 0.95700  0.77209  0.38739  Biso   1.000  H
  H75      1.0000 0.36519  0.22238  0.70310  Biso   1.000  H
  H76      1.0000 0.36521  0.22243  0.70310  Biso   1.000  H
  H77      1.0000 0.40747  0.19298  0.67711  Biso   1.000  H
  H78      1.0000 0.22790  0.18489  0.38739  Biso   1.000  H
  C84      1.0000 0.19570  0.06689  0.20478  Biso   1.000  C
  C85      1.0000 0.17339  0.98679  0.05197  Biso   1.000  C
  C86      1.0000 0.96930  0.81419  0.15708  Biso   1.000  C
  C87      1.0000 0.01559  0.85269  0.95176  Biso   1.000  C
  H79      1.0000 0.20629  0.04490  0.26011  Biso   1.000  H
  N13      1.0000 0.16250  0.96850  0.94322  Biso   1.000  N
  H80      1.0000 0.18100  0.96361  0.11002  Biso   1.000  H
  H81      1.0000 0.00318  0.80990  0.17952  Biso   1.000  H
  N14      1.0000 0.06111  0.84506  0.96602  Biso   1.000  N
  H82      1.0000 0.01242  0.87011  0.87762  Biso   1.000  H
  H83      1.0000 0.01238  0.87011  0.87762  Biso   1.000  H
  C88      1.0000 0.16736  0.91478  0.91233  Biso   1.000  C
  C89      1.0000 0.16738  0.91482  0.91233  Biso   1.000  C
  C90      1.0000 0.10498  0.86366  0.86681  Biso   1.000  C
  H84      1.0000 0.17970  0.90042  0.98601  Biso   1.000  H
  C91      1.0000 0.21600  0.93311  0.81403  Biso   1.000  C
  H85      1.0000 0.09091  0.87971  0.79840  Biso   1.000  H
  C92      1.0000 0.10998  0.80921  0.82193  Biso   1.000  C
  H86      1.0000 0.20561  0.95081  0.74398  Biso   1.000  H
  H87      1.0000 0.25611  0.96470  0.84619  Biso   1.000  H
  C93      1.0000 0.22020  0.87793  0.77224  Biso   1.000  C
  H88      1.0000 0.11981  0.79069  0.89143  Biso   1.000  H
  C94      1.0000 0.15909  0.82768  0.72481  Biso   1.000  C
  H89      1.0000 0.07012  0.77803  0.78832  Biso   1.000  H
  C95      1.0000 0.15911  0.82773  0.72481  Biso   1.000  C
  H90      1.0000 0.11977  0.79069  0.89143  Biso   1.000  H
  H91      1.0000 0.25131  0.89041  0.70728  Biso   1.000  H
  H92      1.0000 0.23331  0.86193  0.84110  Biso   1.000  H
  H93      1.0000 0.14741  0.84240  0.65177  Biso   1.000  H
  H94      1.0000 0.16248  0.79170  0.70119  Biso   1.000  H
  H95      1.0000 0.16252  0.79170  0.70119  Biso   1.000  H
  C96      1.0000 0.75888  0.21859  0.24275  Biso   1.000  C
  N15      1.0000 0.74542  0.20085  0.13582  Biso   1.000  N
  C97      1.0000 0.78929  0.28360  0.27755  Biso   1.000  C
  H96      1.0000 0.74908  0.18878  0.30472  Biso   1.000  H
  C98      1.0000 0.71431  0.13460  0.11138  Biso   1.000  C
  C99      1.0000 0.79628  0.32831  0.19397  Biso   1.000  C
  C100     1.0000 0.81378  0.30129  0.39339  Biso   1.000  C
  C101     1.0000 0.65141  0.11412  0.05969  Biso   1.000  C
  H97      1.0000 0.71019  0.11211  0.18888  Biso   1.000  H
  C102     1.0000 0.75240  0.12129  0.01981  Biso   1.000  C
  C103     1.0000 0.82830  0.38949  0.22468  Biso   1.000  C
  H98      1.0000 0.77902  0.31652  0.11520  Biso   1.000  H
  C104     1.0000 0.84560  0.36288  0.42637  Biso   1.000  C
  H99      1.0000 0.80879  0.27112  0.45089  Biso   1.000  H
  N16      1.0000 0.61530  0.12321  0.15281  Biso   1.000  N
  C105     1.0000 0.61971  0.04659  0.02262  Biso   1.000  C
  H100     1.0000 0.65539  0.13949  0.98692  Biso   1.000  H
  H101     1.0000 0.79258  0.13291  0.05624  Biso   1.000  H
  H102     1.0000 0.75958  0.14649  0.94622  Biso   1.000  H
  C106     1.0000 0.72048  0.05468  0.98437  Biso   1.000  C
  C107     1.0000 0.83932  0.43672  0.13246  Biso   1.000  C
  C108     1.0000 0.85108  0.40599  0.34096  Biso   1.000  C
  C109     1.0000 0.87459  0.38428  0.54447  Biso   1.000  C
  C110     1.0000 0.59742  0.16071  0.13246  Biso   1.000  C
  H103     1.0000 0.61229  0.02099  0.09576  Biso   1.000  H
  C111     1.0000 0.65798  0.03429  0.93250  Biso   1.000  C
  H104     1.0000 0.57951  0.03470  0.98565  Biso   1.000  H
  H105     1.0000 0.71649  0.02958  0.05660  Biso   1.000  H
  H106     1.0000 0.74551  0.04819  0.92332  Biso   1.000  H
  N17      1.0000 0.87678  0.49208  0.15281  Biso   1.000  N
  H107     1.0000 0.81779  0.42501  0.05751  Biso   1.000  H
  H108     1.0000 0.87122  0.44801  0.36331  Biso   1.000  H
  N18      1.0000 0.87964  0.35067  0.62360  Biso   1.000  N
  H109     1.0000 0.89081  0.42629  0.56346  Biso   1.000  H
  C112     1.0000 0.56119  0.17172  0.22468  Biso   1.000  C
  H110     1.0000 0.60721  0.18219  0.05751  Biso   1.000  H
  H111     1.0000 0.63730  0.98999  0.91378  Biso   1.000  H
  H112     1.0000 0.66201  0.05651  0.85591  Biso   1.000  H
  C113     1.0000 0.88589  0.53730  0.05969  Biso   1.000  C
  C114     1.0000 0.91460  0.38021  0.73344  Biso   1.000  C
  C115     1.0000 0.53200  0.20368  0.19397  Biso   1.000  C
  C116     1.0000 0.55490  0.14891  0.34096  Biso   1.000  C
  C117     1.0000 0.86539  0.57968  0.11138  Biso   1.000  C
  C118     1.0000 0.95340  0.57310  0.02262  Biso   1.000  C
  H113     1.0000 0.86050  0.51590  0.98692  Biso   1.000  H
  C119     1.0000 0.87603  0.34788  0.84510  Biso   1.000  C
  C120     1.0000 0.97440  0.37888  0.72999  Biso   1.000  C
  H114     1.0000 0.92439  0.42378  0.73426  Biso   1.000  H
  C121     1.0000 0.49428  0.21068  0.27755  Biso   1.000  C
  H115     1.0000 0.53749  0.22101  0.11520  Biso   1.000  H
  C122     1.0000 0.51729  0.15440  0.42637  Biso   1.000  C
  H116     1.0000 0.57679  0.12879  0.36331  Biso   1.000  H
  N19      1.0000 0.79911  0.54452  0.13582  Biso   1.000  N
  H117     1.0000 0.88790  0.59811  0.18888  Biso   1.000  H
  C123     1.0000 0.87871  0.63112  0.01981  Biso   1.000  C
  H118     1.0000 0.97901  0.59129  0.09576  Biso   1.000  H
  C124     1.0000 0.96572  0.62371  0.93250  Biso   1.000  C
  H119     1.0000 0.96530  0.54480  0.98565  Biso   1.000  H
  N20      1.0000 0.82547  0.36087  0.85100  Biso   1.000  N
  H120     1.0000 0.85911  0.30280  0.83719  Biso   1.000  H
  C125     1.0000 0.91397  0.37079  0.96148  Biso   1.000  C
  H121     1.0000 0.96508  0.33641  0.71518  Biso   1.000  H
  H122     1.0000 0.99959  0.40439  0.66158  Biso   1.000  H
  C126     1.0000 0.01029  0.40188  0.84682  Biso   1.000  C
  C127     1.0000 0.45971  0.24108  0.24275  Biso   1.000  C
  C128     1.0000 0.48751  0.18622  0.39339  Biso   1.000  C
  C129     1.0000 0.50969  0.12541  0.54447  Biso   1.000  C
  C130     1.0000 0.78140  0.54032  0.24275  Biso   1.000  C
  H123     1.0000 0.86710  0.65969  0.05624  Biso   1.000  H
  H124     1.0000 0.85351  0.61310  0.94622  Biso   1.000  H
  C131     1.0000 0.94530  0.66577  0.98437  Biso   1.000  C
  H125     1.0000 0.94352  0.60551  0.85591  Biso   1.000  H
  H126     1.0000 0.00998  0.64730  0.91378  Biso   1.000  H
  C132     1.0000 0.77149  0.31698  0.84692  Biso   1.000  C
  H127     1.0000 0.92588  0.41408  0.97529  Biso   1.000  H
  C133     1.0000 0.97138  0.36539  0.95376  Biso   1.000  C
  H128     1.0000 0.88889  0.34660  0.03153  Biso   1.000  H
  H129     1.0000 0.02328  0.44559  0.85800  Biso   1.000  H
  H130     1.0000 0.04727  0.39799  0.84237  Biso   1.000  H
  N21      1.0000 0.45544  0.25457  0.13582  Biso   1.000  N
  H131     1.0000 0.43972  0.25091  0.30472  Biso   1.000  H
  H132     1.0000 0.46229  0.19120  0.45089  Biso   1.000  H
  N22      1.0000 0.47100  0.12033  0.62360  Biso   1.000  N
  H133     1.0000 0.53550  0.10918  0.56346  Biso   1.000  H
  C134     1.0000 0.71639  0.50571  0.27755  Biso   1.000  C
  H134     1.0000 0.81119  0.56030  0.30472  Biso   1.000  H
  H135     1.0000 0.97039  0.68690  0.05660  Biso   1.000  H
  H136     1.0000 0.95178  0.69727  0.92332  Biso   1.000  H
  C135     1.0000 0.71791  0.32566  0.85037  Biso   1.000  C
  H137     1.0000 0.76501  0.27670  0.84128  Biso   1.000  H
  H138     1.0000 0.95970  0.32191  0.94422  Biso   1.000  H
  H139     1.0000 0.99511  0.38071  0.02980  Biso   1.000  H
  C136     1.0000 0.42029  0.28570  0.11138  Biso   1.000  C
  C137     1.0000 0.46561  0.08540  0.73344  Biso   1.000  C
  C138     1.0000 0.67167  0.46799  0.19397  Biso   1.000  C
  C139     1.0000 0.69867  0.51247  0.39339  Biso   1.000  C
  C140     1.0000 0.65911  0.27482  0.84991  Biso   1.000  C
  C141     1.0000 0.72516  0.38428  0.84991  Biso   1.000  C
  C142     1.0000 0.36890  0.24762  0.01981  Biso   1.000  C
  C143     1.0000 0.46271  0.34861  0.05969  Biso   1.000  C
  H140     1.0000 0.40192  0.28982  0.18888  Biso   1.000  H
  C144     1.0000 0.47186  0.12395  0.84510  Biso   1.000  C
  C145     1.0000 0.40451  0.02560  0.72999  Biso   1.000  C
  H141     1.0000 0.49940  0.07562  0.73426  Biso   1.000  H
  C146     1.0000 0.61052  0.43882  0.22468  Biso   1.000  C
  H142     1.0000 0.68350  0.46250  0.11520  Biso   1.000  H
  C147     1.0000 0.63710  0.48271  0.42637  Biso   1.000  C
  H143     1.0000 0.72890  0.53771  0.45089  Biso   1.000  H
  C148     1.0000 0.60775  0.28209  0.85037  Biso   1.000  C
  H144     1.0000 0.65388  0.23491  0.84928  Biso   1.000  H
  C149     1.0000 0.67436  0.39228  0.85037  Biso   1.000  C
  H145     1.0000 0.76508  0.41898  0.84928  Biso   1.000  H
  H146     1.0000 0.34031  0.20739  0.05624  Biso   1.000  H
  H147     1.0000 0.38691  0.24039  0.94622  Biso   1.000  H
  C150     1.0000 0.33419  0.27949  0.98437  Biso   1.000  C
  N23      1.0000 0.50793  0.38473  0.15281  Biso   1.000  N
  C151     1.0000 0.42688  0.38030  0.02262  Biso   1.000  C
  H148     1.0000 0.48410  0.34459  0.98692  Biso   1.000  H
  N24      1.0000 0.53539  0.17451  0.85100  Biso   1.000  N
  H149     1.0000 0.44371  0.14091  0.83719  Biso   1.000  H
  C152     1.0000 0.45680  0.08600  0.96148  Biso   1.000  C
  H150     1.0000 0.37130  0.03488  0.71518  Biso   1.000  H
  H151     1.0000 0.40478  0.00041  0.66158  Biso   1.000  H
  C153     1.0000 0.39159  0.98971  0.84682  Biso   1.000  C
  C154     1.0000 0.56332  0.40261  0.13246  Biso   1.000  C
  C155     1.0000 0.59398  0.44508  0.34096  Biso   1.000  C
  C156     1.0000 0.61572  0.49030  0.54447  Biso   1.000  C
  C157     1.0000 0.54552  0.22851  0.84692  Biso   1.000  C
  C158     1.0000 0.61572  0.34089  0.84991  Biso   1.000  C
  C159     1.0000 0.68298  0.45450  0.84692  Biso   1.000  C
  H152     1.0000 0.31312  0.28351  0.05660  Biso   1.000  H
  H153     1.0000 0.30268  0.25448  0.92332  Biso   1.000  H
  C160     1.0000 0.37629  0.34198  0.93250  Biso   1.000  C
  H154     1.0000 0.40869  0.38770  0.09576  Biso   1.000  H
  H155     1.0000 0.45517  0.42049  0.98565  Biso   1.000  H
  H156     1.0000 0.48820  0.07411  0.97529  Biso   1.000  H
  C161     1.0000 0.39402  0.02862  0.95376  Biso   1.000  C
  H157     1.0000 0.45771  0.11110  0.03153  Biso   1.000  H
  H158     1.0000 0.42230  0.97668  0.85800  Biso   1.000  H
  H159     1.0000 0.35071  0.95268  0.84237  Biso   1.000  H
  H160     1.0000 0.57499  0.39278  0.05751  Biso   1.000  H
  H161     1.0000 0.55199  0.42318  0.36331  Biso   1.000  H
  N25      1.0000 0.64931  0.52898  0.62360  Biso   1.000  N
  H162     1.0000 0.57372  0.46451  0.56346  Biso   1.000  H
  H163     1.0000 0.51170  0.23500  0.84128  Biso   1.000  H
  H164     1.0000 0.58099  0.34610  0.84928  Biso   1.000  H
  N26      1.0000 0.63910  0.46461  0.85100  Biso   1.000  N
  H165     1.0000 0.72328  0.48829  0.84128  Biso   1.000  H
  H166     1.0000 0.35271  0.36270  0.91378  Biso   1.000  H
  H167     1.0000 0.39449  0.33801  0.85591  Biso   1.000  H
  H168     1.0000 0.36220  0.04028  0.94422  Biso   1.000  H
  H169     1.0000 0.38560  0.00489  0.02980  Biso   1.000  H
  C162     1.0000 0.61978  0.53437  0.73344  Biso   1.000  C
  C163     1.0000 0.65208  0.52811  0.84510  Biso   1.000  C
  C164     1.0000 0.62108  0.59550  0.72999  Biso   1.000  C
  H170     1.0000 0.57620  0.50059  0.73426  Biso   1.000  H
  H171     1.0000 0.69717  0.55627  0.83719  Biso   1.000  H
  C165     1.0000 0.62918  0.54320  0.96148  Biso   1.000  C
  C166     1.0000 0.59811  0.60839  0.84682  Biso   1.000  C
  H172     1.0000 0.66361  0.62869  0.71518  Biso   1.000  H
  H173     1.0000 0.59558  0.59518  0.66158  Biso   1.000  H
  H174     1.0000 0.58587  0.51179  0.97529  Biso   1.000  H
  C167     1.0000 0.63461  0.60602  0.95376  Biso   1.000  C
  H175     1.0000 0.65339  0.54228  0.03153  Biso   1.000  H
  H176     1.0000 0.55442  0.57772  0.85800  Biso   1.000  H
  H177     1.0000 0.60202  0.64931  0.84237  Biso   1.000  H
  H178     1.0000 0.67810  0.63779  0.94422  Biso   1.000  H
  H179     1.0000 0.61928  0.61438  0.02980  Biso   1.000  H
  C168     1.0000 0.43062  0.42300  0.47415  Biso   1.000  C
  C169     1.0000 0.36372  0.39310  0.43445  Biso   1.000  C
  C170     1.0000 0.45449  0.48920  0.51213  Biso   1.000  C
  H180     1.0000 0.43420  0.39991  0.54320  Biso   1.000  H
  H181     1.0000 0.45557  0.42167  0.40629  Biso   1.000  H
  H182     1.0000 0.34792  0.34930  0.41683  Biso   1.000  H
  H183     1.0000 0.36067  0.41299  0.35923  Biso   1.000  H
  C171     1.0000 0.32451  0.39941  0.53520  Biso   1.000  C
  C172     1.0000 0.41588  0.49409  0.61097  Biso   1.000  C
  H184     1.0000 0.49708  0.50699  0.54129  Biso   1.000  H
  H185     1.0000 0.45469  0.51311  0.44072  Biso   1.000  H
  H186     1.0000 0.28190  0.38190  0.50641  Biso   1.000  H
  H187     1.0000 0.32429  0.37609  0.60780  Biso   1.000  H
  C173     1.0000 0.34951  0.46589  0.56973  Biso   1.000  C
  N27      1.0000 0.43881  0.55952  0.64023  Biso   1.000  N
  H188     1.0000 0.41789  0.47238  0.68529  Biso   1.000  H
  N28      1.0000 0.31319  0.46927  0.66966  Biso   1.000  N
  H189     1.0000 0.34708  0.48897  0.49805  Biso   1.000  H
  C174     1.0000 0.44639  0.57420  0.75098  Biso   1.000  C
  C175     1.0000 0.28601  0.49940  0.65177  Biso   1.000  C
  C176     1.0000 0.46816  0.63761  0.79095  Biso   1.000  C
  H190     1.0000 0.43790  0.54361  0.81030  Biso   1.000  H
  H191     1.0000 0.29140  0.51929  0.57591  Biso   1.000  H
  C177     1.0000 0.24658  0.50488  0.74362  Biso   1.000  C
  C178     1.0000 0.48837  0.65507  0.90751  Biso   1.000  C
  C179     1.0000 0.47117  0.68118  0.70809  Biso   1.000  C
  C180     1.0000 0.21002  0.52884  0.70809  Biso   1.000  C
  C181     1.0000 0.24301  0.48458  0.86209  Biso   1.000  C
  C182     1.0000 0.51371  0.71620  0.94667  Biso   1.000  C
  H192     1.0000 0.48529  0.62508  0.96366  Biso   1.000  H
  H193     1.0000 0.45680  0.66929  0.62733  Biso   1.000  H
  C183     1.0000 0.49510  0.74171  0.74362  Biso   1.000  C
  C184     1.0000 0.16944  0.53186  0.79095  Biso   1.000  C
  H194     1.0000 0.21248  0.54320  0.62733  Biso   1.000  H
  C185     1.0000 0.20247  0.48628  0.94667  Biso   1.000  C
  H195     1.0000 0.26888  0.46918  0.88662  Biso   1.000  H
  C186     1.0000 0.51541  0.75840  0.86209  Biso   1.000  C
  C187     1.0000 0.54110  0.73568  0.06450  Biso   1.000  C
  C188     1.0000 0.50061  0.78661  0.65177  Biso   1.000  C
  C189     1.0000 0.16671  0.51161  0.90751  Biso   1.000  C
  C190     1.0000 0.12779  0.55358  0.75098  Biso   1.000  C
  C191     1.0000 0.19460  0.45889  0.06450  Biso   1.000  C
  H196     1.0000 0.53078  0.79969  0.88662  Biso   1.000  H
  N29      1.0000 0.54890  0.70020  0.13600  Biso   1.000  N
  H197     1.0000 0.55400  0.77628  0.09022  Biso   1.000  H
  N30      1.0000 0.53071  0.84390  0.66966  Biso   1.000  N
  H198     1.0000 0.48067  0.77207  0.57591  Biso   1.000  H
  H199     1.0000 0.13980  0.51471  0.96366  Biso   1.000  H
  N31      1.0000 0.12070  0.56117  0.64023  Biso   1.000  N
  H200     1.0000 0.10568  0.56208  0.81030  Biso   1.000  H
  N32      1.0000 0.15130  0.45107  0.13600  Biso   1.000  N
  H201     1.0000 0.22229  0.44600  0.09022  Biso   1.000  H
  C192     1.0000 0.58369  0.72599  0.24784  Biso   1.000  C
  C193     1.0000 0.53409  0.88358  0.56973  Biso   1.000  C
  C194     1.0000 0.07821  0.58412  0.61097  Biso   1.000  C
  C195     1.0000 0.14229  0.41628  0.24784  Biso   1.000  C
  C196     1.0000 0.54558  0.68818  0.35695  Biso   1.000  C
  C197     1.0000 0.64299  0.72429  0.23939  Biso   1.000  C
  H202     1.0000 0.59319  0.76928  0.25711  Biso   1.000  H
  C198     1.0000 0.50592  0.92180  0.61097  Biso   1.000  C
  C199     1.0000 0.60061  0.92510  0.53520  Biso   1.000  C
  H203     1.0000 0.51102  0.85812  0.49805  Biso   1.000  H
  H204     1.0000 0.05451  0.58211  0.68529  Biso   1.000  H
  C200     1.0000 0.03470  0.54548  0.51213  Biso   1.000  C
  C201     1.0000 0.11639  0.65050  0.56973  Biso   1.000  C
  C202     1.0000 0.14259  0.45441  0.35695  Biso   1.000  C
  C203     1.0000 0.08129  0.35698  0.23939  Biso   1.000  C
  H205     1.0000 0.17613  0.40682  0.25711  Biso   1.000  H
  N33      1.0000 0.49347  0.69901  0.36886  Biso   1.000  N
  H206     1.0000 0.53000  0.64378  0.34115  Biso   1.000  H
  C204     1.0000 0.58260  0.70701  0.47306  Biso   1.000  C
  C205     1.0000 0.68009  0.74528  0.35450  Biso   1.000  C
  H207     1.0000 0.63341  0.68200  0.22095  Biso   1.000  H
  H208     1.0000 0.66781  0.75081  0.17144  Biso   1.000  H
  N34      1.0000 0.44047  0.87928  0.64023  Biso   1.000  N
  H209     1.0000 0.52758  0.94549  0.68529  Biso   1.000  H
  C206     1.0000 0.51079  0.96528  0.51213  Biso   1.000  C
  C207     1.0000 0.60689  0.97059  0.43445  Biso   1.000  C
  H210     1.0000 0.61808  0.90000  0.50641  Biso   1.000  H
  H211     1.0000 0.62388  0.94818  0.60780  Biso   1.000  H
  H212     1.0000 0.00989  0.50292  0.54129  Biso   1.000  H
  H213     1.0000 0.05840  0.54530  0.44072  Biso   1.000  H
  C208     1.0000 0.99241  0.56940  0.47415  Biso   1.000  C
  N35      1.0000 0.15608  0.68680  0.66966  Biso   1.000  N
  C209     1.0000 0.07493  0.67551  0.53520  Biso   1.000  C
  H214     1.0000 0.14189  0.65288  0.49805  Biso   1.000  H
  N36      1.0000 0.20551  0.50653  0.36886  Biso   1.000  N
  H215     1.0000 0.11380  0.47000  0.34115  Biso   1.000  H
  C210     1.0000 0.12439  0.41738  0.47306  Biso   1.000  C
  C211     1.0000 0.06520  0.31990  0.35450  Biso   1.000  C
  H216     1.0000 0.04859  0.36658  0.22095  Biso   1.000  H
  H217     1.0000 0.08299  0.33220  0.17144  Biso   1.000  H
  C212     1.0000 0.43961  0.65361  0.36004  Biso   1.000  C
  H218     1.0000 0.55801  0.67921  0.53957  Biso   1.000  H
  H219     1.0000 0.59261  0.74889  0.49523  Biso   1.000  H
  C213     1.0000 0.64221  0.70500  0.45898  Biso   1.000  C
  H220     1.0000 0.69230  0.78839  0.37122  Biso   1.000  H
  H221     1.0000 0.71778  0.74258  0.34514  Biso   1.000  H
  C214     1.0000 0.42580  0.87220  0.75098  Biso   1.000  C
  H222     1.0000 0.49300  0.99011  0.54129  Biso   1.000  H
  H223     1.0000 0.48692  0.94160  0.44072  Biso   1.000  H
  C215     1.0000 0.57700  0.00757  0.47415  Biso   1.000  C
  H224     1.0000 0.65072  0.99861  0.41683  Biso   1.000  H
  H225     1.0000 0.58700  0.94768  0.35923  Biso   1.000  H
  C216     1.0000 0.02938  0.63628  0.43445  Biso   1.000  C
  H226     1.0000 0.96570  0.56578  0.54320  Biso   1.000  H
  H227     1.0000 0.96609  0.54439  0.40629  Biso   1.000  H
  C217     1.0000 0.21339  0.71401  0.65177  Biso   1.000  C
  H228     1.0000 0.09997  0.71808  0.50641  Biso   1.000  H
  H229     1.0000 0.05182  0.67569  0.60780  Biso   1.000  H
  C218     1.0000 0.21399  0.56039  0.36004  Biso   1.000  C
  H230     1.0000 0.12117  0.44197  0.53957  Biso   1.000  H
  H231     1.0000 0.15631  0.40741  0.49523  Biso   1.000  H
  C219     1.0000 0.06281  0.35780  0.45898  Biso   1.000  C
  H232     1.0000 0.09608  0.30769  0.37122  Biso   1.000  H
  H233     1.0000 0.02480  0.28218  0.34514  Biso   1.000  H
  C220     1.0000 0.38558  0.66070  0.36295  Biso   1.000  C
  H234     1.0000 0.43419  0.61379  0.35141  Biso   1.000  H
  H235     1.0000 0.66609  0.71917  0.53520  Biso   1.000  H
  H236     1.0000 0.63231  0.66239  0.44408  Biso   1.000  H
  C221     1.0000 0.36241  0.83055  0.79095  Biso   1.000  C
  H237     1.0000 0.45641  0.89428  0.81030  Biso   1.000  H
  H238     1.0000 0.60009  0.03427  0.54320  Biso   1.000  H
  H239     1.0000 0.57829  0.03391  0.40629  Biso   1.000  H
  H240     1.0000 0.00142  0.65210  0.41683  Biso   1.000  H
  H241     1.0000 0.05231  0.63930  0.35923  Biso   1.000  H
  C222     1.0000 0.25830  0.75337  0.74362  Biso   1.000  C
  H242     1.0000 0.22792  0.70861  0.57591  Biso   1.000  H
  C223     1.0000 0.27512  0.61438  0.36295  Biso   1.000  C
  H243     1.0000 0.17959  0.56578  0.35141  Biso   1.000  H
  H244     1.0000 0.05311  0.33389  0.53520  Biso   1.000  H
  H245     1.0000 0.03009  0.36768  0.44408  Biso   1.000  H
  C224     1.0000 0.32802  0.60931  0.36313  Biso   1.000  C
  C225     1.0000 0.39072  0.71872  0.36313  Biso   1.000  C
  C226     1.0000 0.31879  0.78995  0.70809  Biso   1.000  C
  C227     1.0000 0.34490  0.83329  0.90751  Biso   1.000  C
  C228     1.0000 0.24157  0.75698  0.86209  Biso   1.000  C
  C229     1.0000 0.28132  0.67199  0.36313  Biso   1.000  C
  H246     1.0000 0.32419  0.56990  0.36350  Biso   1.000  H
  C230     1.0000 0.33928  0.72489  0.36295  Biso   1.000  C
  H247     1.0000 0.43008  0.75429  0.36350  Biso   1.000  H
  H248     1.0000 0.33070  0.78748  0.62733  Biso   1.000  H
  C231     1.0000 0.28380  0.79749  0.94667  Biso   1.000  C
  H249     1.0000 0.37489  0.86017  0.96366  Biso   1.000  H
  H250     1.0000 0.20029  0.73111  0.88662  Biso   1.000  H
  H251     1.0000 0.24568  0.67579  0.36350  Biso   1.000  H
  C232     1.0000 0.34641  0.78602  0.36004  Biso   1.000  C
  C233     1.0000 0.26432  0.80540  0.06450  Biso   1.000  C
  N37      1.0000 0.30098  0.79447  0.36886  Biso   1.000  N
  H252     1.0000 0.38620  0.82040  0.35141  Biso   1.000  H
  N38      1.0000 0.29978  0.84870  0.13600  Biso   1.000  N
  H253     1.0000 0.22370  0.77769  0.09022  Biso   1.000  H
  C234     1.0000 0.31181  0.85738  0.35695  Biso   1.000  C
  C235     1.0000 0.27400  0.85770  0.24784  Biso   1.000  C
  H254     1.0000 0.35618  0.88619  0.34115  Biso   1.000  H
  C236     1.0000 0.29299  0.87558  0.47306  Biso   1.000  C
  C237     1.0000 0.27571  0.91869  0.23939  Biso   1.000  C
  H255     1.0000 0.23067  0.82387  0.25711  Biso   1.000  H
  H256     1.0000 0.32080  0.87878  0.53957  Biso   1.000  H
  H257     1.0000 0.25113  0.84371  0.49523  Biso   1.000  H
  C238     1.0000 0.29502  0.93721  0.45898  Biso   1.000  C
  C239     1.0000 0.25469  0.93479  0.35450  Biso   1.000  C
  H258     1.0000 0.31799  0.95138  0.22095  Biso   1.000  H
  H259     1.0000 0.24920  0.91700  0.17144  Biso   1.000  H
  H260     1.0000 0.28078  0.94690  0.53520  Biso   1.000  H
  H261     1.0000 0.33762  0.96990  0.44408  Biso   1.000  H
  H262     1.0000 0.21160  0.90388  0.37122  Biso   1.000  H
  H263     1.0000 0.25740  0.97520  0.34514  Biso   1.000  H
  Ne1      1.0000 0.66666  0.33333  0.43862  Biso   1.000  Ne
  He1      1.0000 0.67219  0.24623  0.54138  Biso   1.000  He
  He2      1.0000 0.74798  0.41969  0.53718  Biso   1.000  He
  He3      1.0000 0.54362  0.32539  0.56175  Biso   1.000  He
  He4      1.0000 0.66665  0.33333  0.18484  Biso   1.000  He
  Ar1      1.0000 0.66667  0.33334  0.43862  Biso   1.000  Ar
  Ne2      1.0000 0.33333  0.66666  0.94935  Biso   1.000  Ne
  He5      1.0000 0.35857  0.55732  0.08626  Biso   1.000  He
  He6      1.0000 0.41044  0.76079  0.06036  Biso   1.000  He
  He7      1.0000 0.24394  0.65060  0.05735  Biso   1.000  He
  He8      1.0000 0.33335  0.66666  0.69757  Biso   1.000  He
  Ar2      1.0000 0.33333  0.66664  0.94935  Biso   1.000  Ar
  Ne3      1.0000 0.99428  0.00140  0.25361  Biso   1.000  Ne
  He9      1.0000 0.05711  0.12112  0.34908  Biso   1.000  He
  He10     1.0000 0.88338  0.93850  0.34601  Biso   1.000  He
  He11     1.0000 0.06204  0.94445  0.34665  Biso   1.000  He
  He12     1.0000 0.00001  1.00000  0.99466  Biso   1.000  He
  Ar3      1.0000 0.00001  0.00001  0.27118  Biso   1.000  Ar
