data_image0
_cell_length_a       16.749
_cell_length_b       19.254
_cell_length_c       25.342
_cell_angle_alpha    90
_cell_angle_beta     90
_cell_angle_gamma    90

_symmetry_space_group_name_H-M    "P 1"
_symmetry_int_tables_number       1

loop_
  _symmetry_equiv_pos_as_xyz
  'x, y, z'

loop_
  _atom_site_label
  _atom_site_occupancy
  _atom_site_fract_x
  _atom_site_fract_y
  _atom_site_fract_z
  _atom_site_thermal_displace_type
  _atom_site_B_iso_or_equiv
  _atom_site_type_symbol
  C1       1.0000 0.53012  0.51901  0.45908  Biso   1.000  C
  C2       1.0000 0.45101  0.51241  0.44365  Biso   1.000  C
  C3       1.0000 0.55030  0.56181  0.50146  Biso   1.000  C
  C4       1.0000 0.59198  0.48120  0.42877  Biso   1.000  C
  C5       1.0000 0.39107  0.54991  0.47017  Biso   1.000  C
  H1       1.0000 0.43722  0.48260  0.41520  Biso   1.000  H
  C6       1.0000 0.49137  0.59837  0.52810  Biso   1.000  C
  H2       1.0000 0.60451  0.56591  0.51211  Biso   1.000  H
  N1       1.0000 0.66619  0.49148  0.43611  Biso   1.000  N
  H3       1.0000 0.57568  0.44827  0.40301  Biso   1.000  H
  C7       1.0000 0.30670  0.54731  0.45324  Biso   1.000  C
  C8       1.0000 0.41107  0.59141  0.51215  Biso   1.000  C
  C9       1.0000 0.51352  0.64688  0.57075  Biso   1.000  C
  C10      1.0000 0.72106  0.45393  0.40241  Biso   1.000  C
  N2       1.0000 0.27978  0.50769  0.41753  Biso   1.000  N
  H4       1.0000 0.26999  0.57759  0.47029  Biso   1.000  H
  H5       1.0000 0.37041  0.61577  0.53070  Biso   1.000  H
  N3       1.0000 0.46254  0.68453  0.59474  Biso   1.000  N
  H6       1.0000 0.56797  0.65020  0.58070  Biso   1.000  H
  C11      1.0000 0.78238  0.50239  0.37732  Biso   1.000  C
  C12      1.0000 0.77431  0.40402  0.43308  Biso   1.000  C
  H7       1.0000 0.69097  0.42827  0.37440  Biso   1.000  H
  C13      1.0000 0.19368  0.51091  0.40691  Biso   1.000  C
  C14      1.0000 0.49107  0.73258  0.63413  Biso   1.000  C
  N4       1.0000 0.74894  0.54467  0.33490  Biso   1.000  N
  H8       1.0000 0.80500  0.53360  0.40510  Biso   1.000  H
  C15      1.0000 0.84727  0.45289  0.35822  Biso   1.000  C
  C16      1.0000 0.84799  0.39311  0.39859  Biso   1.000  C
  H9       1.0000 0.74649  0.35941  0.43931  Biso   1.000  H
  H10      1.0000 0.78948  0.42417  0.46760  Biso   1.000  H
  C17      1.0000 0.17500  0.51070  0.34788  Biso   1.000  C
  C18      1.0000 0.15070  0.44650  0.42735  Biso   1.000  C
  H11      1.0000 0.17052  0.55339  0.42361  Biso   1.000  H
  H12      1.0000 0.55042  0.73709  0.63128  Biso   1.000  H
  C19      1.0000 0.46851  0.71180  0.69071  Biso   1.000  C
  C20      1.0000 0.45268  0.80378  0.62931  Biso   1.000  C
  C21      1.0000 0.75473  0.60990  0.33928  Biso   1.000  C
  H13      1.0000 0.89981  0.47658  0.35731  Biso   1.000  H
  H14      1.0000 0.83492  0.43539  0.32239  Biso   1.000  H
  H15      1.0000 0.84530  0.34762  0.38040  Biso   1.000  H
  H16      1.0000 0.89719  0.39462  0.42021  Biso   1.000  H
  N5       1.0000 0.17971  0.57988  0.32653  Biso   1.000  N
  H17      1.0000 0.21333  0.47959  0.32902  Biso   1.000  H
  C22      1.0000 0.08962  0.48042  0.34413  Biso   1.000  C
  C23      1.0000 0.07039  0.44921  0.39792  Biso   1.000  C
  H18      1.0000 0.14281  0.44879  0.46599  Biso   1.000  H
  H19      1.0000 0.18061  0.40371  0.41859  Biso   1.000  H
  H20      1.0000 0.41441  0.69108  0.69162  Biso   1.000  H
  H21      1.0000 0.50708  0.67768  0.70500  Biso   1.000  H
  C24      1.0000 0.47077  0.77911  0.72252  Biso   1.000  C
  N6       1.0000 0.48188  0.84294  0.58397  Biso   1.000  N
  C25      1.0000 0.47400  0.83822  0.68187  Biso   1.000  C
  H22      1.0000 0.39352  0.79848  0.62671  Biso   1.000  H
  C26      1.0000 0.72536  0.66012  0.29986  Biso   1.000  C
  H23      1.0000 0.77981  0.62782  0.37010  Biso   1.000  H
  C27      1.0000 0.22437  0.59053  0.28727  Biso   1.000  C
  H24      1.0000 0.05093  0.51750  0.33529  Biso   1.000  H
  H25      1.0000 0.08711  0.44427  0.31639  Biso   1.000  H
  H26      1.0000 0.04770  0.40199  0.39401  Biso   1.000  H
  H27      1.0000 0.03170  0.47860  0.41721  Biso   1.000  H
  H28      1.0000 0.51848  0.78020  0.74560  Biso   1.000  H
  H29      1.0000 0.42247  0.78332  0.74489  Biso   1.000  H
  C28      1.0000 0.43131  0.86600  0.55106  Biso   1.000  C
  H30      1.0000 0.43501  0.87509  0.69079  Biso   1.000  H
  H31      1.0000 0.52809  0.85889  0.68041  Biso   1.000  H
  C29      1.0000 0.67712  0.63966  0.25728  Biso   1.000  C
  C30      1.0000 0.74369  0.73045  0.30522  Biso   1.000  C
  C31      1.0000 0.23488  0.66023  0.26407  Biso   1.000  C
  H32      1.0000 0.25219  0.55240  0.27212  Biso   1.000  H
  C32      1.0000 0.45418  0.90231  0.50245  Biso   1.000  C
  H33      1.0000 0.37620  0.85951  0.55820  Biso   1.000  H
  C33      1.0000 0.64828  0.68812  0.22161  Biso   1.000  C
  H34      1.0000 0.66410  0.59198  0.25290  Biso   1.000  H
  C34      1.0000 0.71479  0.77927  0.26959  Biso   1.000  C
  H35      1.0000 0.77640  0.74530  0.33371  Biso   1.000  H
  C35      1.0000 0.28252  0.66812  0.21983  Biso   1.000  C
  C36      1.0000 0.20210  0.71840  0.28778  Biso   1.000  C
  C37      1.0000 0.39632  0.92516  0.46674  Biso   1.000  C
  C38      1.0000 0.53532  0.91191  0.49045  Biso   1.000  C
  C39      1.0000 0.59610  0.66189  0.17907  Biso   1.000  C
  C40      1.0000 0.66691  0.75787  0.22780  Biso   1.000  C
  C41      1.0000 0.73198  0.85411  0.27815  Biso   1.000  C
  C42      1.0000 0.29697  0.73434  0.19896  Biso   1.000  C
  H36      1.0000 0.30551  0.62849  0.20350  Biso   1.000  H
  H37      1.0000 0.16891  0.71289  0.31789  Biso   1.000  H
  C43      1.0000 0.21679  0.78404  0.26868  Biso   1.000  C
  C44      1.0000 0.41889  0.95544  0.41899  Biso   1.000  C
  H38      1.0000 0.34127  0.92007  0.47498  Biso   1.000  H
  C45      1.0000 0.55818  0.94188  0.44298  Biso   1.000  C
  H39      1.0000 0.57490  0.89779  0.51499  Biso   1.000  H
  N7       1.0000 0.56857  0.69892  0.14186  Biso   1.000  N
  H40      1.0000 0.58206  0.61411  0.17958  Biso   1.000  H
  H41      1.0000 0.64690  0.79111  0.20350  Biso   1.000  H
  N8       1.0000 0.76990  0.87457  0.31848  Biso   1.000  N
  H42      1.0000 0.71437  0.88719  0.25290  Biso   1.000  H
  C46      1.0000 0.26419  0.79178  0.22331  Biso   1.000  C
  C47      1.0000 0.35250  0.74135  0.15358  Biso   1.000  C
  C48      1.0000 0.18741  0.84460  0.29887  Biso   1.000  C
  C49      1.0000 0.36038  0.97933  0.37898  Biso   1.000  C
  C50      1.0000 0.49979  0.96401  0.40798  Biso   1.000  C
  C51      1.0000 0.64428  0.94521  0.43023  Biso   1.000  C
  C52      1.0000 0.52069  0.66168  0.10303  Biso   1.000  C
  C53      1.0000 0.78172  0.94837  0.32653  Biso   1.000  C
  H43      1.0000 0.27357  0.83681  0.20930  Biso   1.000  H
  N9       1.0000 0.38498  0.68869  0.13377  Biso   1.000  N
  H44      1.0000 0.36342  0.78597  0.13941  Biso   1.000  H
  N10      1.0000 0.20264  0.90615  0.28723  Biso   1.000  N
  H45      1.0000 0.15487  0.83619  0.32890  Biso   1.000  H
  N11      1.0000 0.28545  0.97730  0.38505  Biso   1.000  N
  H46      1.0000 0.38050  0.99740  0.34670  Biso   1.000  H
  H47      1.0000 0.51537  0.98551  0.37582  Biso   1.000  H
  N12      1.0000 0.67132  0.97330  0.38868  Biso   1.000  N
  H48      1.0000 0.68112  0.92531  0.45438  Biso   1.000  H
  C54      1.0000 0.44092  0.69767  0.09036  Biso   1.000  C
  H49      1.0000 0.51030  0.61338  0.11582  Biso   1.000  H
  C55      1.0000 0.56009  0.65898  0.04889  Biso   1.000  C
  C56      1.0000 0.75742  0.97117  0.38174  Biso   1.000  C
  H50      1.0000 0.75037  0.97507  0.29970  Biso   1.000  H
  C57      1.0000 0.86948  0.97019  0.32436  Biso   1.000  C
  C58      1.0000 0.17159  0.95990  0.32235  Biso   1.000  C
  C59      1.0000 0.23781  0.00784  0.34267  Biso   1.000  C
  C60      1.0000 0.41417  0.65810  0.04131  Biso   1.000  C
  H51      1.0000 0.44922  0.74800  0.08231  Biso   1.000  H
  C61      1.0000 0.49221  0.63997  0.01109  Biso   1.000  C
  H52      1.0000 0.60272  0.62340  0.04798  Biso   1.000  H
  H53      1.0000 0.58338  0.70458  0.03962  Biso   1.000  H
  H54      1.0000 0.78100  0.93851  0.40810  Biso   1.000  H
  C62      1.0000 0.79617  0.04228  0.38789  Biso   1.000  C
  H55      1.0000 0.88769  0.97528  0.28739  Biso   1.000  H
  H56      1.0000 0.90382  0.93560  0.34232  Biso   1.000  H
  C63      1.0000 0.87181  0.04061  0.35344  Biso   1.000  C
  H57      1.0000 0.14258  0.93830  0.35270  Biso   1.000  H
  C64      1.0000 0.11690  0.01091  0.29323  Biso   1.000  C
  C65      1.0000 0.19189  0.07147  0.36221  Biso   1.000  C
  H58      1.0000 0.27351  0.02150  0.31280  Biso   1.000  H
  H59      1.0000 0.37877  0.68718  0.01922  Biso   1.000  H
  H60      1.0000 0.38510  0.61530  0.05130  Biso   1.000  H
  H61      1.0000 0.49388  0.58990  0.00221  Biso   1.000  H
  H62      1.0000 0.49609  0.66719  0.97810  Biso   1.000  H
  H63      1.0000 0.81032  0.05090  0.42530  Biso   1.000  H
  H64      1.0000 0.75951  0.07931  0.37590  Biso   1.000  H
  H65      1.0000 0.92029  0.04420  0.37558  Biso   1.000  H
  H66      1.0000 0.87157  0.07952  0.32791  Biso   1.000  H
  H67      1.0000 0.06138  0.99340  0.29252  Biso   1.000  H
  H68      1.0000 0.13541  0.01771  0.25641  Biso   1.000  H
  C66      1.0000 0.12168  0.07858  0.32381  Biso   1.000  C
  H69      1.0000 0.22610  0.11338  0.36130  Biso   1.000  H
  H70      1.0000 0.17261  0.06430  0.39871  Biso   1.000  H
  H71      1.0000 0.07153  0.08679  0.34338  Biso   1.000  H
  H72      1.0000 0.13069  0.11800  0.29950  Biso   1.000  H
  C67      1.0000 0.69186  0.42853  0.63779  Biso   1.000  C
  C68      1.0000 0.62171  0.42142  0.67619  Biso   1.000  C
  H73      1.0000 0.72607  0.38662  0.63870  Biso   1.000  H
  H74      1.0000 0.67258  0.43570  0.60129  Biso   1.000  H
  C69      1.0000 0.73778  0.49216  0.65733  Biso   1.000  C
  C70      1.0000 0.61687  0.48909  0.70677  Biso   1.000  C
  H75      1.0000 0.57150  0.41321  0.65662  Biso   1.000  H
  H76      1.0000 0.63066  0.38200  0.70050  Biso   1.000  H
  N13      1.0000 0.78542  0.52270  0.61495  Biso   1.000  N
  C71      1.0000 0.67156  0.54004  0.67765  Biso   1.000  C
  H77      1.0000 0.77348  0.47850  0.68720  Biso   1.000  H
  H78      1.0000 0.63538  0.48229  0.74359  Biso   1.000  H
  H79      1.0000 0.56141  0.50660  0.70748  Biso   1.000  H
  C72      1.0000 0.86041  0.52067  0.62102  Biso   1.000  C
  N14      1.0000 0.70261  0.59385  0.71277  Biso   1.000  N
  H80      1.0000 0.64261  0.56170  0.64730  Biso   1.000  H
  C73      1.0000 0.91886  0.54456  0.58101  Biso   1.000  C
  H81      1.0000 0.88047  0.50260  0.65330  Biso   1.000  H
  C74      1.0000 0.68738  0.65540  0.70113  Biso   1.000  C
  C75      1.0000 0.89629  0.57479  0.53326  Biso   1.000  C
  C76      1.0000 0.99976  0.53599  0.59202  Biso   1.000  C
  C77      1.0000 0.71682  0.71596  0.73132  Biso   1.000  C
  H82      1.0000 0.65490  0.66381  0.67110  Biso   1.000  H
  H83      1.0000 0.84130  0.57988  0.52502  Biso   1.000  H
  C78      1.0000 0.95421  0.59764  0.49755  Biso   1.000  C
  C79      1.0000 0.05821  0.55812  0.55702  Biso   1.000  C
  H84      1.0000 0.01540  0.51449  0.62418  Biso   1.000  H
  C80      1.0000 0.70207  0.78160  0.71222  Biso   1.000  C
  C81      1.0000 0.76417  0.70822  0.77669  Biso   1.000  C
  C82      1.0000 0.93128  0.63400  0.44894  Biso   1.000  C
  C83      1.0000 0.03529  0.58809  0.50955  Biso   1.000  C
  C84      1.0000 0.14431  0.55479  0.56977  Biso   1.000  C
  C85      1.0000 0.73491  0.83977  0.73593  Biso   1.000  C
  H85      1.0000 0.66888  0.78711  0.68211  Biso   1.000  H
  C86      1.0000 0.79700  0.76566  0.80104  Biso   1.000  C
  H86      1.0000 0.77360  0.66319  0.79070  Biso   1.000  H
  N15      1.0000 0.98185  0.65706  0.41603  Biso   1.000  N
  H87      1.0000 0.87617  0.64049  0.44180  Biso   1.000  H
  H88      1.0000 0.07487  0.60221  0.48501  Biso   1.000  H
  N16      1.0000 0.17129  0.52670  0.61132  Biso   1.000  N
  H89      1.0000 0.18109  0.57469  0.54562  Biso   1.000  H
  C87      1.0000 0.78249  0.83183  0.78017  Biso   1.000  C
  C88      1.0000 0.72440  0.90947  0.71273  Biso   1.000  C
  C89      1.0000 0.85247  0.75865  0.84642  Biso   1.000  C
  C90      1.0000 0.95271  0.69617  0.37069  Biso   1.000  C
  C91      1.0000 0.25739  0.52883  0.61826  Biso   1.000  C
  H90      1.0000 0.80548  0.87151  0.79650  Biso   1.000  H
  N17      1.0000 0.67968  0.92007  0.67347  Biso   1.000  N
  H91      1.0000 0.75216  0.94760  0.72788  Biso   1.000  H
  N18      1.0000 0.88495  0.81131  0.86623  Biso   1.000  N
  H92      1.0000 0.86339  0.71398  0.86059  Biso   1.000  H
  C92      1.0000 0.99110  0.76737  0.36587  Biso   1.000  C
  C93      1.0000 0.97397  0.66178  0.31813  Biso   1.000  C
  H93      1.0000 0.89349  0.70152  0.37329  Biso   1.000  H
  C94      1.0000 0.28169  0.55163  0.67347  Biso   1.000  C
  H94      1.0000 0.28097  0.56149  0.59190  Biso   1.000  H
  C95      1.0000 0.29620  0.45767  0.61211  Biso   1.000  C
  C96      1.0000 0.67497  0.98930  0.65212  Biso   1.000  C
  C97      1.0000 0.94089  0.80233  0.90964  Biso   1.000  C
  N19      1.0000 0.96251  0.81547  0.40526  Biso   1.000  N
  C98      1.0000 0.96848  0.78820  0.30929  Biso   1.000  C
  H95      1.0000 0.05039  0.76291  0.36872  Biso   1.000  H
  C99      1.0000 0.97080  0.72089  0.27748  Biso   1.000  C
  H96      1.0000 0.93498  0.62491  0.30921  Biso   1.000  H
  H97      1.0000 0.02812  0.64111  0.31959  Biso   1.000  H
  N20      1.0000 0.26993  0.62543  0.68152  Biso   1.000  N
  H98      1.0000 0.25040  0.52488  0.70030  Biso   1.000  H
  C100     1.0000 0.36951  0.52981  0.67564  Biso   1.000  C
  H99      1.0000 0.31029  0.44910  0.57470  Biso   1.000  H
  H100     1.0000 0.25948  0.42069  0.62410  Biso   1.000  H
  C101     1.0000 0.37178  0.45939  0.64656  Biso   1.000  C
  C102     1.0000 0.69371  0.98909  0.59309  Biso   1.000  C
  H101     1.0000 0.71330  0.02041  0.67098  Biso   1.000  H
  C103     1.0000 0.58959  0.01958  0.65587  Biso   1.000  C
  C104     1.0000 0.91420  0.84190  0.95869  Biso   1.000  C
  H102     1.0000 0.94919  0.75200  0.91769  Biso   1.000  H
  C105     1.0000 0.02072  0.83832  0.89697  Biso   1.000  C
  C106     1.0000 0.01349  0.85307  0.42925  Biso   1.000  C
  H103     1.0000 0.91438  0.80887  0.30838  Biso   1.000  H
  H104     1.0000 0.00710  0.82227  0.29500  Biso   1.000  H
  H105     1.0000 0.92250  0.71668  0.25511  Biso   1.000  H
  H106     1.0000 0.01851  0.71980  0.25440  Biso   1.000  H
  C107     1.0000 0.23201  0.64589  0.72185  Biso   1.000  C
  H107     1.0000 0.38772  0.52467  0.71261  Biso   1.000  H
  H108     1.0000 0.40379  0.56440  0.65768  Biso   1.000  H
  H109     1.0000 0.42032  0.45580  0.62442  Biso   1.000  H
  H110     1.0000 0.37160  0.42048  0.67209  Biso   1.000  H
  N21      1.0000 0.77975  0.99231  0.58247  Biso   1.000  N
  H111     1.0000 0.67049  0.94661  0.57639  Biso   1.000  H
  C108     1.0000 0.65067  0.05350  0.57265  Biso   1.000  C
  H112     1.0000 0.55090  0.98250  0.66471  Biso   1.000  H
  H113     1.0000 0.58708  0.05568  0.68361  Biso   1.000  H
  C109     1.0000 0.57042  0.05079  0.60208  Biso   1.000  C
  C110     1.0000 0.99218  0.85998  0.98891  Biso   1.000  C
  H114     1.0000 0.87880  0.81277  0.98078  Biso   1.000  H
  H115     1.0000 0.88507  0.88470  0.94870  Biso   1.000  H
  N22      1.0000 0.06860  0.80108  0.85814  Biso   1.000  N
  H116     1.0000 0.01033  0.88657  0.88418  Biso   1.000  H
  C111     1.0000 0.06012  0.84097  0.95111  Biso   1.000  C
  C112     1.0000 0.99140  0.90163  0.47190  Biso   1.000  C
  H117     1.0000 0.06800  0.84980  0.41930  Biso   1.000  H
  C113     1.0000 0.21482  0.72073  0.73041  Biso   1.000  C
  H118     1.0000 0.21440  0.61281  0.74710  Biso   1.000  H
  C114     1.0000 0.80668  0.95269  0.54676  Biso   1.000  C
  H119     1.0000 0.64278  0.05121  0.53401  Biso   1.000  H
  H120     1.0000 0.68058  0.09629  0.58141  Biso   1.000  H
  H121     1.0000 0.54767  0.09801  0.60599  Biso   1.000  H
  H122     1.0000 0.53167  0.02140  0.58279  Biso   1.000  H
  H123     1.0000 0.99391  0.91010  0.99779  Biso   1.000  H
  H124     1.0000 0.99606  0.83281  0.02190  Biso   1.000  H
  C115     1.0000 0.09613  0.83811  0.82093  Biso   1.000  C
  H125     1.0000 0.10269  0.87660  0.95202  Biso   1.000  H
  H126     1.0000 0.08341  0.79537  0.96038  Biso   1.000  H
  C116     1.0000 0.91110  0.90859  0.48785  Biso   1.000  C
  C117     1.0000 0.05027  0.93819  0.49854  Biso   1.000  C
  C118     1.0000 0.24372  0.76950  0.69478  Biso   1.000  C
  C119     1.0000 0.16688  0.74208  0.77220  Biso   1.000  C
  C120     1.0000 0.89110  0.95009  0.52983  Biso   1.000  C
  H127     1.0000 0.77002  0.92241  0.52971  Biso   1.000  H
  C121     1.0000 0.14831  0.81183  0.77839  Biso   1.000  C
  H128     1.0000 0.08209  0.88589  0.82042  Biso   1.000  H
  H129     1.0000 0.87038  0.88418  0.46930  Biso   1.000  H
  C122     1.0000 0.03009  0.98099  0.54092  Biso   1.000  C
  H130     1.0000 0.10448  0.93409  0.48789  Biso   1.000  H
  H131     1.0000 0.27637  0.75470  0.66629  Biso   1.000  H
  C123     1.0000 0.22539  0.83988  0.70014  Biso   1.000  C
  H132     1.0000 0.14687  0.70889  0.79650  Biso   1.000  H
  C124     1.0000 0.95098  0.98759  0.55635  Biso   1.000  C
  C125     1.0000 0.17709  0.86034  0.74272  Biso   1.000  C
  C126     1.0000 0.09201  0.01880  0.57123  Biso   1.000  C
  C127     1.0000 0.25476  0.89010  0.66072  Biso   1.000  C
  H133     1.0000 0.93719  0.01740  0.58480  Biso   1.000  H
  H134     1.0000 0.16407  0.90797  0.74710  Biso   1.000  H
  N23      1.0000 0.16622  0.00852  0.56389  Biso   1.000  N
  H135     1.0000 0.07571  0.05168  0.59699  Biso   1.000  H
  N24      1.0000 0.24891  0.95533  0.66510  Biso   1.000  N
  H136     1.0000 0.27978  0.87218  0.62990  Biso   1.000  H
  C128     1.0000 0.22109  0.04607  0.59759  Biso   1.000  C
  C129     1.0000 0.28235  0.99761  0.62268  Biso   1.000  C
  C130     1.0000 0.27429  0.09598  0.56692  Biso   1.000  C
  H137     1.0000 0.19100  0.07167  0.62560  Biso   1.000  H
  H138     1.0000 0.30497  0.96640  0.59490  Biso   1.000  H
  C131     1.0000 0.34730  0.04711  0.64178  Biso   1.000  C
  C132     1.0000 0.34802  0.10689  0.60141  Biso   1.000  C
  H139     1.0000 0.24652  0.14059  0.56069  Biso   1.000  H
  H140     1.0000 0.28951  0.07578  0.53240  Biso   1.000  H
  H141     1.0000 0.39979  0.02342  0.64269  Biso   1.000  H
  H142     1.0000 0.33489  0.06461  0.67761  Biso   1.000  H
  H143     1.0000 0.34527  0.15238  0.61960  Biso   1.000  H
  H144     1.0000 0.39722  0.10538  0.57979  Biso   1.000  H
  C133     1.0000 0.55908  0.19767  0.40964  Biso   1.000  C
  C134     1.0000 0.47931  0.16168  0.39697  Biso   1.000  C
  N25      1.0000 0.61502  0.18869  0.36623  Biso   1.000  N
  C135     1.0000 0.58577  0.15810  0.45869  Biso   1.000  C
  H145     1.0000 0.55078  0.24800  0.41769  Biso   1.000  H
  N26      1.0000 0.43143  0.19892  0.35814  Biso   1.000  N
  H146     1.0000 0.48970  0.11338  0.38418  Biso   1.000  H
  C136     1.0000 0.43991  0.15898  0.45111  Biso   1.000  C
  C137     1.0000 0.64750  0.24135  0.34642  Biso   1.000  C
  C138     1.0000 0.50779  0.14002  0.48891  Biso   1.000  C
  H147     1.0000 0.62117  0.18718  0.48078  Biso   1.000  H
  H148     1.0000 0.61490  0.11530  0.44870  Biso   1.000  H
  C139     1.0000 0.40390  0.16189  0.32093  Biso   1.000  C
  H149     1.0000 0.39728  0.12340  0.45202  Biso   1.000  H
  H150     1.0000 0.41662  0.20458  0.46038  Biso   1.000  H
  C140     1.0000 0.70297  0.23434  0.30104  Biso   1.000  C
  H151     1.0000 0.63658  0.28602  0.36059  Biso   1.000  H
  H152     1.0000 0.50612  0.08990  0.49779  Biso   1.000  H
  H153     1.0000 0.50391  0.16719  0.52190  Biso   1.000  H
  C141     1.0000 0.35172  0.18812  0.27839  Biso   1.000  C
  H154     1.0000 0.41788  0.11411  0.32042  Biso   1.000  H
  C142     1.0000 0.71748  0.16817  0.28017  Biso   1.000  C
  C143     1.0000 0.73581  0.29178  0.27669  Biso   1.000  C
  C144     1.0000 0.33309  0.25792  0.27220  Biso   1.000  C
  C145     1.0000 0.32288  0.13966  0.24272  Biso   1.000  C
  H155     1.0000 0.69449  0.12849  0.29650  Biso   1.000  H
  C146     1.0000 0.76512  0.16023  0.23593  Biso   1.000  C
  C147     1.0000 0.78321  0.28404  0.23132  Biso   1.000  C
  H156     1.0000 0.72637  0.33681  0.29070  Biso   1.000  H
  C148     1.0000 0.28521  0.27927  0.23041  Biso   1.000  C
  H157     1.0000 0.35310  0.29111  0.29650  Biso   1.000  H
  C149     1.0000 0.27458  0.16012  0.20014  Biso   1.000  C
  H158     1.0000 0.33590  0.09198  0.24710  Biso   1.000  H
  C150     1.0000 0.79790  0.21840  0.21222  Biso   1.000  C
  C151     1.0000 0.77557  0.09053  0.21273  Biso   1.000  C
  C152     1.0000 0.81259  0.34460  0.20113  Biso   1.000  C
  C153     1.0000 0.25631  0.23045  0.19478  Biso   1.000  C
  C154     1.0000 0.26802  0.35411  0.22185  Biso   1.000  C
  C155     1.0000 0.24521  0.10990  0.16072  Biso   1.000  C
  H159     1.0000 0.83109  0.21289  0.18211  Biso   1.000  H
  N27      1.0000 0.82029  0.07993  0.17347  Biso   1.000  N
  H160     1.0000 0.74781  0.05240  0.22788  Biso   1.000  H
  N28      1.0000 0.79736  0.40615  0.21277  Biso   1.000  N
  H161     1.0000 0.84507  0.33619  0.17110  Biso   1.000  H
  H162     1.0000 0.22360  0.24530  0.16629  Biso   1.000  H
  N29      1.0000 0.23010  0.37457  0.18152  Biso   1.000  N
  H163     1.0000 0.28557  0.38719  0.24710  Biso   1.000  H
  N30      1.0000 0.25106  0.04467  0.16510  Biso   1.000  N
  H164     1.0000 0.22019  0.12782  0.12990  Biso   1.000  H
  C156     1.0000 0.82500  0.01070  0.15212  Biso   1.000  C
  C157     1.0000 0.82841  0.45996  0.17765  Biso   1.000  C
  C158     1.0000 0.21828  0.44837  0.17347  Biso   1.000  C
  C159     1.0000 0.21762  0.00239  0.12268  Biso   1.000  C
  C160     1.0000 0.80632  0.01091  0.09309  Biso   1.000  C
  H165     1.0000 0.78667  0.97959  0.17098  Biso   1.000  H
  C161     1.0000 0.91038  0.98037  0.15587  Biso   1.000  C
  C162     1.0000 0.76219  0.50784  0.15733  Biso   1.000  C
  H166     1.0000 0.85736  0.43830  0.14730  Biso   1.000  H
  C163     1.0000 0.88310  0.51091  0.20677  Biso   1.000  C
  H167     1.0000 0.24963  0.47507  0.20030  Biso   1.000  H
  C164     1.0000 0.24258  0.47117  0.11826  Biso   1.000  C
  C165     1.0000 0.13052  0.47019  0.17564  Biso   1.000  C
  H168     1.0000 0.19500  0.03360  0.09490  Biso   1.000  H
  C166     1.0000 0.15273  0.95289  0.14178  Biso   1.000  C
  C167     1.0000 0.27894  0.95393  0.09759  Biso   1.000  C
  N31      1.0000 0.72022  0.00769  0.08247  Biso   1.000  N
  H169     1.0000 0.82948  0.05339  0.07639  Biso   1.000  H
  C168     1.0000 0.84930  0.94650  0.07265  Biso   1.000  C
  C169     1.0000 0.92961  0.94921  0.10208  Biso   1.000  C
  H170     1.0000 0.94907  0.01750  0.16471  Biso   1.000  H
  H171     1.0000 0.91289  0.94427  0.18361  Biso   1.000  H
  N32      1.0000 0.71455  0.47730  0.11495  Biso   1.000  N
  C170     1.0000 0.80811  0.57147  0.13779  Biso   1.000  C
  H172     1.0000 0.72649  0.52150  0.18720  Biso   1.000  H
  C171     1.0000 0.87826  0.57858  0.17619  Biso   1.000  C
  H173     1.0000 0.86459  0.51771  0.24359  Biso   1.000  H
  H174     1.0000 0.93856  0.49340  0.20748  Biso   1.000  H
  N33      1.0000 0.32868  0.47330  0.11132  Biso   1.000  N
  H175     1.0000 0.21900  0.43851  0.09190  Biso   1.000  H
  C172     1.0000 0.20377  0.54228  0.11211  Biso   1.000  C
  C173     1.0000 0.12819  0.54061  0.14656  Biso   1.000  C
  H176     1.0000 0.11231  0.47528  0.21261  Biso   1.000  H
  H177     1.0000 0.09618  0.43560  0.15768  Biso   1.000  H
  H178     1.0000 0.10019  0.97658  0.14269  Biso   1.000  H
  H179     1.0000 0.16508  0.93539  0.17761  Biso   1.000  H
  C174     1.0000 0.15201  0.89311  0.10141  Biso   1.000  C
  N34      1.0000 0.33381  0.99148  0.06389  Biso   1.000  N
  C175     1.0000 0.22569  0.90397  0.06692  Biso   1.000  C
  H180     1.0000 0.30897  0.92827  0.12560  Biso   1.000  H
  C176     1.0000 0.69330  0.04731  0.04676  Biso   1.000  C
  H181     1.0000 0.85719  0.94879  0.03401  Biso   1.000  H
  H182     1.0000 0.81939  0.90371  0.08141  Biso   1.000  H
  H183     1.0000 0.95230  0.90199  0.10599  Biso   1.000  H
  H184     1.0000 0.96830  0.97860  0.08279  Biso   1.000  H
  C177     1.0000 0.63962  0.47933  0.12102  Biso   1.000  C
  H185     1.0000 0.77390  0.61338  0.13870  Biso   1.000  H
  H186     1.0000 0.82739  0.56430  0.10129  Biso   1.000  H
  H187     1.0000 0.92847  0.58679  0.15662  Biso   1.000  H
  H188     1.0000 0.86931  0.61800  0.20050  Biso   1.000  H
  C178     1.0000 0.35572  0.44521  0.06977  Biso   1.000  C
  H189     1.0000 0.18968  0.55090  0.07470  Biso   1.000  H
  H190     1.0000 0.24049  0.57931  0.12410  Biso   1.000  H
  H191     1.0000 0.07971  0.54420  0.12442  Biso   1.000  H
  H192     1.0000 0.12843  0.57952  0.17209  Biso   1.000  H
  H193     1.0000 0.15470  0.84762  0.11960  Biso   1.000  H
  H194     1.0000 0.10281  0.89457  0.07979  Biso   1.000  H
  C179     1.0000 0.40802  0.98120  0.07123  Biso   1.000  C
  H195     1.0000 0.25351  0.85941  0.06069  Biso   1.000  H
  H196     1.0000 0.21052  0.92417  0.03240  Biso   1.000  H
  C180     1.0000 0.60887  0.04991  0.02983  Biso   1.000  C
  H197     1.0000 0.73001  0.07759  0.02971  Biso   1.000  H
  C181     1.0000 0.58111  0.45544  0.08101  Biso   1.000  C
  H198     1.0000 0.61950  0.49740  0.15330  Biso   1.000  H
  C182     1.0000 0.44182  0.44188  0.05702  Biso   1.000  C
  H199     1.0000 0.31888  0.42531  0.04562  Biso   1.000  H
  C183     1.0000 0.46988  0.01901  0.04092  Biso   1.000  C
  H200     1.0000 0.42432  0.94827  0.09699  Biso   1.000  H
  C184     1.0000 0.54899  0.01241  0.05635  Biso   1.000  C
  C185     1.0000 0.58887  0.09141  0.98785  Biso   1.000  C
  C186     1.0000 0.50021  0.46401  0.09202  Biso   1.000  C
  C187     1.0000 0.60368  0.42521  0.03326  Biso   1.000  C
  C188     1.0000 0.46468  0.41191  0.00955  Biso   1.000  C
  C189     1.0000 0.44970  0.06181  0.99854  Biso   1.000  C
  H201     1.0000 0.56278  0.98260  0.08480  Biso   1.000  H
  C190     1.0000 0.50857  0.09837  0.97190  Biso   1.000  C
  H202     1.0000 0.62959  0.11582  0.96930  Biso   1.000  H
  H203     1.0000 0.48457  0.48551  0.12418  Biso   1.000  H
  C191     1.0000 0.54576  0.40236  0.99755  Biso   1.000  C
  H204     1.0000 0.65867  0.42012  0.02502  Biso   1.000  H
  H205     1.0000 0.42510  0.39779  0.98501  Biso   1.000  H
  H206     1.0000 0.39549  0.06591  0.98789  Biso   1.000  H
  C192     1.0000 0.48648  0.14688  0.92925  Biso   1.000  C
  C193     1.0000 0.56869  0.36600  0.94894  Biso   1.000  C
  N35      1.0000 0.53746  0.18453  0.90526  Biso   1.000  N
  H207     1.0000 0.43197  0.15020  0.91930  Biso   1.000  H
  N36      1.0000 0.51812  0.34294  0.91603  Biso   1.000  N
  H208     1.0000 0.62380  0.35951  0.94180  Biso   1.000  H
  C194     1.0000 0.50887  0.23258  0.86587  Biso   1.000  C
  C195     1.0000 0.54732  0.30378  0.87069  Biso   1.000  C
  H209     1.0000 0.44958  0.23709  0.86872  Biso   1.000  H
  C196     1.0000 0.53149  0.21180  0.80929  Biso   1.000  C
  C197     1.0000 0.52600  0.33822  0.81813  Biso   1.000  C
  H210     1.0000 0.60648  0.29848  0.87329  Biso   1.000  H
  C198     1.0000 0.52917  0.27911  0.77748  Biso   1.000  C
  H211     1.0000 0.58559  0.19108  0.80838  Biso   1.000  H
  H212     1.0000 0.49287  0.17768  0.79500  Biso   1.000  H
  H213     1.0000 0.56499  0.37509  0.80921  Biso   1.000  H
  H214     1.0000 0.47191  0.35889  0.81959  Biso   1.000  H
  H215     1.0000 0.48152  0.28020  0.75440  Biso   1.000  H
  H216     1.0000 0.57747  0.28332  0.75511  Biso   1.000  H
  C199     1.0000 0.08580  0.34190  0.54131  Biso   1.000  C
  C200     1.0000 0.00782  0.35998  0.51109  Biso   1.000  C
  H217     1.0000 0.12120  0.31282  0.51922  Biso   1.000  H
  H218     1.0000 0.11487  0.38470  0.55130  Biso   1.000  H
  C201     1.0000 0.05911  0.30233  0.59036  Biso   1.000  C
  H219     1.0000 0.00609  0.41010  0.50221  Biso   1.000  H
  H220     1.0000 0.00388  0.33281  0.47810  Biso   1.000  H
  C202     1.0000 0.93988  0.34102  0.54889  Biso   1.000  C
  C203     1.0000 0.97928  0.33832  0.60303  Biso   1.000  C
  N37      1.0000 0.11505  0.31131  0.63377  Biso   1.000  N
  H221     1.0000 0.05081  0.25200  0.58231  Biso   1.000  H
  H222     1.0000 0.89731  0.37660  0.54798  Biso   1.000  H
  H223     1.0000 0.91659  0.29542  0.53962  Biso   1.000  H
  N38      1.0000 0.93140  0.30108  0.64186  Biso   1.000  N
  H224     1.0000 0.98967  0.38662  0.61582  Biso   1.000  H
  C204     1.0000 0.14747  0.25865  0.65358  Biso   1.000  C
  C205     1.0000 0.90387  0.33811  0.67907  Biso   1.000  C
  C206     1.0000 0.20300  0.26566  0.69896  Biso   1.000  C
  H225     1.0000 0.13661  0.21398  0.63941  Biso   1.000  H
  C207     1.0000 0.85169  0.31183  0.72161  Biso   1.000  C
  H226     1.0000 0.91791  0.38589  0.67958  Biso   1.000  H
  C208     1.0000 0.21751  0.33183  0.71983  Biso   1.000  C
  C209     1.0000 0.23578  0.20822  0.72331  Biso   1.000  C
  C210     1.0000 0.82291  0.36034  0.75728  Biso   1.000  C
  C211     1.0000 0.83306  0.24208  0.72780  Biso   1.000  C
  H227     1.0000 0.19452  0.37151  0.70350  Biso   1.000  H
  C212     1.0000 0.26509  0.33977  0.76407  Biso   1.000  C
  C213     1.0000 0.28318  0.21596  0.76868  Biso   1.000  C
  H228     1.0000 0.22640  0.16319  0.70930  Biso   1.000  H
  C214     1.0000 0.77461  0.33988  0.79986  Biso   1.000  C
  H229     1.0000 0.83587  0.40802  0.75290  Biso   1.000  H
  C215     1.0000 0.78518  0.22073  0.76959  Biso   1.000  C
  H230     1.0000 0.85307  0.20889  0.70350  Biso   1.000  H
  C216     1.0000 0.29787  0.28160  0.78778  Biso   1.000  C
  C217     1.0000 0.27560  0.40947  0.78727  Biso   1.000  C
  C218     1.0000 0.31262  0.15540  0.79887  Biso   1.000  C
  C219     1.0000 0.75628  0.26950  0.80522  Biso   1.000  C
  C220     1.0000 0.74524  0.39010  0.83928  Biso   1.000  C
  C221     1.0000 0.76799  0.14589  0.77815  Biso   1.000  C
  H231     1.0000 0.33112  0.28711  0.81789  Biso   1.000  H
  N39      1.0000 0.32032  0.42007  0.82653  Biso   1.000  N
  H232     1.0000 0.24778  0.44760  0.77212  Biso   1.000  H
  N40      1.0000 0.29733  0.09385  0.78723  Biso   1.000  N
  H233     1.0000 0.34510  0.16381  0.82890  Biso   1.000  H
  H234     1.0000 0.72357  0.25470  0.83371  Biso   1.000  H
  N41      1.0000 0.75109  0.45533  0.83490  Biso   1.000  N
  H235     1.0000 0.72016  0.37218  0.87010  Biso   1.000  H
  N42      1.0000 0.73007  0.12543  0.81848  Biso   1.000  N
  H236     1.0000 0.78560  0.11281  0.75290  Biso   1.000  H
  C222     1.0000 0.32497  0.48930  0.84788  Biso   1.000  C
  C223     1.0000 0.32838  0.04004  0.82235  Biso   1.000  C
  C224     1.0000 0.71765  0.49761  0.87732  Biso   1.000  C
  C225     1.0000 0.71831  0.05163  0.82653  Biso   1.000  C
  H237     1.0000 0.28670  0.52041  0.82902  Biso   1.000  H
  C226     1.0000 0.41041  0.51958  0.84413  Biso   1.000  C
  C227     1.0000 0.30629  0.48909  0.90691  Biso   1.000  C
  H238     1.0000 0.35739  0.06170  0.85270  Biso   1.000  H
  C228     1.0000 0.38307  0.98909  0.79323  Biso   1.000  C
  C229     1.0000 0.26222  0.99211  0.84267  Biso   1.000  C
  H239     1.0000 0.69497  0.46640  0.90510  Biso   1.000  H
  C230     1.0000 0.65270  0.54711  0.85822  Biso   1.000  C
  C231     1.0000 0.77891  0.54607  0.90241  Biso   1.000  C
  H240     1.0000 0.74960  0.02488  0.79970  Biso   1.000  H
  C232     1.0000 0.74261  0.02883  0.88174  Biso   1.000  C
  C233     1.0000 0.63049  0.02981  0.82436  Biso   1.000  C
  H241     1.0000 0.44910  0.48250  0.83529  Biso   1.000  H
  H242     1.0000 0.41292  0.55568  0.81639  Biso   1.000  H
  C234     1.0000 0.42958  0.55079  0.89792  Biso   1.000  C
  N43      1.0000 0.22019  0.49231  0.91753  Biso   1.000  N
  C235     1.0000 0.34927  0.55350  0.92735  Biso   1.000  C
  H243     1.0000 0.32951  0.44661  0.92361  Biso   1.000  H
  H244     1.0000 0.43859  0.00660  0.79252  Biso   1.000  H
  H245     1.0000 0.36462  0.98229  0.75641  Biso   1.000  H
  C236     1.0000 0.37829  0.92137  0.82381  Biso   1.000  C
  N44      1.0000 0.21452  0.02270  0.88505  Biso   1.000  N
  C237     1.0000 0.30808  0.92853  0.86221  Biso   1.000  C
  H246     1.0000 0.22652  0.97850  0.81280  Biso   1.000  H
  H247     1.0000 0.60021  0.52337  0.85731  Biso   1.000  H
  H248     1.0000 0.66511  0.56461  0.82239  Biso   1.000  H
  C238     1.0000 0.65198  0.60689  0.89859  Biso   1.000  C
  N45      1.0000 0.83378  0.50852  0.93611  Biso   1.000  N
  C239     1.0000 0.72571  0.59598  0.93308  Biso   1.000  C
  H249     1.0000 0.80900  0.57167  0.87440  Biso   1.000  H
  C240     1.0000 0.70380  0.95767  0.88789  Biso   1.000  C
  N46      1.0000 0.82865  0.02670  0.88868  Biso   1.000  N
  H250     1.0000 0.71897  0.06149  0.90810  Biso   1.000  H
  C241     1.0000 0.62822  0.95939  0.85344  Biso   1.000  C
  H251     1.0000 0.61228  0.02472  0.78739  Biso   1.000  H
  H252     1.0000 0.59621  0.06440  0.84232  Biso   1.000  H
  H253     1.0000 0.45227  0.59801  0.89401  Biso   1.000  H
  H254     1.0000 0.46827  0.52140  0.91721  Biso   1.000  H
  C242     1.0000 0.19332  0.45269  0.95324  Biso   1.000  C
  H255     1.0000 0.35722  0.55121  0.96599  Biso   1.000  H
  H256     1.0000 0.31942  0.59629  0.91859  Biso   1.000  H
  H257     1.0000 0.42850  0.91321  0.84338  Biso   1.000  H
  H258     1.0000 0.36928  0.88200  0.79950  Biso   1.000  H
  C243     1.0000 0.13959  0.02067  0.87898  Biso   1.000  C
  H259     1.0000 0.27387  0.88657  0.86130  Biso   1.000  H
  H260     1.0000 0.32742  0.93570  0.89871  Biso   1.000  H
  H261     1.0000 0.65467  0.65238  0.88040  Biso   1.000  H
  H262     1.0000 0.60278  0.60538  0.92021  Biso   1.000  H
  C244     1.0000 0.90799  0.51880  0.92877  Biso   1.000  C
  H263     1.0000 0.75348  0.64059  0.93931  Biso   1.000  H
  H264     1.0000 0.71049  0.57578  0.96760  Biso   1.000  H
  H265     1.0000 0.68971  0.94910  0.92530  Biso   1.000  H
  H266     1.0000 0.74046  0.92069  0.87590  Biso   1.000  H
  C245     1.0000 0.85569  0.05479  0.93023  Biso   1.000  C
  H267     1.0000 0.57968  0.95580  0.87558  Biso   1.000  H
  H268     1.0000 0.62840  0.92048  0.82791  Biso   1.000  H
  C246     1.0000 0.10890  0.45009  0.97017  Biso   1.000  C
  H269     1.0000 0.22998  0.42241  0.97029  Biso   1.000  H
  C247     1.0000 0.08108  0.04456  0.91899  Biso   1.000  C
  H270     1.0000 0.11947  0.00260  0.84670  Biso   1.000  H
  C248     1.0000 0.96991  0.48099  0.95908  Biso   1.000  C
  H271     1.0000 0.92429  0.55168  0.90301  Biso   1.000  H
  C249     1.0000 0.94179  0.05812  0.94298  Biso   1.000  C
  H272     1.0000 0.81891  0.07469  0.95438  Biso   1.000  H
  C250     1.0000 0.04902  0.48759  0.94365  Biso   1.000  C
  C251     1.0000 0.08890  0.40859  0.01215  Biso   1.000  C
  C252     1.0000 0.10371  0.07479  0.96674  Biso   1.000  C
  C253     1.0000 0.00018  0.03599  0.90798  Biso   1.000  C
  C254     1.0000 0.94967  0.43819  0.00146  Biso   1.000  C
  C255     1.0000 0.96471  0.08809  0.99045  Biso   1.000  C
  H273     1.0000 0.06281  0.51740  0.91520  Biso   1.000  H
  C256     1.0000 0.00860  0.40163  0.02810  Biso   1.000  C
  H274     1.0000 0.12962  0.38418  0.03070  Biso   1.000  H
  H275     1.0000 0.15870  0.07988  0.97498  Biso   1.000  H
  C257     1.0000 0.04579  0.09764  0.00245  Biso   1.000  C
  H276     1.0000 0.98460  0.01449  0.87582  Biso   1.000  H
  H277     1.0000 0.89552  0.43409  0.01211  Biso   1.000  H
  H278     1.0000 0.92507  0.10221  0.01499  Biso   1.000  H
  C258     1.0000 0.98651  0.35312  0.07075  Biso   1.000  C
  C259     1.0000 0.06872  0.13400  0.05106  Biso   1.000  C
  H279     1.0000 0.93200  0.34980  0.08070  Biso   1.000  H
  N47      1.0000 0.03744  0.31547  0.09474  Biso   1.000  N
  N48      1.0000 0.01815  0.15706  0.08397  Biso   1.000  N
  H280     1.0000 0.12383  0.14049  0.05820  Biso   1.000  H
  C260     1.0000 0.00890  0.26737  0.13413  Biso   1.000  C
  C261     1.0000 0.04729  0.19622  0.12931  Biso   1.000  C
  H281     1.0000 0.94961  0.26291  0.13128  Biso   1.000  H
  C262     1.0000 0.03152  0.28820  0.19071  Biso   1.000  C
  C263     1.0000 0.02597  0.16178  0.18187  Biso   1.000  C
  H282     1.0000 0.10651  0.20152  0.12671  Biso   1.000  H
  H283     1.0000 0.99290  0.32227  0.20500  Biso   1.000  H
  H284     1.0000 0.08562  0.30887  0.19162  Biso   1.000  H
  C264     1.0000 0.02920  0.22089  0.22252  Biso   1.000  C
  H285     1.0000 0.97188  0.14111  0.18041  Biso   1.000  H
  H286     1.0000 0.06502  0.12491  0.19079  Biso   1.000  H
  H287     1.0000 0.98149  0.21980  0.24560  Biso   1.000  H
  H288     1.0000 0.07750  0.21668  0.24489  Biso   1.000  H
