data_image0
_cell_length_a       28.005
_cell_length_b       9.807
_cell_length_c       20.853
_cell_angle_alpha    90
_cell_angle_beta     117.09
_cell_angle_gamma    90

_symmetry_space_group_name_H-M    "P 1"
_symmetry_int_tables_number       1

loop_
  _symmetry_equiv_pos_as_xyz
  'x, y, z'

loop_
  _atom_site_label
  _atom_site_occupancy
  _atom_site_fract_x
  _atom_site_fract_y
  _atom_site_fract_z
  _atom_site_thermal_displace_type
  _atom_site_B_iso_or_equiv
  _atom_site_type_symbol
  O1       1.0000 0.49927  0.43642  0.89689  Biso   1.000  O
  C1       1.0000 0.55449  0.46385  0.91811  Biso   1.000  C
  C2       1.0000 0.55444  0.46385  0.91806  Biso   1.000  C
  C3       1.0000 0.57705  0.36515  0.88197  Biso   1.000  C
  C4       1.0000 0.58266  0.44570  0.99918  Biso   1.000  C
  H1       1.0000 0.55867  0.55797  0.90567  Biso   1.000  H
  C5       1.0000 0.57217  0.22066  0.90400  Biso   1.000  C
  O2       1.0000 0.55087  0.38065  0.80570  Biso   1.000  O
  H2       1.0000 0.61527  0.38564  0.89948  Biso   1.000  H
  O3       1.0000 0.57849  0.30774  0.01690  Biso   1.000  O
  O4       1.0000 0.63662  0.48506  0.02530  Biso   1.000  O
  H3       1.0000 0.56549  0.50454  0.02067  Biso   1.000  H
  O5       1.0000 0.63656  0.48506  0.02525  Biso   1.000  O
  O6       1.0000 0.59886  0.12246  0.88035  Biso   1.000  O
  C6       1.0000 0.60118  0.21322  0.98587  Biso   1.000  C
  H4       1.0000 0.53438  0.19608  0.88606  Biso   1.000  H
  C7       1.0000 0.60115  0.21322  0.98587  Biso   1.000  C
  H5       1.0000 0.53434  0.19608  0.88606  Biso   1.000  H
  C8       1.0000 0.66288  0.54104  0.09705  Biso   1.000  C
  C9       1.0000 0.56626  0.04283  0.81938  Biso   1.000  C
  C10      1.0000 0.59889  0.07505  0.01577  Biso   1.000  C
  H6       1.0000 0.63889  0.23728  0.00219  Biso   1.000  H
  C11      1.0000 0.68599  0.43000  0.15458  Biso   1.000  C
  C12      1.0000 0.70789  0.62700  0.09586  Biso   1.000  C
  H7       1.0000 0.63798  0.59886  0.10599  Biso   1.000  H
  O7       1.0000 0.56536  0.09595  0.75609  Biso   1.000  O
  H8       1.0000 0.52969  0.04069  0.81399  Biso   1.000  H
  C13      1.0000 0.58876  0.89895  0.83247  Biso   1.000  C
  H9       1.0000 0.60726  0.00459  0.98981  Biso   1.000  H
  H10      1.0000 0.60725  0.00459  0.98975  Biso   1.000  H
  O8       1.0000 0.63719  0.07291  0.09037  Biso   1.000  O
  H11      1.0000 0.56318  0.05822  0.01049  Biso   1.000  H
  C14      1.0000 0.72348  0.49302  0.22745  Biso   1.000  C
  O9       1.0000 0.64600  0.35719  0.16459  Biso   1.000  O
  H12      1.0000 0.70649  0.36556  0.14079  Biso   1.000  H
  O10      1.0000 0.74260  0.68064  0.16610  Biso   1.000  O
  C15      1.0000 0.68659  0.74844  0.04609  Biso   1.000  C
  O11      1.0000 0.74258  0.68064  0.16605  Biso   1.000  O
  H13      1.0000 0.72907  0.56990  0.07976  Biso   1.000  H
  C16      1.0000 0.61798  0.11084  0.76131  Biso   1.000  C
  C17      1.0000 0.61796  0.11084  0.76126  Biso   1.000  C
  O12      1.0000 0.55439  0.81595  0.77279  Biso   1.000  O
  C18      1.0000 0.64507  0.89783  0.83888  Biso   1.000  C
  H14      1.0000 0.58969  0.86306  0.87691  Biso   1.000  H
  H15      1.0000 0.58964  0.86306  0.87685  Biso   1.000  H
  C19      1.0000 0.76619  0.57918  0.22040  Biso   1.000  C
  H16      1.0000 0.74089  0.42011  0.26257  Biso   1.000  H
  C20      1.0000 0.76617  0.57918  0.22034  Biso   1.000  C
  O13      1.0000 0.69236  0.57500  0.25056  Biso   1.000  O
  H17      1.0000 0.65997  0.71775  0.99896  Biso   1.000  H
  O14      1.0000 0.72860  0.81809  0.03866  Biso   1.000  O
  H18      1.0000 0.66918  0.81085  0.06489  Biso   1.000  H
  H19      1.0000 0.63857  0.17273  0.80139  Biso   1.000  H
  C21      1.0000 0.64758  0.97339  0.77720  Biso   1.000  C
  C22      1.0000 0.61085  0.17844  0.69248  Biso   1.000  C
  O15      1.0000 0.65969  0.75783  0.84260  Biso   1.000  O
  H20      1.0000 0.66946  0.94218  0.88418  Biso   1.000  H
  O16      1.0000 0.79819  0.48730  0.20526  Biso   1.000  O
  H21      1.0000 0.78827  0.62394  0.26656  Biso   1.000  H
  H22      1.0000 0.63279  0.91639  0.73379  Biso   1.000  H
  O17      1.0000 0.70179  0.01275  0.79471  Biso   1.000  O
  O18      1.0000 0.70174  0.01275  0.79466  Biso   1.000  O
  H23      1.0000 0.59179  0.26379  0.68617  Biso   1.000  H
  O19      1.0000 0.58158  0.09167  0.63236  Biso   1.000  O
  H24      1.0000 0.59175  0.26379  0.68617  Biso   1.000  H
  H25      1.0000 0.64576  0.19843  0.69549  Biso   1.000  H
  C23      1.0000 0.85237  0.52656  0.22277  Biso   1.000  C
  C24      1.0000 0.73376  0.92077  0.77957  Biso   1.000  C
  C25      1.0000 0.85488  0.60222  0.16109  Biso   1.000  C
  C26      1.0000 0.88197  0.38921  0.23866  Biso   1.000  C
  H26      1.0000 0.86720  0.58356  0.26618  Biso   1.000  H
  O20      1.0000 0.75735  0.81941  0.83387  Biso   1.000  O
  H27      1.0000 0.71166  0.87611  0.73336  Biso   1.000  H
  C27      1.0000 0.77647  0.00704  0.77252  Biso   1.000  C
  C28      1.0000 0.77645  0.00704  0.77246  Biso   1.000  C
  C29      1.0000 0.91119  0.60100  0.16750  Biso   1.000  C
  O21      1.0000 0.84030  0.74222  0.15738  Biso   1.000  O
  H28      1.0000 0.83049  0.55776  0.11579  Biso   1.000  H
  C30      1.0000 0.91117  0.60100  0.16745  Biso   1.000  C
  O22      1.0000 0.93459  0.40400  0.24388  Biso   1.000  O
  C31      1.0000 0.88910  0.32161  0.30750  Biso   1.000  C
  H29      1.0000 0.86138  0.32732  0.19858  Biso   1.000  H
  C32      1.0000 0.88908  0.32161  0.30744  Biso   1.000  C
  C33      1.0000 0.79210  0.87305  0.90411  Biso   1.000  C
  C34      1.0000 0.79204  0.87305  0.90405  Biso   1.000  C
  C35      1.0000 0.81396  0.06995  0.84540  Biso   1.000  C
  O23      1.0000 0.80757  0.92495  0.74936  Biso   1.000  O
  H30      1.0000 0.75906  0.07994  0.73740  Biso   1.000  H
  C36      1.0000 0.93370  0.45722  0.18059  Biso   1.000  C
  O24      1.0000 0.94560  0.68410  0.22718  Biso   1.000  O
  H31      1.0000 0.91030  0.63689  0.12307  Biso   1.000  H
  O25      1.0000 0.91839  0.40828  0.36755  Biso   1.000  O
  H32      1.0000 0.85419  0.30162  0.30448  Biso   1.000  H
  O26      1.0000 0.91836  0.40828  0.36755  Biso   1.000  O
  H33      1.0000 0.90818  0.23616  0.31374  Biso   1.000  H
  C37      1.0000 0.83706  0.95901  0.90287  Biso   1.000  C
  C38      1.0000 0.81336  0.75161  0.95388  Biso   1.000  C
  H34      1.0000 0.77088  0.93005  0.92021  Biso   1.000  H
  H35      1.0000 0.77086  0.93005  0.92016  Biso   1.000  H
  H36      1.0000 0.79347  0.13439  0.85919  Biso   1.000  H
  O27      1.0000 0.85399  0.14276  0.83538  Biso   1.000  O
  O28      1.0000 0.85395  0.14276  0.83538  Biso   1.000  O
  O29      1.0000 0.90108  0.37749  0.11956  Biso   1.000  O
  H37      1.0000 0.97030  0.45926  0.18598  Biso   1.000  H
  O30      1.0000 0.86337  0.01489  0.97467  Biso   1.000  O
  H38      1.0000 0.86197  0.90109  0.89398  Biso   1.000  H
  O31      1.0000 0.77139  0.68186  0.96131  Biso   1.000  O
  H39      1.0000 0.83077  0.68910  0.93508  Biso   1.000  H
  O32      1.0000 0.77134  0.68186  0.96126  Biso   1.000  O
  H40      1.0000 0.84002  0.78220  0.00101  Biso   1.000  H
  H41      1.0000 0.83997  0.78220  0.00096  Biso   1.000  H
  C39      1.0000 0.92778  0.27929  0.09597  Biso   1.000  C
  C40      1.0000 0.91729  0.05435  0.00079  Biso   1.000  C
  C41      1.0000 0.89881  0.28684  0.01410  Biso   1.000  C
  C42      1.0000 0.92290  0.13490  0.11800  Biso   1.000  C
  C43      1.0000 0.92288  0.13490  0.11795  Biso   1.000  C
  H42      1.0000 0.96561  0.30386  0.11391  Biso   1.000  H
  H43      1.0000 0.96559  0.30386  0.11385  Biso   1.000  H
  O33      1.0000 0.92146  0.19231  0.98307  Biso   1.000  O
  H44      1.0000 0.93446  0.99551  0.97930  Biso   1.000  H
  H45      1.0000 0.93445  0.99551  0.97925  Biso   1.000  H
  C44      1.0000 0.94550  0.03610  0.08186  Biso   1.000  C
  H46      1.0000 0.86107  0.26267  0.99778  Biso   1.000  H
  C45      1.0000 0.90104  0.42500  0.98415  Biso   1.000  C
  O34      1.0000 0.94908  0.11940  0.19427  Biso   1.000  O
  H47      1.0000 0.88472  0.11441  0.10050  Biso   1.000  H
  H48      1.0000 0.88468  0.11441  0.10050  Biso   1.000  H
  H49      1.0000 0.94132  0.94198  0.09430  Biso   1.000  H
  H50      1.0000 0.94127  0.94198  0.09425  Biso   1.000  H
  O35      1.0000 0.00068  0.06363  0.10308  Biso   1.000  O
  O36      1.0000 0.86277  0.42714  0.90960  Biso   1.000  O
  H51      1.0000 0.93677  0.44183  0.98948  Biso   1.000  H
  H52      1.0000 0.89269  0.49536  0.01017  Biso   1.000  H
  O37      1.0000 0.44907  0.38065  0.69431  Biso   1.000  O
  C46      1.0000 0.42287  0.36515  0.61798  Biso   1.000  C
  C47      1.0000 0.44548  0.46385  0.58189  Biso   1.000  C
  C48      1.0000 0.42777  0.22066  0.59601  Biso   1.000  C
  H53      1.0000 0.38466  0.38564  0.60048  Biso   1.000  H
  C49      1.0000 0.41726  0.44570  0.50077  Biso   1.000  C
  O38      1.0000 0.50065  0.43642  0.60306  Biso   1.000  O
  H54      1.0000 0.44126  0.55797  0.59428  Biso   1.000  H
  C50      1.0000 0.39878  0.21322  0.51408  Biso   1.000  C
  O39      1.0000 0.40107  0.12246  0.61960  Biso   1.000  O
  H55      1.0000 0.46558  0.19608  0.61389  Biso   1.000  H
  O40      1.0000 0.36340  0.48506  0.47470  Biso   1.000  O
  O41      1.0000 0.42149  0.30774  0.48311  Biso   1.000  O
  H56      1.0000 0.43447  0.50454  0.47928  Biso   1.000  H
  C51      1.0000 0.40107  0.07505  0.48418  Biso   1.000  C
  H57      1.0000 0.36109  0.23728  0.49781  Biso   1.000  H
  C52      1.0000 0.43367  0.04283  0.68057  Biso   1.000  C
  C53      1.0000 0.33708  0.54104  0.40290  Biso   1.000  C
  O42      1.0000 0.36277  0.07291  0.40958  Biso   1.000  O
  H58      1.0000 0.39268  0.00459  0.51020  Biso   1.000  H
  H59      1.0000 0.43678  0.05822  0.48946  Biso   1.000  H
  O43      1.0000 0.43456  0.09595  0.74386  Biso   1.000  O
  H60      1.0000 0.47027  0.04069  0.68596  Biso   1.000  H
  C54      1.0000 0.41116  0.89895  0.66748  Biso   1.000  C
  C55      1.0000 0.31397  0.43000  0.34538  Biso   1.000  C
  C56      1.0000 0.29207  0.62700  0.40409  Biso   1.000  C
  H61      1.0000 0.36199  0.59886  0.39402  Biso   1.000  H
  C57      1.0000 0.38196  0.11084  0.73869  Biso   1.000  C
  O44      1.0000 0.44557  0.81595  0.72716  Biso   1.000  O
  C58      1.0000 0.35485  0.89783  0.66107  Biso   1.000  C
  H62      1.0000 0.41029  0.86306  0.62310  Biso   1.000  H
  C59      1.0000 0.27648  0.49302  0.27250  Biso   1.000  C
  O45      1.0000 0.35398  0.35719  0.33541  Biso   1.000  O
  H63      1.0000 0.29347  0.36556  0.35917  Biso   1.000  H
  O46      1.0000 0.25738  0.68064  0.33390  Biso   1.000  O
  C60      1.0000 0.31339  0.74844  0.45391  Biso   1.000  C
  H64      1.0000 0.27089  0.56990  0.42019  Biso   1.000  H
  C61      1.0000 0.38907  0.17844  0.80748  Biso   1.000  C
  H65      1.0000 0.36135  0.17273  0.69856  Biso   1.000  H
  C62      1.0000 0.35236  0.97339  0.72280  Biso   1.000  C
  O47      1.0000 0.34028  0.75783  0.65736  Biso   1.000  O
  H66      1.0000 0.33046  0.94218  0.61577  Biso   1.000  H
  C63      1.0000 0.23379  0.57918  0.27961  Biso   1.000  C
  O48      1.0000 0.30760  0.57500  0.24939  Biso   1.000  O
  H67      1.0000 0.25907  0.42011  0.23738  Biso   1.000  H
  O49      1.0000 0.27136  0.81809  0.46129  Biso   1.000  O
  H68      1.0000 0.33080  0.81085  0.43511  Biso   1.000  H
  H69      1.0000 0.33999  0.71775  0.50099  Biso   1.000  H
  O50      1.0000 0.41838  0.09167  0.86759  Biso   1.000  O
  H70      1.0000 0.40817  0.26379  0.81378  Biso   1.000  H
  H71      1.0000 0.35416  0.19843  0.80446  Biso   1.000  H
  O51      1.0000 0.29818  0.01275  0.70530  Biso   1.000  O
  H72      1.0000 0.36717  0.91639  0.76616  Biso   1.000  H
  O52      1.0000 0.20180  0.48730  0.29469  Biso   1.000  O
  H73      1.0000 0.21169  0.62394  0.23339  Biso   1.000  H
  C64      1.0000 0.26616  0.92077  0.72038  Biso   1.000  C
  C65      1.0000 0.14759  0.52656  0.27718  Biso   1.000  C
  C66      1.0000 0.22347  0.00704  0.72749  Biso   1.000  C
  O53      1.0000 0.24257  0.81941  0.66608  Biso   1.000  O
  H74      1.0000 0.28826  0.87611  0.76659  Biso   1.000  H
  C67      1.0000 0.14510  0.60222  0.33891  Biso   1.000  C
  C68      1.0000 0.11799  0.38921  0.26129  Biso   1.000  C
  H75      1.0000 0.13280  0.58356  0.23377  Biso   1.000  H
  C69      1.0000 0.18596  0.06995  0.65456  Biso   1.000  C
  H76      1.0000 0.24086  0.07994  0.76255  Biso   1.000  H
  O54      1.0000 0.19239  0.92495  0.75060  Biso   1.000  O
  C70      1.0000 0.20788  0.87305  0.59590  Biso   1.000  C
  C71      1.0000 0.08879  0.60100  0.33250  Biso   1.000  C
  O55      1.0000 0.15969  0.74222  0.34258  Biso   1.000  O
  H77      1.0000 0.16949  0.55776  0.38421  Biso   1.000  H
  O56      1.0000 0.06537  0.40400  0.25607  Biso   1.000  O
  C72      1.0000 0.11091  0.32161  0.19251  Biso   1.000  C
  H78      1.0000 0.13858  0.32732  0.30137  Biso   1.000  H
  C73      1.0000 0.16287  0.95901  0.59708  Biso   1.000  C
  O57      1.0000 0.14597  0.14276  0.66457  Biso   1.000  O
  H79      1.0000 0.20646  0.13439  0.64077  Biso   1.000  H
  C74      1.0000 0.18656  0.75161  0.54607  Biso   1.000  C
  H80      1.0000 0.22906  0.93005  0.57979  Biso   1.000  H
  C75      1.0000 0.06628  0.45722  0.31941  Biso   1.000  C
  O58      1.0000 0.05439  0.68410  0.27277  Biso   1.000  O
  H81      1.0000 0.08970  0.63689  0.37689  Biso   1.000  H
  O59      1.0000 0.08160  0.40828  0.13240  Biso   1.000  O
  H82      1.0000 0.09178  0.23616  0.18621  Biso   1.000  H
  H83      1.0000 0.14577  0.30162  0.19547  Biso   1.000  H
  O60      1.0000 0.13659  0.01489  0.52528  Biso   1.000  O
  H84      1.0000 0.13796  0.90109  0.60597  Biso   1.000  H
  O61      1.0000 0.22859  0.68186  0.53869  Biso   1.000  O
  H85      1.0000 0.16915  0.68910  0.56487  Biso   1.000  H
  H86      1.0000 0.15999  0.78220  0.49900  Biso   1.000  H
  O62      1.0000 0.09888  0.37749  0.38039  Biso   1.000  O
  H87      1.0000 0.02969  0.45926  0.31397  Biso   1.000  H
  C76      1.0000 0.08269  0.05435  0.49921  Biso   1.000  C
  C77      1.0000 0.07218  0.27929  0.40398  Biso   1.000  C
  C78      1.0000 0.05447  0.03610  0.41809  Biso   1.000  C
  O63      1.0000 0.07846  0.19231  0.51688  Biso   1.000  O
  H88      1.0000 0.06548  0.99551  0.52070  Biso   1.000  H
  C79      1.0000 0.07708  0.13490  0.38200  Biso   1.000  C
  C80      1.0000 0.10117  0.28684  0.48591  Biso   1.000  C
  H89      1.0000 0.03437  0.30386  0.38610  Biso   1.000  H
  O64      1.0000 0.99928  0.06363  0.39687  Biso   1.000  O
  H90      1.0000 0.05869  0.94198  0.40570  Biso   1.000  H
  O65      1.0000 0.05088  0.11940  0.30568  Biso   1.000  O
  H91      1.0000 0.11530  0.11441  0.39951  Biso   1.000  H
  C81      1.0000 0.09888  0.42500  0.51580  Biso   1.000  C
  H92      1.0000 0.13886  0.26267  0.50217  Biso   1.000  H
  O66      1.0000 0.13718  0.42714  0.59040  Biso   1.000  O
  H93      1.0000 0.10727  0.49536  0.48979  Biso   1.000  H
  H94      1.0000 0.06319  0.44183  0.51047  Biso   1.000  H
  O67      1.0000 0.35397  0.64281  0.83538  Biso   1.000  O
  C82      1.0000 0.31398  0.57000  0.84540  Biso   1.000  C
  C83      1.0000 0.27649  0.50698  0.77252  Biso   1.000  C
  C84      1.0000 0.27647  0.50698  0.77246  Biso   1.000  C
  C85      1.0000 0.33708  0.45896  0.90287  Biso   1.000  C
  C86      1.0000 0.33704  0.45896  0.90287  Biso   1.000  C
  H95      1.0000 0.29348  0.63444  0.85919  Biso   1.000  H
  H96      1.0000 0.29345  0.63444  0.85919  Biso   1.000  H
  C87      1.0000 0.23378  0.42082  0.77957  Biso   1.000  C
  H97      1.0000 0.25908  0.57989  0.73740  Biso   1.000  H
  O68      1.0000 0.30755  0.42500  0.74936  Biso   1.000  O
  C88      1.0000 0.29208  0.37300  0.90411  Biso   1.000  C
  C89      1.0000 0.29206  0.37300  0.90405  Biso   1.000  C
  O69      1.0000 0.36335  0.51494  0.97467  Biso   1.000  O
  H98      1.0000 0.36195  0.40114  0.89398  Biso   1.000  H
  O70      1.0000 0.25737  0.31936  0.83387  Biso   1.000  O
  H99      1.0000 0.21170  0.37606  0.73341  Biso   1.000  H
  O71      1.0000 0.20176  0.51270  0.79466  Biso   1.000  O
  H100     1.0000 0.21165  0.37606  0.73336  Biso   1.000  H
  C90      1.0000 0.31338  0.25156  0.95388  Biso   1.000  C
  H101     1.0000 0.27086  0.43010  0.92021  Biso   1.000  H
  C91      1.0000 0.31335  0.25156  0.95388  Biso   1.000  C
  H102     1.0000 0.27085  0.43010  0.92016  Biso   1.000  H
  C92      1.0000 0.41731  0.55430  0.00079  Biso   1.000  C
  C93      1.0000 0.14760  0.47344  0.77720  Biso   1.000  C
  C94      1.0000 0.14756  0.47344  0.77720  Biso   1.000  C
  H103     1.0000 0.33075  0.18915  0.93508  Biso   1.000  H
  O72      1.0000 0.27137  0.18191  0.96131  Biso   1.000  O
  O73      1.0000 0.27136  0.18191  0.96126  Biso   1.000  O
  H104     1.0000 0.34000  0.28225  0.00101  Biso   1.000  H
  H105     1.0000 0.33999  0.28225  0.00096  Biso   1.000  H
  H106     1.0000 0.43448  0.49546  0.97930  Biso   1.000  H
  O74      1.0000 0.42144  0.69226  0.98307  Biso   1.000  O
  H107     1.0000 0.43446  0.49546  0.97925  Biso   1.000  H
  C95      1.0000 0.44548  0.53615  0.08186  Biso   1.000  C
  H108     1.0000 0.13277  0.41644  0.73379  Biso   1.000  H
  C96      1.0000 0.11800  0.61079  0.76131  Biso   1.000  C
  C97      1.0000 0.14505  0.39778  0.83888  Biso   1.000  C
  C98      1.0000 0.11795  0.61079  0.76126  Biso   1.000  C
  C99      1.0000 0.39879  0.78678  0.01410  Biso   1.000  C
  O75      1.0000 0.50070  0.56358  0.10308  Biso   1.000  O
  C100     1.0000 0.42292  0.63485  0.11800  Biso   1.000  C
  C101     1.0000 0.42286  0.63485  0.11795  Biso   1.000  C
  H109     1.0000 0.44129  0.44203  0.09425  Biso   1.000  H
  O76      1.0000 0.15967  0.25778  0.84260  Biso   1.000  O
  C102     1.0000 0.08878  0.39900  0.83247  Biso   1.000  C
  C103     1.0000 0.08875  0.39900  0.83247  Biso   1.000  C
  H110     1.0000 0.16945  0.44224  0.88418  Biso   1.000  H
  O77      1.0000 0.06538  0.59600  0.75609  Biso   1.000  O
  C104     1.0000 0.11087  0.67839  0.69248  Biso   1.000  C
  H111     1.0000 0.13855  0.67268  0.80139  Biso   1.000  H
  H112     1.0000 0.36105  0.76272  0.99778  Biso   1.000  H
  C105     1.0000 0.40106  0.92495  0.98415  Biso   1.000  C
  C106     1.0000 0.42780  0.77934  0.09597  Biso   1.000  C
  O78      1.0000 0.44910  0.61935  0.19427  Biso   1.000  O
  H113     1.0000 0.38470  0.61436  0.10050  Biso   1.000  H
  C107     1.0000 0.06627  0.54278  0.81938  Biso   1.000  C
  O79      1.0000 0.05437  0.31590  0.77279  Biso   1.000  O
  H114     1.0000 0.08967  0.36311  0.87691  Biso   1.000  H
  H115     1.0000 0.08966  0.36311  0.87685  Biso   1.000  H
  H116     1.0000 0.09177  0.76384  0.68617  Biso   1.000  H
  H117     1.0000 0.14578  0.69838  0.69549  Biso   1.000  H
  O80      1.0000 0.08156  0.59172  0.63236  Biso   1.000  O
  O81      1.0000 0.36279  0.92709  0.90960  Biso   1.000  O
  H118     1.0000 0.43676  0.94178  0.98948  Biso   1.000  H
  H119     1.0000 0.39271  0.99541  0.01017  Biso   1.000  H
  H120     1.0000 0.39267  0.99541  0.01017  Biso   1.000  H
  H121     1.0000 0.46559  0.80392  0.11391  Biso   1.000  H
  O82      1.0000 0.40109  0.87754  0.11956  Biso   1.000  O
  H122     1.0000 0.46557  0.80392  0.11385  Biso   1.000  H
  H123     1.0000 0.02967  0.54074  0.81399  Biso   1.000  H
  O83      1.0000 0.09890  0.62251  0.88041  Biso   1.000  O
  O84      1.0000 0.09884  0.62251  0.88035  Biso   1.000  O
  C108     1.0000 0.43371  0.95717  0.18059  Biso   1.000  C
  C109     1.0000 0.43368  0.95717  0.18059  Biso   1.000  C
  C110     1.0000 0.07219  0.72071  0.90400  Biso   1.000  C
  C111     1.0000 0.07215  0.72071  0.90400  Biso   1.000  C
  O85      1.0000 0.43461  0.90405  0.24388  Biso   1.000  O
  H124     1.0000 0.47028  0.95931  0.18598  Biso   1.000  H
  O86      1.0000 0.43457  0.90405  0.24388  Biso   1.000  O
  C112     1.0000 0.41121  0.10105  0.16750  Biso   1.000  C
  C113     1.0000 0.41119  0.10105  0.16745  Biso   1.000  C
  C114     1.0000 0.07707  0.86510  0.88197  Biso   1.000  C
  C115     1.0000 0.10116  0.71316  0.98587  Biso   1.000  C
  H125     1.0000 0.03436  0.69614  0.88606  Biso   1.000  H
  C116     1.0000 0.38199  0.88916  0.23866  Biso   1.000  C
  O87      1.0000 0.44559  0.18405  0.22718  Biso   1.000  O
  C117     1.0000 0.35490  0.10217  0.16109  Biso   1.000  C
  H126     1.0000 0.41028  0.13694  0.12307  Biso   1.000  H
  O88      1.0000 0.05089  0.88060  0.80570  Biso   1.000  O
  H127     1.0000 0.11525  0.88559  0.89948  Biso   1.000  H
  C118     1.0000 0.05448  0.96390  0.91811  Biso   1.000  C
  C119     1.0000 0.05446  0.96390  0.91806  Biso   1.000  C
  O89      1.0000 0.07851  0.80769  0.01690  Biso   1.000  O
  H128     1.0000 0.13891  0.73733  0.00219  Biso   1.000  H
  C120     1.0000 0.09887  0.57500  0.01577  Biso   1.000  C
  C121     1.0000 0.38908  0.82156  0.30750  Biso   1.000  C
  H129     1.0000 0.36140  0.82727  0.19858  Biso   1.000  H
  C122     1.0000 0.38907  0.82156  0.30744  Biso   1.000  C
  C123     1.0000 0.35239  0.02661  0.22277  Biso   1.000  C
  O90      1.0000 0.34029  0.24217  0.15738  Biso   1.000  O
  H130     1.0000 0.33051  0.05782  0.11579  Biso   1.000  H
  O91      1.0000 0.99925  0.93637  0.89689  Biso   1.000  O
  C124     1.0000 0.08268  0.94565  0.99918  Biso   1.000  C
  C125     1.0000 0.08264  0.94565  0.99918  Biso   1.000  C
  H131     1.0000 0.05865  0.05802  0.90567  Biso   1.000  H
  H132     1.0000 0.10728  0.50464  0.98981  Biso   1.000  H
  H133     1.0000 0.10726  0.50464  0.98975  Biso   1.000  H
  O92      1.0000 0.13720  0.57286  0.09037  Biso   1.000  O
  H134     1.0000 0.06320  0.55817  0.01049  Biso   1.000  H
  O93      1.0000 0.41838  0.90833  0.36755  Biso   1.000  O
  H135     1.0000 0.35417  0.80157  0.30448  Biso   1.000  H
  H136     1.0000 0.40816  0.73621  0.31374  Biso   1.000  H
  O94      1.0000 0.29818  0.98725  0.20526  Biso   1.000  O
  H137     1.0000 0.36718  0.08361  0.26618  Biso   1.000  H
  O95      1.0000 0.13660  0.98511  0.02530  Biso   1.000  O
  O96      1.0000 0.13658  0.98511  0.02525  Biso   1.000  O
  H138     1.0000 0.06551  0.00449  0.02067  Biso   1.000  H
  C126     1.0000 0.26621  0.07923  0.22040  Biso   1.000  C
  C127     1.0000 0.26619  0.07923  0.22034  Biso   1.000  C
  C128     1.0000 0.16289  0.04099  0.09705  Biso   1.000  C
  C129     1.0000 0.22347  0.99296  0.22745  Biso   1.000  C
  O97      1.0000 0.24262  0.18059  0.16610  Biso   1.000  O
  O98      1.0000 0.24257  0.18059  0.16605  Biso   1.000  O
  H139     1.0000 0.28829  0.12389  0.26656  Biso   1.000  H
  C130     1.0000 0.18601  0.93005  0.15458  Biso   1.000  C
  C131     1.0000 0.18597  0.93005  0.15458  Biso   1.000  C
  C132     1.0000 0.20788  0.12695  0.09586  Biso   1.000  C
  H140     1.0000 0.13800  0.09891  0.10599  Biso   1.000  H
  H141     1.0000 0.24087  0.92006  0.26257  Biso   1.000  H
  O99      1.0000 0.19238  0.07505  0.25056  Biso   1.000  O
  O100     1.0000 0.14598  0.85724  0.16459  Biso   1.000  O
  H142     1.0000 0.20651  0.86561  0.14079  Biso   1.000  H
  C133     1.0000 0.18661  0.24839  0.04609  Biso   1.000  C
  H143     1.0000 0.22909  0.06995  0.07976  Biso   1.000  H
  H144     1.0000 0.15995  0.21780  0.99896  Biso   1.000  H
  O101     1.0000 0.22858  0.31814  0.03866  Biso   1.000  O
  H145     1.0000 0.16920  0.31090  0.06489  Biso   1.000  H
  O102     1.0000 0.69237  0.42500  0.75060  Biso   1.000  O
  C134     1.0000 0.72346  0.50698  0.72749  Biso   1.000  C
  C135     1.0000 0.68598  0.57000  0.65456  Biso   1.000  C
  C136     1.0000 0.76618  0.42082  0.72038  Biso   1.000  C
  H146     1.0000 0.74085  0.57989  0.76255  Biso   1.000  H
  C137     1.0000 0.66288  0.45896  0.59708  Biso   1.000  C
  O103     1.0000 0.64595  0.64281  0.66457  Biso   1.000  O
  H147     1.0000 0.70648  0.63444  0.64077  Biso   1.000  H
  O104     1.0000 0.74256  0.31936  0.66608  Biso   1.000  O
  O105     1.0000 0.79817  0.51270  0.70530  Biso   1.000  O
  H148     1.0000 0.78828  0.37606  0.76659  Biso   1.000  H
  O106     1.0000 0.63657  0.51494  0.52528  Biso   1.000  O
  C138     1.0000 0.70787  0.37300  0.59590  Biso   1.000  C
  H149     1.0000 0.63797  0.40114  0.60597  Biso   1.000  H
  C139     1.0000 0.85238  0.47344  0.72280  Biso   1.000  C
  C140     1.0000 0.58270  0.55430  0.49921  Biso   1.000  C
  C141     1.0000 0.68658  0.25156  0.54607  Biso   1.000  C
  H150     1.0000 0.72908  0.43010  0.57979  Biso   1.000  H
  C142     1.0000 0.85487  0.39778  0.66107  Biso   1.000  C
  C143     1.0000 0.88198  0.61079  0.73869  Biso   1.000  C
  H151     1.0000 0.86715  0.41644  0.76616  Biso   1.000  H
  C144     1.0000 0.55448  0.53615  0.41809  Biso   1.000  C
  O107     1.0000 0.57848  0.69226  0.51688  Biso   1.000  O
  H152     1.0000 0.56550  0.49546  0.52070  Biso   1.000  H
  O108     1.0000 0.72857  0.18191  0.53869  Biso   1.000  O
  H153     1.0000 0.66917  0.18915  0.56487  Biso   1.000  H
  H154     1.0000 0.65997  0.28225  0.49900  Biso   1.000  H
  C145     1.0000 0.91118  0.39900  0.66748  Biso   1.000  C
  O109     1.0000 0.84026  0.25778  0.65736  Biso   1.000  O
  H155     1.0000 0.83048  0.44224  0.61577  Biso   1.000  H
  O110     1.0000 0.93454  0.59600  0.74386  Biso   1.000  O
  C146     1.0000 0.88905  0.67839  0.80748  Biso   1.000  C
  H156     1.0000 0.86137  0.67268  0.69856  Biso   1.000  H
  O111     1.0000 0.49926  0.56358  0.39687  Biso   1.000  O
  C147     1.0000 0.57710  0.63485  0.38200  Biso   1.000  C
  H157     1.0000 0.55867  0.44203  0.40570  Biso   1.000  H
  C148     1.0000 0.60119  0.78678  0.48591  Biso   1.000  C
  C149     1.0000 0.93365  0.54278  0.68057  Biso   1.000  C
  O112     1.0000 0.94556  0.31590  0.72716  Biso   1.000  O
  H158     1.0000 0.91027  0.36311  0.62310  Biso   1.000  H
  O113     1.0000 0.91837  0.59172  0.86759  Biso   1.000  O
  H159     1.0000 0.90815  0.76384  0.81378  Biso   1.000  H
  H160     1.0000 0.85415  0.69838  0.80446  Biso   1.000  H
  O114     1.0000 0.55089  0.61935  0.30568  Biso   1.000  O
  C150     1.0000 0.57219  0.77934  0.40398  Biso   1.000  C
  H161     1.0000 0.61528  0.61436  0.39951  Biso   1.000  H
  C151     1.0000 0.59890  0.92495  0.51580  Biso   1.000  C
  H162     1.0000 0.63888  0.76272  0.50217  Biso   1.000  H
  O115     1.0000 0.90108  0.62251  0.61960  Biso   1.000  O
  H163     1.0000 0.97026  0.54074  0.68596  Biso   1.000  H
  H164     1.0000 0.53439  0.80392  0.38610  Biso   1.000  H
  O116     1.0000 0.59887  0.87754  0.38039  Biso   1.000  O
  O117     1.0000 0.63719  0.92709  0.59040  Biso   1.000  O
  H165     1.0000 0.60729  0.99541  0.48979  Biso   1.000  H
  H166     1.0000 0.56317  0.94178  0.51047  Biso   1.000  H
  C152     1.0000 0.92779  0.72071  0.59601  Biso   1.000  C
  C153     1.0000 0.56630  0.95717  0.31941  Biso   1.000  C
  C154     1.0000 0.92289  0.86510  0.61798  Biso   1.000  C
  C155     1.0000 0.89876  0.71316  0.51408  Biso   1.000  C
  H167     1.0000 0.96556  0.69614  0.61389  Biso   1.000  H
  O118     1.0000 0.56539  0.90405  0.25607  Biso   1.000  O
  H168     1.0000 0.52968  0.95931  0.31397  Biso   1.000  H
  C156     1.0000 0.58881  0.10105  0.33250  Biso   1.000  C
  C157     1.0000 0.94547  0.96390  0.58189  Biso   1.000  C
  O119     1.0000 0.94909  0.88060  0.69431  Biso   1.000  O
  H169     1.0000 0.88467  0.88559  0.60048  Biso   1.000  H
  O120     1.0000 0.92150  0.80769  0.48311  Biso   1.000  O
  C158     1.0000 0.90109  0.57500  0.48418  Biso   1.000  C
  H170     1.0000 0.86107  0.73733  0.49781  Biso   1.000  H
  C159     1.0000 0.61797  0.88916  0.26129  Biso   1.000  C
  O121     1.0000 0.55437  0.18405  0.27277  Biso   1.000  O
  C160     1.0000 0.64508  0.10217  0.33891  Biso   1.000  C
  H171     1.0000 0.58968  0.13694  0.37689  Biso   1.000  H
  C161     1.0000 0.91728  0.94565  0.50077  Biso   1.000  C
  H172     1.0000 0.94128  0.05802  0.59428  Biso   1.000  H
  O122     1.0000 0.00067  0.93637  0.60306  Biso   1.000  O
  O123     1.0000 0.86279  0.57286  0.40958  Biso   1.000  O
  H173     1.0000 0.89270  0.50464  0.51020  Biso   1.000  H
  H174     1.0000 0.93676  0.55817  0.48946  Biso   1.000  H
  C162     1.0000 0.61090  0.82156  0.19251  Biso   1.000  C
  H175     1.0000 0.63860  0.82727  0.30137  Biso   1.000  H
  C163     1.0000 0.64757  0.02661  0.27718  Biso   1.000  C
  O124     1.0000 0.65967  0.24217  0.34258  Biso   1.000  O
  H176     1.0000 0.66951  0.05782  0.38421  Biso   1.000  H
  O125     1.0000 0.86338  0.98511  0.47470  Biso   1.000  O
  H177     1.0000 0.93449  0.00449  0.47928  Biso   1.000  H
  O126     1.0000 0.58158  0.90833  0.13240  Biso   1.000  O
  H178     1.0000 0.59180  0.73621  0.18621  Biso   1.000  H
  H179     1.0000 0.64579  0.80157  0.19547  Biso   1.000  H
  O127     1.0000 0.70178  0.98725  0.29469  Biso   1.000  O
  H180     1.0000 0.63278  0.08361  0.23377  Biso   1.000  H
  C164     1.0000 0.83710  0.04099  0.40290  Biso   1.000  C
  C165     1.0000 0.73381  0.07923  0.27961  Biso   1.000  C
  C166     1.0000 0.81399  0.93005  0.34538  Biso   1.000  C
  C167     1.0000 0.79208  0.12695  0.40409  Biso   1.000  C
  H181     1.0000 0.86198  0.09891  0.39402  Biso   1.000  H
  C168     1.0000 0.77649  0.99296  0.27250  Biso   1.000  C
  O128     1.0000 0.75739  0.18059  0.33390  Biso   1.000  O
  H182     1.0000 0.71171  0.12389  0.23339  Biso   1.000  H
  O129     1.0000 0.85400  0.85724  0.33541  Biso   1.000  O
  H183     1.0000 0.79349  0.86561  0.35917  Biso   1.000  H
  C169     1.0000 0.81337  0.24839  0.45391  Biso   1.000  C
  H184     1.0000 0.77087  0.06995  0.42019  Biso   1.000  H
  H185     1.0000 0.75909  0.92006  0.23738  Biso   1.000  H
  O130     1.0000 0.80758  0.07505  0.24939  Biso   1.000  O
  O131     1.0000 0.77138  0.31814  0.46129  Biso   1.000  O
  H186     1.0000 0.83078  0.31090  0.43511  Biso   1.000  H
  H187     1.0000 0.83998  0.21780  0.50099  Biso   1.000  H
  Ne1      1.0000 0.24998  0.25000  0.49999  Biso   1.000  Ne
  He1      1.0000 0.26415  0.25533  0.54056  Biso   1.000  He
  He2      1.0000 0.24822  0.18375  0.49758  Biso   1.000  He
  Ar1      1.0000 0.24997  0.25000  0.49999  Biso   1.000  Ar
  Ne2      1.0000 0.74998  0.75000  0.49999  Biso   1.000  Ne
  He3      1.0000 0.76417  0.75524  0.54062  Biso   1.000  He
  He4      1.0000 0.74822  0.68379  0.49759  Biso   1.000  He
  Ar2      1.0000 0.74997  0.75000  0.49999  Biso   1.000  Ar
  Ne3      1.0000 0.75266  0.24754  0.00333  Biso   1.000  Ne
  He5      1.0000 0.75610  0.13782  0.02930  Biso   1.000  He
  He6      1.0000 0.74390  0.42937  0.94588  Biso   1.000  He
  Ar3      1.0000 0.75344  0.17964  0.00707  Biso   1.000  Ar
  Ne4      1.0000 0.24837  0.74258  0.00192  Biso   1.000  Ne
  He7      1.0000 0.26064  0.70265  0.02875  Biso   1.000  He
  He8      1.0000 0.23478  0.76325  0.95560  Biso   1.000  He
  Ar4      1.0000 0.25075  0.74269  0.00192  Biso   1.000  Ar
