data_image0
_cell_length_a       11.702
_cell_length_b       12.664
_cell_length_c       15.614
_cell_angle_alpha    100.78
_cell_angle_beta     104.58
_cell_angle_gamma    106.85

_symmetry_space_group_name_H-M    "P 1"
_symmetry_int_tables_number       1

loop_
  _symmetry_equiv_pos_as_xyz
  'x, y, z'

loop_
  _atom_site_label
  _atom_site_occupancy
  _atom_site_fract_x
  _atom_site_fract_y
  _atom_site_fract_z
  _atom_site_thermal_displace_type
  _atom_site_B_iso_or_equiv
  _atom_site_type_symbol
  C1       1.0000 0.38127  0.56663  0.56903  Biso   1.000  C
  C2       1.0000 0.39028  0.61443  0.49650  Biso   1.000  C
  C3       1.0000 0.35580  0.61905  0.64549  Biso   1.000  C
  H1       1.0000 0.39290  0.49509  0.56641  Biso   1.000  H
  C4       1.0000 0.37419  0.71983  0.50181  Biso   1.000  C
  H2       1.0000 0.40687  0.57638  0.44506  Biso   1.000  H
  C5       1.0000 0.33427  0.72289  0.64749  Biso   1.000  C
  C6       1.0000 0.35739  0.56415  0.72389  Biso   1.000  C
  O1       1.0000 0.38393  0.78151  0.43782  Biso   1.000  O
  C7       1.0000 0.34493  0.77155  0.57579  Biso   1.000  C
  C8       1.0000 0.29795  0.78575  0.72361  Biso   1.000  C
  C9       1.0000 0.48960  0.60364  0.79311  Biso   1.000  C
  H3       1.0000 0.30010  0.58412  0.75574  Biso   1.000  H
  H4       1.0000 0.32549  0.47947  0.69859  Biso   1.000  H
  C10      1.0000 0.42234  0.74188  0.36301  Biso   1.000  C
  H5       1.0000 0.33184  0.84237  0.57751  Biso   1.000  H
  C11      1.0000 0.40893  0.88627  0.79325  Biso   1.000  C
  H6       1.0000 0.26235  0.73081  0.75595  Biso   1.000  H
  H7       1.0000 0.23139  0.81427  0.69548  Biso   1.000  H
  C12      1.0000 0.53651  0.69528  0.87392  Biso   1.000  C
  C13      1.0000 0.56747  0.54437  0.77298  Biso   1.000  C
  O2       1.0000 0.54102  0.72904  0.38997  Biso   1.000  O
  H8       1.0000 0.35811  0.66685  0.32378  Biso   1.000  H
  H9       1.0000 0.42600  0.79667  0.32530  Biso   1.000  H
  C14      1.0000 0.48578  0.87669  0.87454  Biso   1.000  C
  C15      1.0000 0.43961  0.99286  0.77436  Biso   1.000  C
  C16      1.0000 0.66042  0.72280  0.93039  Biso   1.000  C
  C17      1.0000 0.46025  0.76575  0.90316  Biso   1.000  C
  C18      1.0000 0.69003  0.57407  0.83028  Biso   1.000  C
  H10      1.0000 0.53562  0.48195  0.71865  Biso   1.000  H
  C19      1.0000 0.64534  0.82379  0.44568  Biso   1.000  C
  C20      1.0000 0.59085  0.97150  0.93115  Biso   1.000  C
  H11      1.0000 0.38562  0.00133  0.72148  Biso   1.000  H
  C21      1.0000 0.54573  0.08634  0.83000  Biso   1.000  C
  H12      1.0000 0.69283  0.78444  0.98534  Biso   1.000  H
  C22      1.0000 0.73877  0.66477  0.91026  Biso   1.000  C
  H13      1.0000 0.36922  0.71895  0.87530  Biso   1.000  H
  H14      1.0000 0.48109  0.78481  0.97107  Biso   1.000  H
  O3       1.0000 0.75552  0.50758  0.80035  Biso   1.000  O
  C23      1.0000 0.75596  0.80193  0.47588  Biso   1.000  C
  C24      1.0000 0.64520  0.93479  0.47312  Biso   1.000  C
  H15      1.0000 0.64188  0.96576  0.98665  Biso   1.000  H
  C25      1.0000 0.62284  0.07429  0.90826  Biso   1.000  C
  H16      1.0000 0.56542  0.15737  0.81490  Biso   1.000  H
  H17      1.0000 0.82297  0.68634  0.94997  Biso   1.000  H
  C26      1.0000 0.88321  0.53309  0.85013  Biso   1.000  C
  H18      1.0000 0.75606  0.72666  0.45437  Biso   1.000  H
  C27      1.0000 0.86721  0.88761  0.53704  Biso   1.000  C
  H19      1.0000 0.57073  0.95157  0.45175  Biso   1.000  H
  C28      1.0000 0.75641  0.02020  0.53235  Biso   1.000  C
  O4       1.0000 0.73355  0.15942  0.96879  Biso   1.000  O
  O5       1.0000 0.96197  0.64759  0.86496  Biso   1.000  O
  H20      1.0000 0.88850  0.51780  0.91067  Biso   1.000  H
  H21      1.0000 0.91551  0.48042  0.81635  Biso   1.000  H
  C29      1.0000 0.86742  0.99979  0.56669  Biso   1.000  C
  C30      1.0000 0.98121  0.85396  0.57151  Biso   1.000  C
  H22      1.0000 0.75678  0.09638  0.55035  Biso   1.000  H
  C31      1.0000 0.78106  0.26121  0.94446  Biso   1.000  C
  C32      1.0000 0.96275  0.69172  0.78994  Biso   1.000  C
  C33      1.0000 0.98054  0.09735  0.63681  Biso   1.000  C
  C34      1.0000 0.97768  0.80265  0.65191  Biso   1.000  C
  H23      1.0000 0.98510  0.79726  0.52028  Biso   1.000  H
  H24      1.0000 0.05879  0.92273  0.59096  Biso   1.000  H
  O6       1.0000 0.80388  0.24319  0.85903  Biso   1.000  O
  H25      1.0000 0.71999  0.30177  0.94177  Biso   1.000  H
  H26      1.0000 0.86098  0.31203  0.99348  Biso   1.000  H
  C35      1.0000 0.89839  0.62898  0.69838  Biso   1.000  C
  C36      1.0000 0.03342  0.80767  0.81242  Biso   1.000  C
  H27      1.0000 0.98471  0.16991  0.62040  Biso   1.000  H
  C37      1.0000 0.97419  0.11091  0.73423  Biso   1.000  C
  H28      1.0000 0.05862  0.08266  0.63467  Biso   1.000  H
  C38      1.0000 0.90771  0.68599  0.63143  Biso   1.000  C
  C39      1.0000 0.04120  0.86536  0.74506  Biso   1.000  C
  C40      1.0000 0.88538  0.18630  0.84593  Biso   1.000  C
  H29      1.0000 0.84946  0.54947  0.68218  Biso   1.000  H
  H30      1.0000 0.07768  0.84892  0.87537  Biso   1.000  H
  C41      1.0000 0.89934  0.17056  0.75947  Biso   1.000  C
  C42      1.0000 0.03799  0.06522  0.79842  Biso   1.000  C
  H31      1.0000 0.86435  0.64369  0.56855  Biso   1.000  H
  C43      1.0000 0.11683  0.99365  0.77663  Biso   1.000  C
  C44      1.0000 0.95084  0.14485  0.91136  Biso   1.000  C
  H32      1.0000 0.85654  0.20145  0.71617  Biso   1.000  H
  C45      1.0000 0.02551  0.08525  0.88606  Biso   1.000  C
  H33      1.0000 0.18985  0.01073  0.83228  Biso   1.000  H
  H34      1.0000 0.15016  0.01555  0.72768  Biso   1.000  H
  H35      1.0000 0.94459  0.15705  0.97169  Biso   1.000  H
  H36      1.0000 0.07013  0.05681  0.93046  Biso   1.000  H
  C46      1.0000 0.60970  0.38544  0.50346  Biso   1.000  C
  C47      1.0000 0.61871  0.43324  0.43093  Biso   1.000  C
  C48      1.0000 0.62579  0.28003  0.49815  Biso   1.000  C
  H37      1.0000 0.59314  0.42357  0.55490  Biso   1.000  H
  C49      1.0000 0.64412  0.38090  0.35446  Biso   1.000  C
  H38      1.0000 0.60714  0.50488  0.43362  Biso   1.000  H
  C50      1.0000 0.65507  0.22840  0.42417  Biso   1.000  C
  O7       1.0000 0.61599  0.21844  0.56214  Biso   1.000  O
  C51      1.0000 0.64261  0.43580  0.27607  Biso   1.000  C
  C52      1.0000 0.66565  0.27706  0.35246  Biso   1.000  C
  H39      1.0000 0.66820  0.15761  0.42252  Biso   1.000  H
  C53      1.0000 0.57756  0.25798  0.63695  Biso   1.000  C
  C54      1.0000 0.51038  0.39623  0.20685  Biso   1.000  C
  H40      1.0000 0.69991  0.41583  0.24422  Biso   1.000  H
  H41      1.0000 0.67452  0.52048  0.30137  Biso   1.000  H
  C55      1.0000 0.70197  0.21420  0.27635  Biso   1.000  C
  O8       1.0000 0.45899  0.27091  0.60999  Biso   1.000  O
  H42      1.0000 0.64187  0.33302  0.67618  Biso   1.000  H
  H43      1.0000 0.57400  0.20328  0.67466  Biso   1.000  H
  C56      1.0000 0.43254  0.45558  0.22698  Biso   1.000  C
  C57      1.0000 0.46347  0.30458  0.12604  Biso   1.000  C
  C58      1.0000 0.59108  0.11368  0.20671  Biso   1.000  C
  H44      1.0000 0.73755  0.26906  0.24401  Biso   1.000  H
  H45      1.0000 0.76862  0.18568  0.30448  Biso   1.000  H
  C59      1.0000 0.35466  0.17616  0.55428  Biso   1.000  C
  C60      1.0000 0.30995  0.42580  0.16968  Biso   1.000  C
  H46      1.0000 0.46438  0.51800  0.28131  Biso   1.000  H
  C61      1.0000 0.33956  0.27706  0.06957  Biso   1.000  C
  C62      1.0000 0.53973  0.23412  0.09680  Biso   1.000  C
  C63      1.0000 0.51422  0.12326  0.12542  Biso   1.000  C
  C64      1.0000 0.56040  0.00709  0.22560  Biso   1.000  C
  C65      1.0000 0.24393  0.19794  0.52408  Biso   1.000  C
  C66      1.0000 0.35481  0.06516  0.52683  Biso   1.000  C
  O9       1.0000 0.24449  0.49237  0.19961  Biso   1.000  O
  C67      1.0000 0.26124  0.33518  0.08970  Biso   1.000  C
  H47      1.0000 0.30717  0.21551  0.01462  Biso   1.000  H
  H48      1.0000 0.63082  0.28102  0.12473  Biso   1.000  H
  H49      1.0000 0.51889  0.21506  0.02889  Biso   1.000  H
  C68      1.0000 0.40907  0.02840  0.06888  Biso   1.000  C
  H50      1.0000 0.61436  0.99854  0.27848  Biso   1.000  H
  C69      1.0000 0.45419  0.91361  0.16996  Biso   1.000  C
  C70      1.0000 0.13271  0.11234  0.46292  Biso   1.000  C
  H51      1.0000 0.24395  0.27329  0.54559  Biso   1.000  H
  C71      1.0000 0.24357  0.97966  0.46761  Biso   1.000  C
  H52      1.0000 0.42919  0.04838  0.54821  Biso   1.000  H
  C72      1.0000 0.11679  0.46686  0.14982  Biso   1.000  C
  H53      1.0000 0.17695  0.31361  0.04999  Biso   1.000  H
  H54      1.0000 0.35813  0.03419  0.01331  Biso   1.000  H
  C73      1.0000 0.37705  0.92558  0.09170  Biso   1.000  C
  H55      1.0000 0.43461  0.84260  0.18513  Biso   1.000  H
  C74      1.0000 0.01879  0.14599  0.42845  Biso   1.000  C
  C75      1.0000 0.13259  0.00016  0.43327  Biso   1.000  C
  H56      1.0000 0.24323  0.90357  0.44961  Biso   1.000  H
  O10      1.0000 0.03801  0.35227  0.13500  Biso   1.000  O
  H57      1.0000 0.11148  0.48206  0.08929  Biso   1.000  H
  H58      1.0000 0.08450  0.51953  0.18361  Biso   1.000  H
  O11      1.0000 0.26646  0.84053  0.03116  Biso   1.000  O
  C76      1.0000 0.02233  0.19730  0.34805  Biso   1.000  C
  H59      1.0000 0.01491  0.20269  0.47967  Biso   1.000  H
  H60      1.0000 0.94119  0.07714  0.40900  Biso   1.000  H
  C77      1.0000 0.01947  0.90260  0.36315  Biso   1.000  C
  C78      1.0000 0.03726  0.30817  0.21009  Biso   1.000  C
  C79      1.0000 0.21892  0.73866  0.05550  Biso   1.000  C
  C80      1.0000 0.09230  0.31390  0.36860  Biso   1.000  C
  C81      1.0000 0.95881  0.13459  0.25490  Biso   1.000  C
  C82      1.0000 0.02582  0.88904  0.26573  Biso   1.000  C
  H61      1.0000 0.94131  0.91729  0.36529  Biso   1.000  H
  H62      1.0000 0.01529  0.83004  0.37956  Biso   1.000  H
  C83      1.0000 0.10162  0.37097  0.30158  Biso   1.000  C
  C84      1.0000 0.96658  0.19228  0.18754  Biso   1.000  C
  O12      1.0000 0.19610  0.75667  0.14093  Biso   1.000  O
  H63      1.0000 0.28002  0.69818  0.05819  Biso   1.000  H
  H64      1.0000 0.13902  0.68792  0.00648  Biso   1.000  H
  H65      1.0000 0.13557  0.35626  0.43141  Biso   1.000  H
  C85      1.0000 0.88317  0.00630  0.22332  Biso   1.000  C
  C86      1.0000 0.96202  0.93473  0.20154  Biso   1.000  C
  C87      1.0000 0.10064  0.82931  0.24049  Biso   1.000  C
  H66      1.0000 0.15046  0.45048  0.31778  Biso   1.000  H
  H67      1.0000 0.92233  0.15103  0.12459  Biso   1.000  H
  C88      1.0000 0.11463  0.81365  0.15403  Biso   1.000  C
  H68      1.0000 0.81016  0.98922  0.16768  Biso   1.000  H
  H69      1.0000 0.84985  0.98440  0.27228  Biso   1.000  H
  C89      1.0000 0.97450  0.91470  0.11390  Biso   1.000  C
  H70      1.0000 0.14346  0.79850  0.28379  Biso   1.000  H
  C90      1.0000 0.04917  0.85510  0.08860  Biso   1.000  C
  H71      1.0000 0.92977  0.94305  0.06950  Biso   1.000  H
  H72      1.0000 0.05541  0.84290  0.02827  Biso   1.000  H
