data_image0
_cell_length_a       11.749
_cell_length_b       12.595
_cell_length_c       15.564
_cell_angle_alpha    100.93
_cell_angle_beta     105.18
_cell_angle_gamma    106.26

_symmetry_space_group_name_H-M    "P 1"
_symmetry_int_tables_number       1

loop_
  _symmetry_equiv_pos_as_xyz
  'x, y, z'

loop_
  _atom_site_label
  _atom_site_occupancy
  _atom_site_fract_x
  _atom_site_fract_y
  _atom_site_fract_z
  _atom_site_thermal_displace_type
  _atom_site_B_iso_or_equiv
  _atom_site_type_symbol
  C1       1.0000 0.61931  0.43456  0.43080  Biso   1.000  C
  C2       1.0000 0.64466  0.38177  0.35401  Biso   1.000  C
  C3       1.0000 0.61031  0.38549  0.50252  Biso   1.000  C
  H1       1.0000 0.60757  0.50671  0.43393  Biso   1.000  H
  C4       1.0000 0.64255  0.43661  0.27521  Biso   1.000  C
  C5       1.0000 0.66700  0.27760  0.35249  Biso   1.000  C
  C6       1.0000 0.62662  0.28111  0.49780  Biso   1.000  C
  H2       1.0000 0.59328  0.42351  0.55404  Biso   1.000  H
  C7       1.0000 0.51089  0.39673  0.20572  Biso   1.000  C
  H3       1.0000 0.69951  0.41614  0.24341  Biso   1.000  H
  H4       1.0000 0.67381  0.52152  0.30069  Biso   1.000  H
  C8       1.0000 0.65727  0.22927  0.42441  Biso   1.000  C
  C9       1.0000 0.70230  0.21348  0.27639  Biso   1.000  C
  O1       1.0000 0.61570  0.21853  0.56098  Biso   1.000  O
  C10      1.0000 0.43303  0.45570  0.22613  Biso   1.000  C
  C11      1.0000 0.46348  0.30489  0.12421  Biso   1.000  C
  H5       1.0000 0.67212  0.15874  0.42351  Biso   1.000  H
  C12      1.0000 0.59117  0.11366  0.20558  Biso   1.000  C
  H6       1.0000 0.73823  0.26817  0.24432  Biso   1.000  H
  H7       1.0000 0.76808  0.18378  0.30500  Biso   1.000  H
  C13      1.0000 0.57696  0.25905  0.63603  Biso   1.000  C
  C14      1.0000 0.31039  0.42455  0.16968  Biso   1.000  C
  H8       1.0000 0.46538  0.51917  0.28042  Biso   1.000  H
  C15      1.0000 0.34051  0.27682  0.06783  Biso   1.000  C
  C16      1.0000 0.53850  0.23298  0.09477  Biso   1.000  C
  C17      1.0000 0.51457  0.12287  0.12448  Biso   1.000  C
  C18      1.0000 0.56072  0.00827  0.22592  Biso   1.000  C
  O2       1.0000 0.45985  0.27173  0.60888  Biso   1.000  O
  H9       1.0000 0.57415  0.20444  0.67422  Biso   1.000  H
  H10      1.0000 0.64061  0.33437  0.67560  Biso   1.000  H
  O3       1.0000 0.24435  0.49068  0.20009  Biso   1.000  O
  C19      1.0000 0.26191  0.33448  0.08873  Biso   1.000  C
  H11      1.0000 0.30838  0.21523  0.01229  Biso   1.000  H
  H12      1.0000 0.62929  0.27958  0.12233  Biso   1.000  H
  H13      1.0000 0.51603  0.21275  0.02638  Biso   1.000  H
  C20      1.0000 0.40873  0.02849  0.06790  Biso   1.000  C
  C21      1.0000 0.45305  0.91399  0.17010  Biso   1.000  C
  H14      1.0000 0.61488  0.00023  0.27959  Biso   1.000  H
  C22      1.0000 0.35512  0.17705  0.55404  Biso   1.000  C
  C23      1.0000 0.11681  0.46507  0.14927  Biso   1.000  C
  H15      1.0000 0.17757  0.31288  0.04881  Biso   1.000  H
  H16      1.0000 0.35773  0.03408  0.01173  Biso   1.000  H
  C24      1.0000 0.37641  0.92648  0.09220  Biso   1.000  C
  H17      1.0000 0.43343  0.84333  0.18572  Biso   1.000  H
  C25      1.0000 0.24477  0.19824  0.52453  Biso   1.000  C
  C26      1.0000 0.35528  0.06555  0.52633  Biso   1.000  C
  O4       1.0000 0.03939  0.35056  0.13483  Biso   1.000  O
  H18      1.0000 0.11097  0.47934  0.08817  Biso   1.000  H
  H19      1.0000 0.08451  0.51839  0.18273  Biso   1.000  H
  O5       1.0000 0.26513  0.84274  0.03180  Biso   1.000  O
  C27      1.0000 0.13460  0.11413  0.46447  Biso   1.000  C
  H20      1.0000 0.24460  0.27393  0.54640  Biso   1.000  H
  C28      1.0000 0.24427  0.98018  0.46739  Biso   1.000  C
  H21      1.0000 0.42972  0.04830  0.54730  Biso   1.000  H
  C29      1.0000 0.03798  0.30783  0.21044  Biso   1.000  C
  C30      1.0000 0.21903  0.74023  0.05631  Biso   1.000  C
  C31      1.0000 0.02014  0.14708  0.42962  Biso   1.000  C
  C32      1.0000 0.13273  0.00101  0.43427  Biso   1.000  C
  H22      1.0000 0.24410  0.90383  0.44857  Biso   1.000  H
  C33      1.0000 0.10167  0.36997  0.30201  Biso   1.000  C
  C34      1.0000 0.96588  0.19210  0.18739  Biso   1.000  C
  O6       1.0000 0.19734  0.75811  0.14198  Biso   1.000  O
  H23      1.0000 0.13933  0.68922  0.00687  Biso   1.000  H
  H24      1.0000 0.28028  0.69958  0.05901  Biso   1.000  H
  C35      1.0000 0.02187  0.19831  0.34881  Biso   1.000  C
  H25      1.0000 0.01592  0.20394  0.48114  Biso   1.000  H
  H26      1.0000 0.94348  0.07778  0.40969  Biso   1.000  H
  C36      1.0000 0.02096  0.90283  0.36387  Biso   1.000  C
  H27      1.0000 0.15110  0.44935  0.31840  Biso   1.000  H
  C37      1.0000 0.09246  0.31467  0.36943  Biso   1.000  C
  C38      1.0000 0.95823  0.13504  0.25543  Biso   1.000  C
  H28      1.0000 0.92078  0.15082  0.12400  Biso   1.000  H
  C39      1.0000 0.11366  0.81446  0.15427  Biso   1.000  C
  C40      1.0000 0.02472  0.88841  0.26549  Biso   1.000  C
  H29      1.0000 0.94284  0.91676  0.36609  Biso   1.000  H
  H30      1.0000 0.01850  0.83030  0.38054  Biso   1.000  H
  H31      1.0000 0.13603  0.35762  0.43261  Biso   1.000  H
  C41      1.0000 0.88374  0.00691  0.22370  Biso   1.000  C
  C42      1.0000 0.04890  0.85480  0.08922  Biso   1.000  C
  C43      1.0000 0.10010  0.82899  0.24098  Biso   1.000  C
  C44      1.0000 0.96058  0.93389  0.20120  Biso   1.000  C
  H32      1.0000 0.85176  0.98530  0.27313  Biso   1.000  H
  H33      1.0000 0.81018  0.98996  0.16788  Biso   1.000  H
  C45      1.0000 0.97263  0.91412  0.11393  Biso   1.000  C
  H34      1.0000 0.05554  0.84293  0.02881  Biso   1.000  H
  H35      1.0000 0.14302  0.79777  0.28452  Biso   1.000  H
  H36      1.0000 0.92698  0.94199  0.06887  Biso   1.000  H
  C46      1.0000 0.38970  0.61448  0.49752  Biso   1.000  C
  C47      1.0000 0.37336  0.71884  0.50217  Biso   1.000  C
  H37      1.0000 0.40664  0.57647  0.44601  Biso   1.000  H
  C48      1.0000 0.38070  0.56541  0.56924  Biso   1.000  C
  O7       1.0000 0.38430  0.78150  0.43899  Biso   1.000  O
  C49      1.0000 0.34266  0.77070  0.57563  Biso   1.000  C
  H38      1.0000 0.39235  0.49327  0.56612  Biso   1.000  H
  C50      1.0000 0.35526  0.61820  0.64603  Biso   1.000  C
  C51      1.0000 0.42308  0.74101  0.36401  Biso   1.000  C
  C52      1.0000 0.33298  0.72235  0.64749  Biso   1.000  C
  H39      1.0000 0.32791  0.84132  0.57653  Biso   1.000  H
  C53      1.0000 0.35737  0.56336  0.72483  Biso   1.000  C
  O8       1.0000 0.54015  0.72831  0.39109  Biso   1.000  O
  H40      1.0000 0.42588  0.79561  0.32583  Biso   1.000  H
  H41      1.0000 0.35939  0.66561  0.32444  Biso   1.000  H
  C54      1.0000 0.29768  0.78647  0.72358  Biso   1.000  C
  C55      1.0000 0.48914  0.60333  0.79433  Biso   1.000  C
  H42      1.0000 0.30052  0.58392  0.75663  Biso   1.000  H
  H43      1.0000 0.32619  0.47851  0.69928  Biso   1.000  H
  C56      1.0000 0.64483  0.82301  0.44601  Biso   1.000  C
  C57      1.0000 0.40881  0.88629  0.79440  Biso   1.000  C
  H44      1.0000 0.26178  0.73181  0.75572  Biso   1.000  H
  H45      1.0000 0.23182  0.81617  0.69497  Biso   1.000  H
  C58      1.0000 0.56698  0.54428  0.77391  Biso   1.000  C
  C59      1.0000 0.53653  0.69509  0.87583  Biso   1.000  C
  C60      1.0000 0.75526  0.80182  0.47551  Biso   1.000  C
  C61      1.0000 0.64475  0.93450  0.47371  Biso   1.000  C
  C62      1.0000 0.48533  0.87708  0.87549  Biso   1.000  C
  C63      1.0000 0.43929  0.99170  0.77412  Biso   1.000  C
  H46      1.0000 0.53463  0.48081  0.71962  Biso   1.000  H
  C64      1.0000 0.68959  0.57540  0.83029  Biso   1.000  C
  C65      1.0000 0.65952  0.72323  0.93221  Biso   1.000  C
  C66      1.0000 0.46148  0.76697  0.90520  Biso   1.000  C
  C67      1.0000 0.86540  0.88591  0.53550  Biso   1.000  C
  H47      1.0000 0.75540  0.72610  0.45357  Biso   1.000  H
  H48      1.0000 0.57025  0.95165  0.45267  Biso   1.000  H
  C68      1.0000 0.75562  0.01977  0.53258  Biso   1.000  C
  C69      1.0000 0.59128  0.97149  0.93214  Biso   1.000  C
  H49      1.0000 0.38503  0.99980  0.72039  Biso   1.000  H
  C70      1.0000 0.54695  0.08598  0.82994  Biso   1.000  C
  O9       1.0000 0.75554  0.50927  0.79988  Biso   1.000  O
  C71      1.0000 0.73810  0.66550  0.91131  Biso   1.000  C
  H50      1.0000 0.69154  0.78480  0.98768  Biso   1.000  H
  H51      1.0000 0.37072  0.72039  0.87771  Biso   1.000  H
  H52      1.0000 0.48386  0.78719  0.97359  Biso   1.000  H
  C72      1.0000 0.86725  0.99894  0.56570  Biso   1.000  C
  C73      1.0000 0.97987  0.85290  0.57042  Biso   1.000  C
  H53      1.0000 0.75581  0.09620  0.55140  Biso   1.000  H
  H54      1.0000 0.64228  0.96590  0.98831  Biso   1.000  H
  C74      1.0000 0.62360  0.07350  0.90784  Biso   1.000  C
  H55      1.0000 0.56660  0.15673  0.81432  Biso   1.000  H
  C75      1.0000 0.88308  0.53488  0.85070  Biso   1.000  C
  H56      1.0000 0.82244  0.68710  0.95123  Biso   1.000  H
  C76      1.0000 0.97904  0.09720  0.63610  Biso   1.000  C
  C77      1.0000 0.97806  0.80166  0.65124  Biso   1.000  C
  H57      1.0000 0.98411  0.79611  0.51891  Biso   1.000  H
  H58      1.0000 0.05641  0.92217  0.59028  Biso   1.000  H
  O10      1.0000 0.73490  0.15731  0.96824  Biso   1.000  O
  O11      1.0000 0.96062  0.64941  0.86521  Biso   1.000  O
  H59      1.0000 0.88901  0.52060  0.91180  Biso   1.000  H
  H60      1.0000 0.91550  0.48158  0.81731  Biso   1.000  H
  C78      1.0000 0.97525  0.11154  0.73448  Biso   1.000  C
  H61      1.0000 0.98142  0.16967  0.61951  Biso   1.000  H
  H62      1.0000 0.05713  0.08319  0.63388  Biso   1.000  H
  C79      1.0000 0.90746  0.68530  0.63061  Biso   1.000  C
  C80      1.0000 0.04181  0.86501  0.74462  Biso   1.000  C
  C81      1.0000 0.78100  0.25983  0.94374  Biso   1.000  C
  C82      1.0000 0.96197  0.69223  0.78961  Biso   1.000  C
  C83      1.0000 0.89979  0.17096  0.75899  Biso   1.000  C
  C84      1.0000 0.03934  0.06608  0.79884  Biso   1.000  C
  C85      1.0000 0.89833  0.63000  0.69803  Biso   1.000  C
  H63      1.0000 0.86400  0.64243  0.56744  Biso   1.000  H
  C86      1.0000 0.03409  0.80784  0.81259  Biso   1.000  C
  C87      1.0000 0.11624  0.99304  0.77627  Biso   1.000  C
  O12      1.0000 0.80263  0.24184  0.85799  Biso   1.000  O
  H64      1.0000 0.86067  0.31081  0.99310  Biso   1.000  H
  H65      1.0000 0.71964  0.30039  0.94103  Biso   1.000  H
  H66      1.0000 0.85699  0.20220  0.71553  Biso   1.000  H
  C88      1.0000 0.88623  0.18549  0.84570  Biso   1.000  C
  C89      1.0000 0.02737  0.08585  0.88611  Biso   1.000  C
  H67      1.0000 0.84888  0.55059  0.68158  Biso   1.000  H
  H68      1.0000 0.07917  0.84924  0.87604  Biso   1.000  H
  H69      1.0000 0.14825  0.01467  0.72691  Biso   1.000  H
  H70      1.0000 0.18980  0.00999  0.83210  Biso   1.000  H
  C90      1.0000 0.95102  0.14518  0.91083  Biso   1.000  C
  H71      1.0000 0.07300  0.05796  0.93110  Biso   1.000  H
  H72      1.0000 0.94450  0.15713  0.97123  Biso   1.000  H
