data_image0
_cell_length_a       11.717
_cell_length_b       12.635
_cell_length_c       15.603
_cell_angle_alpha    100.79
_cell_angle_beta     104.75
_cell_angle_gamma    106.66

_symmetry_space_group_name_H-M    "P 1"
_symmetry_int_tables_number       1

loop_
  _symmetry_equiv_pos_as_xyz
  'x, y, z'

loop_
  _atom_site_label
  _atom_site_occupancy
  _atom_site_fract_x
  _atom_site_fract_y
  _atom_site_fract_z
  _atom_site_thermal_displace_type
  _atom_site_B_iso_or_equiv
  _atom_site_type_symbol
  C1       1.0000 0.38125  0.56667  0.56900  Biso   1.000  C
  C2       1.0000 0.39064  0.61449  0.49746  Biso   1.000  C
  H1       1.0000 0.39297  0.49486  0.56610  Biso   1.000  H
  C3       1.0000 0.35534  0.61867  0.64579  Biso   1.000  C
  C4       1.0000 0.37366  0.71980  0.50188  Biso   1.000  C
  H2       1.0000 0.40815  0.57657  0.44650  Biso   1.000  H
  C5       1.0000 0.33344  0.72224  0.64738  Biso   1.000  C
  C6       1.0000 0.35785  0.56445  0.72430  Biso   1.000  C
  O1       1.0000 0.38480  0.78172  0.43828  Biso   1.000  O
  C7       1.0000 0.34448  0.77148  0.57612  Biso   1.000  C
  C8       1.0000 0.29799  0.78621  0.72389  Biso   1.000  C
  C9       1.0000 0.48973  0.60405  0.79398  Biso   1.000  C
  H3       1.0000 0.30059  0.58458  0.75607  Biso   1.000  H
  H4       1.0000 0.32635  0.47971  0.69910  Biso   1.000  H
  C10      1.0000 0.42249  0.74157  0.36302  Biso   1.000  C
  H5       1.0000 0.33168  0.84273  0.57812  Biso   1.000  H
  C11      1.0000 0.40954  0.88689  0.79343  Biso   1.000  C
  H6       1.0000 0.26278  0.73166  0.75662  Biso   1.000  H
  H7       1.0000 0.23160  0.81511  0.69579  Biso   1.000  H
  C12      1.0000 0.56710  0.54422  0.77340  Biso   1.000  C
  C13      1.0000 0.53687  0.69546  0.87457  Biso   1.000  C
  O2       1.0000 0.54162  0.72905  0.39050  Biso   1.000  O
  H8       1.0000 0.35833  0.66628  0.32400  Biso   1.000  H
  H9       1.0000 0.42552  0.79621  0.32490  Biso   1.000  H
  C14      1.0000 0.48566  0.87744  0.87477  Biso   1.000  C
  C15      1.0000 0.44040  0.99298  0.77437  Biso   1.000  C
  H10      1.0000 0.53462  0.48115  0.71926  Biso   1.000  H
  C16      1.0000 0.69031  0.57478  0.83051  Biso   1.000  C
  C17      1.0000 0.66020  0.72369  0.93091  Biso   1.000  C
  C18      1.0000 0.46048  0.76596  0.90391  Biso   1.000  C
  C19      1.0000 0.64547  0.82319  0.44609  Biso   1.000  C
  C20      1.0000 0.59042  0.97106  0.93098  Biso   1.000  C
  C21      1.0000 0.54569  0.08609  0.82961  Biso   1.000  C
  H11      1.0000 0.38639  0.00138  0.72120  Biso   1.000  H
  O3       1.0000 0.75540  0.50794  0.80026  Biso   1.000  O
  C22      1.0000 0.73849  0.66513  0.91089  Biso   1.000  C
  H12      1.0000 0.69257  0.78574  0.98567  Biso   1.000  H
  H13      1.0000 0.36954  0.71904  0.87608  Biso   1.000  H
  H14      1.0000 0.48167  0.78512  0.97186  Biso   1.000  H
  C23      1.0000 0.75677  0.80183  0.47592  Biso   1.000  C
  C24      1.0000 0.64581  0.93474  0.47350  Biso   1.000  C
  H15      1.0000 0.64122  0.96483  0.98657  Biso   1.000  H
  C25      1.0000 0.62325  0.07404  0.90799  Biso   1.000  C
  H16      1.0000 0.56502  0.15695  0.81421  Biso   1.000  H
  C26      1.0000 0.88296  0.53375  0.85088  Biso   1.000  C
  H17      1.0000 0.82249  0.68648  0.95087  Biso   1.000  H
  C27      1.0000 0.86703  0.88715  0.53627  Biso   1.000  C
  H18      1.0000 0.75736  0.72656  0.45417  Biso   1.000  H
  H19      1.0000 0.57137  0.95172  0.45216  Biso   1.000  H
  C28      1.0000 0.75604  0.02008  0.53227  Biso   1.000  C
  O4       1.0000 0.73380  0.15889  0.96841  Biso   1.000  O
  O5       1.0000 0.96136  0.64740  0.86497  Biso   1.000  O
  H20      1.0000 0.91542  0.48044  0.81801  Biso   1.000  H
  H21      1.0000 0.88795  0.51955  0.91179  Biso   1.000  H
  C29      1.0000 0.86713  0.99959  0.56672  Biso   1.000  C
  C30      1.0000 0.98142  0.85330  0.57101  Biso   1.000  C
  H22      1.0000 0.75628  0.09629  0.55008  Biso   1.000  H
  C31      1.0000 0.78153  0.26069  0.94438  Biso   1.000  C
  C32      1.0000 0.96235  0.69170  0.78997  Biso   1.000  C
  C33      1.0000 0.98071  0.09728  0.63668  Biso   1.000  C
  C34      1.0000 0.97781  0.80212  0.65159  Biso   1.000  C
  H23      1.0000 0.98527  0.79642  0.51970  Biso   1.000  H
  H24      1.0000 0.05887  0.92207  0.59048  Biso   1.000  H
  O6       1.0000 0.80364  0.24290  0.85889  Biso   1.000  O
  H25      1.0000 0.72112  0.30185  0.94210  Biso   1.000  H
  H26      1.0000 0.86173  0.31090  0.99341  Biso   1.000  H
  C35      1.0000 0.89832  0.62968  0.69896  Biso   1.000  C
  C36      1.0000 0.03394  0.80811  0.81242  Biso   1.000  C
  H27      1.0000 0.98496  0.16998  0.62017  Biso   1.000  H
  C37      1.0000 0.97470  0.11099  0.73459  Biso   1.000  C
  H28      1.0000 0.05840  0.08219  0.63440  Biso   1.000  H
  C38      1.0000 0.90789  0.68662  0.63198  Biso   1.000  C
  C39      1.0000 0.04170  0.86490  0.74502  Biso   1.000  C
  C40      1.0000 0.88624  0.18576  0.84577  Biso   1.000  C
  H29      1.0000 0.84902  0.55020  0.68267  Biso   1.000  H
  H30      1.0000 0.07852  0.84957  0.87539  Biso   1.000  H
  C41      1.0000 0.90010  0.17117  0.75973  Biso   1.000  C
  C42      1.0000 0.03843  0.06558  0.79909  Biso   1.000  C
  H31      1.0000 0.86409  0.64402  0.56907  Biso   1.000  H
  C43      1.0000 0.11677  0.99302  0.77637  Biso   1.000  C
  C44      1.0000 0.95103  0.14485  0.91130  Biso   1.000  C
  H32      1.0000 0.85790  0.20290  0.71657  Biso   1.000  H
  C45      1.0000 0.02574  0.08531  0.88589  Biso   1.000  C
  H33      1.0000 0.19011  0.00987  0.83182  Biso   1.000  H
  H34      1.0000 0.14911  0.01475  0.72707  Biso   1.000  H
  H35      1.0000 0.94473  0.15720  0.97159  Biso   1.000  H
  H36      1.0000 0.07017  0.05666  0.93029  Biso   1.000  H
  C46      1.0000 0.60943  0.38552  0.50250  Biso   1.000  C
  C47      1.0000 0.61879  0.43325  0.43096  Biso   1.000  C
  C48      1.0000 0.62641  0.28021  0.49808  Biso   1.000  C
  H37      1.0000 0.59189  0.42335  0.55347  Biso   1.000  H
  C49      1.0000 0.64471  0.38125  0.35418  Biso   1.000  C
  H38      1.0000 0.60716  0.50507  0.43386  Biso   1.000  H
  C50      1.0000 0.65560  0.22847  0.42392  Biso   1.000  C
  O7       1.0000 0.61538  0.21831  0.56175  Biso   1.000  O
  C51      1.0000 0.64222  0.43550  0.27573  Biso   1.000  C
  C52      1.0000 0.66660  0.27768  0.35259  Biso   1.000  C
  H39      1.0000 0.66842  0.15730  0.42192  Biso   1.000  H
  C53      1.0000 0.57767  0.25838  0.63702  Biso   1.000  C
  C54      1.0000 0.51031  0.39588  0.20599  Biso   1.000  C
  H40      1.0000 0.69956  0.41543  0.24390  Biso   1.000  H
  H41      1.0000 0.67371  0.52030  0.30087  Biso   1.000  H
  C55      1.0000 0.70216  0.21380  0.27608  Biso   1.000  C
  O8       1.0000 0.45842  0.27087  0.60947  Biso   1.000  O
  H42      1.0000 0.64171  0.33364  0.67597  Biso   1.000  H
  H43      1.0000 0.57463  0.20379  0.67507  Biso   1.000  H
  C56      1.0000 0.43305  0.45579  0.22657  Biso   1.000  C
  C57      1.0000 0.46326  0.30446  0.12540  Biso   1.000  C
  C58      1.0000 0.59062  0.11306  0.20661  Biso   1.000  C
  H44      1.0000 0.73729  0.26829  0.24341  Biso   1.000  H
  H45      1.0000 0.76855  0.18489  0.30418  Biso   1.000  H
  C59      1.0000 0.35457  0.17673  0.55388  Biso   1.000  C
  C60      1.0000 0.30988  0.42524  0.16953  Biso   1.000  C
  H46      1.0000 0.46542  0.51877  0.28070  Biso   1.000  H
  C61      1.0000 0.33998  0.27634  0.06912  Biso   1.000  C
  C62      1.0000 0.53960  0.23399  0.09612  Biso   1.000  C
  C63      1.0000 0.51438  0.12248  0.12519  Biso   1.000  C
  C64      1.0000 0.55976  0.00703  0.22560  Biso   1.000  C
  C65      1.0000 0.24332  0.19820  0.52412  Biso   1.000  C
  C66      1.0000 0.35426  0.06527  0.52647  Biso   1.000  C
  O9       1.0000 0.24464  0.49199  0.19970  Biso   1.000  O
  C67      1.0000 0.26164  0.33479  0.08908  Biso   1.000  C
  H47      1.0000 0.30747  0.21418  0.01429  Biso   1.000  H
  H48      1.0000 0.63050  0.28088  0.12388  Biso   1.000  H
  H49      1.0000 0.51846  0.21480  0.02810  Biso   1.000  H
  C68      1.0000 0.40971  0.02886  0.06898  Biso   1.000  C
  C69      1.0000 0.45441  0.91394  0.17042  Biso   1.000  C
  H50      1.0000 0.61365  0.99854  0.27877  Biso   1.000  H
  C70      1.0000 0.13302  0.11277  0.46370  Biso   1.000  C
  H51      1.0000 0.24276  0.27337  0.54580  Biso   1.000  H
  C71      1.0000 0.24409  0.97985  0.46770  Biso   1.000  C
  H52      1.0000 0.42870  0.04829  0.54780  Biso   1.000  H
  C72      1.0000 0.11717  0.46617  0.14909  Biso   1.000  C
  H53      1.0000 0.17767  0.31352  0.04910  Biso   1.000  H
  H54      1.0000 0.35891  0.03509  0.01340  Biso   1.000  H
  C73      1.0000 0.37688  0.92588  0.09198  Biso   1.000  C
  H55      1.0000 0.43505  0.84299  0.18582  Biso   1.000  H
  C74      1.0000 0.01876  0.14673  0.42903  Biso   1.000  C
  C75      1.0000 0.13302  0.00036  0.43331  Biso   1.000  C
  H56      1.0000 0.24376  0.90363  0.44988  Biso   1.000  H
  O10      1.0000 0.03874  0.35263  0.13507  Biso   1.000  O
  H57      1.0000 0.08466  0.51950  0.18203  Biso   1.000  H
  H58      1.0000 0.11209  0.48037  0.08818  Biso   1.000  H
  O11      1.0000 0.26630  0.84114  0.03163  Biso   1.000  O
  C76      1.0000 0.02234  0.19789  0.34838  Biso   1.000  C
  H59      1.0000 0.01479  0.20358  0.48027  Biso   1.000  H
  H60      1.0000 0.94117  0.07785  0.40949  Biso   1.000  H
  C77      1.0000 0.01933  0.90265  0.36329  Biso   1.000  C
  C78      1.0000 0.03772  0.30830  0.20999  Biso   1.000  C
  C79      1.0000 0.21853  0.73932  0.05559  Biso   1.000  C
  C80      1.0000 0.09226  0.31339  0.36799  Biso   1.000  C
  C81      1.0000 0.95840  0.13513  0.25502  Biso   1.000  C
  C82      1.0000 0.02534  0.88894  0.26537  Biso   1.000  C
  H61      1.0000 0.94165  0.91774  0.36557  Biso   1.000  H
  H62      1.0000 0.01517  0.82994  0.37980  Biso   1.000  H
  C83      1.0000 0.10175  0.37032  0.30101  Biso   1.000  C
  C84      1.0000 0.96625  0.19192  0.18762  Biso   1.000  C
  O12      1.0000 0.19643  0.75711  0.14108  Biso   1.000  O
  H63      1.0000 0.27893  0.69807  0.05787  Biso   1.000  H
  H64      1.0000 0.13837  0.68913  0.00663  Biso   1.000  H
  H65      1.0000 0.13606  0.35598  0.43090  Biso   1.000  H
  C85      1.0000 0.88329  0.00699  0.22360  Biso   1.000  C
  C86      1.0000 0.96169  0.93435  0.20088  Biso   1.000  C
  C87      1.0000 0.09997  0.82877  0.24031  Biso   1.000  C
  H66      1.0000 0.15105  0.44980  0.31730  Biso   1.000  H
  H67      1.0000 0.92161  0.15035  0.12457  Biso   1.000  H
  C88      1.0000 0.11388  0.81416  0.15420  Biso   1.000  C
  H68      1.0000 0.80996  0.99008  0.16821  Biso   1.000  H
  H69      1.0000 0.85102  0.98517  0.27290  Biso   1.000  H
  C89      1.0000 0.97441  0.91470  0.11408  Biso   1.000  C
  H70      1.0000 0.14217  0.79710  0.28340  Biso   1.000  H
  C90      1.0000 0.04910  0.85508  0.08866  Biso   1.000  C
  H71      1.0000 0.92987  0.94327  0.06968  Biso   1.000  H
  H72      1.0000 0.05533  0.84281  0.02838  Biso   1.000  H
  Ne1      1.0000 0.30295  0.15514  0.27892  Biso   1.000  Ne
  He1      1.0000 0.35904  0.37457  0.41554  Biso   1.000  He
  He2      1.0000 0.40737  0.01294  0.35053  Biso   1.000  He
  He3      1.0000 0.13152  0.10473  0.07843  Biso   1.000  He
  Ar1      1.0000 0.30318  0.15334  0.27970  Biso   1.000  Ar
  Ne2      1.0000 0.69715  0.84483  0.72107  Biso   1.000  Ne
  He4      1.0000 0.83236  0.91925  0.91458  Biso   1.000  He
  He5      1.0000 0.58660  0.99992  0.64501  Biso   1.000  He
  He6      1.0000 0.63974  0.61873  0.58090  Biso   1.000  He
  Ar2      1.0000 0.69688  0.84651  0.72023  Biso   1.000  Ar
