data_image0
_cell_length_a       10.938
_cell_length_b       11.747
_cell_length_c       19.848
_cell_angle_alpha    101.31
_cell_angle_beta     99.72
_cell_angle_gamma    94.51

_symmetry_space_group_name_H-M    "P 1"
_symmetry_int_tables_number       1

loop_
  _symmetry_equiv_pos_as_xyz
  'x, y, z'

loop_
  _atom_site_label
  _atom_site_occupancy
  _atom_site_fract_x
  _atom_site_fract_y
  _atom_site_fract_z
  _atom_site_thermal_displace_type
  _atom_site_B_iso_or_equiv
  _atom_site_type_symbol
  C1       1.0000 0.59156  0.90817  0.84081  Biso   1.000  C
  C2       1.0000 0.57501  0.92540  0.77311  Biso   1.000  C
  H1       1.0000 0.56775  0.83350  0.84934  Biso   1.000  H
  C3       1.0000 0.64299  0.00039  0.89642  Biso   1.000  C
  O1       1.0000 0.52159  0.84188  0.71457  Biso   1.000  O
  C4       1.0000 0.61201  0.03538  0.76061  Biso   1.000  C
  H2       1.0000 0.65414  0.98796  0.94283  Biso   1.000  H
  C5       1.0000 0.67846  0.10983  0.88507  Biso   1.000  C
  C6       1.0000 0.48325  0.72701  0.72435  Biso   1.000  C
  C7       1.0000 0.66346  0.12695  0.81706  Biso   1.000  C
  C8       1.0000 0.58944  0.05872  0.68825  Biso   1.000  C
  O2       1.0000 0.72530  0.19572  0.94356  Biso   1.000  O
  C9       1.0000 0.42039  0.65132  0.65492  Biso   1.000  C
  H3       1.0000 0.42467  0.73242  0.75752  Biso   1.000  H
  H4       1.0000 0.55704  0.69213  0.74413  Biso   1.000  H
  H5       1.0000 0.68847  0.20149  0.80890  Biso   1.000  H
  O3       1.0000 0.68377  0.00830  0.65048  Biso   1.000  O
  H6       1.0000 0.50489  0.02324  0.66319  Biso   1.000  H
  H7       1.0000 0.59491  0.14388  0.69071  Biso   1.000  H
  C10      1.0000 0.74676  0.31283  0.93357  Biso   1.000  C
  O4       1.0000 0.50192  0.61779  0.60799  Biso   1.000  O
  H8       1.0000 0.37682  0.57987  0.66340  Biso   1.000  H
  H9       1.0000 0.35637  0.69399  0.63232  Biso   1.000  H
  C11      1.0000 0.67231  0.02574  0.58529  Biso   1.000  C
  H10      1.0000 0.66909  0.33589  0.90914  Biso   1.000  H
  H11      1.0000 0.81174  0.31774  0.90469  Biso   1.000  H
  C12      1.0000 0.78831  0.39210  0.00347  Biso   1.000  C
  C13      1.0000 0.53346  0.70138  0.56912  Biso   1.000  C
  C14      1.0000 0.75845  0.96132  0.54369  Biso   1.000  C
  O5       1.0000 0.59808  0.08392  0.56091  Biso   1.000  O
  H12      1.0000 0.79415  0.47448  0.99834  Biso   1.000  H
  O6       1.0000 0.90688  0.36708  0.03512  Biso   1.000  O
  H13      1.0000 0.72670  0.38148  0.03360  Biso   1.000  H
  C15      1.0000 0.61025  0.64722  0.51869  Biso   1.000  C
  H14      1.0000 0.58149  0.77218  0.60103  Biso   1.000  H
  H15      1.0000 0.45663  0.72432  0.54359  Biso   1.000  H
  N1       1.0000 0.86727  0.94037  0.57791  Biso   1.000  N
  C16      1.0000 0.71683  0.92676  0.47228  Biso   1.000  C
  C17      1.0000 0.96499  0.45836  0.09220  Biso   1.000  C
  O7       1.0000 0.71049  0.59064  0.55499  Biso   1.000  O
  H16      1.0000 0.55637  0.58828  0.48049  Biso   1.000  H
  H17      1.0000 0.64781  0.70798  0.49771  Biso   1.000  H
  H18      1.0000 0.57703  0.56451  0.49839  Biso   1.000  H
  H19      1.0000 0.60943  0.68960  0.48013  Biso   1.000  H
  O8       1.0000 0.72776  0.65470  0.55552  Biso   1.000  O
  C18      1.0000 0.94148  0.88400  0.53904  Biso   1.000  C
  H20      1.0000 0.63850  0.94462  0.45072  Biso   1.000  H
  C19      1.0000 0.79370  0.86485  0.43320  Biso   1.000  C
  H21      1.0000 0.90499  0.48007  0.12343  Biso   1.000  H
  H22      1.0000 0.99091  0.52810  0.07462  Biso   1.000  H
  C20      1.0000 0.07667  0.41912  0.13212  Biso   1.000  C
  C21      1.0000 0.78631  0.53650  0.50943  Biso   1.000  C
  C22      1.0000 0.81391  0.60016  0.51602  Biso   1.000  C
  C23      1.0000 0.06855  0.86517  0.57346  Biso   1.000  C
  C24      1.0000 0.90767  0.84428  0.46679  Biso   1.000  C
  H23      1.0000 0.76794  0.83748  0.38412  Biso   1.000  H
  O9       1.0000 0.17211  0.40967  0.09262  Biso   1.000  O
  H24      1.0000 0.10688  0.47588  0.17690  Biso   1.000  H
  H25      1.0000 0.05315  0.34231  0.14279  Biso   1.000  H
  C25      1.0000 0.87777  0.47377  0.55102  Biso   1.000  C
  H26      1.0000 0.83196  0.59604  0.49101  Biso   1.000  H
  H27      1.0000 0.73380  0.47998  0.46940  Biso   1.000  H
  C26      1.0000 0.93726  0.60992  0.56263  Biso   1.000  C
  H28      1.0000 0.82196  0.63886  0.47673  Biso   1.000  H
  H29      1.0000 0.78245  0.51680  0.49629  Biso   1.000  H
  O10      1.0000 0.09626  0.91548  0.64137  Biso   1.000  O
  O11      1.0000 0.13902  0.81252  0.54165  Biso   1.000  O
  H30      1.0000 0.96267  0.80349  0.44120  Biso   1.000  H
  C27      1.0000 0.28168  0.37904  0.13107  Biso   1.000  C
  O12      1.0000 0.94179  0.54263  0.60580  Biso   1.000  O
  H31      1.0000 0.83131  0.40920  0.56488  Biso   1.000  H
  H32      1.0000 0.93509  0.43938  0.52109  Biso   1.000  H
  H33      1.0000 0.95904  0.69168  0.58911  Biso   1.000  H
  H34      1.0000 0.00109  0.59205  0.53328  Biso   1.000  H
  C28      1.0000 0.22293  0.91047  0.67695  Biso   1.000  C
  C29      1.0000 0.38016  0.36550  0.08681  Biso   1.000  C
  H35      1.0000 0.26204  0.30480  0.14562  Biso   1.000  H
  H36      1.0000 0.31293  0.44058  0.17371  Biso   1.000  H
  C30      1.0000 0.04590  0.50827  0.64503  Biso   1.000  C
  C31      1.0000 0.22342  0.89449  0.75009  Biso   1.000  C
  H37      1.0000 0.27579  0.98362  0.67831  Biso   1.000  H
  H38      1.0000 0.25869  0.84459  0.65068  Biso   1.000  H
  O13      1.0000 0.33932  0.26855  0.03036  Biso   1.000  O
  H39      1.0000 0.39479  0.43723  0.06881  Biso   1.000  H
  H40      1.0000 0.45954  0.35286  0.11512  Biso   1.000  H
  C32      1.0000 0.08714  0.58990  0.71389  Biso   1.000  C
  H41      1.0000 0.11524  0.50573  0.61872  Biso   1.000  H
  H42      1.0000 0.02470  0.42866  0.65241  Biso   1.000  H
  C33      1.0000 0.18213  0.78560  0.76202  Biso   1.000  C
  C34      1.0000 0.27389  0.98584  0.80638  Biso   1.000  C
  C35      1.0000 0.43416  0.24429  0.99028  Biso   1.000  C
  O14      1.0000 0.13680  0.70045  0.70347  Biso   1.000  O
  H43      1.0000 0.01549  0.60044  0.73821  Biso   1.000  H
  H44      1.0000 0.15176  0.55737  0.74339  Biso   1.000  H
  C36      1.0000 0.19335  0.77046  0.83056  Biso   1.000  C
  C37      1.0000 0.28423  0.96914  0.87487  Biso   1.000  C
  H45      1.0000 0.30162  0.05982  0.79833  Biso   1.000  H
  C38      1.0000 0.37763  0.16567  0.92175  Biso   1.000  C
  H46      1.0000 0.47396  0.31807  0.98259  Biso   1.000  H
  H47      1.0000 0.49895  0.20620  0.01592  Biso   1.000  H
  C39      1.0000 0.24310  0.86113  0.88617  Biso   1.000  C
  H48      1.0000 0.16621  0.69654  0.83903  Biso   1.000  H
  O15      1.0000 0.33343  0.05414  0.93326  Biso   1.000  O
  H49      1.0000 0.30727  0.20034  0.89799  Biso   1.000  H
  H50      1.0000 0.44062  0.15594  0.89130  Biso   1.000  H
  H51      1.0000 0.24922  0.84958  0.93263  Biso   1.000  H
  C40      1.0000 0.38983  0.35298  0.48133  Biso   1.000  C
  C41      1.0000 0.46662  0.29874  0.43089  Biso   1.000  C
  O16      1.0000 0.28968  0.40948  0.44502  Biso   1.000  O
  H52      1.0000 0.44381  0.41192  0.51952  Biso   1.000  H
  H53      1.0000 0.35227  0.29214  0.50231  Biso   1.000  H
  H54      1.0000 0.42306  0.43570  0.50163  Biso   1.000  H
  H55      1.0000 0.39066  0.31061  0.51989  Biso   1.000  H
  O17      1.0000 0.27231  0.34542  0.44450  Biso   1.000  O
  O18      1.0000 0.49825  0.38233  0.39202  Biso   1.000  O
  H56      1.0000 0.41868  0.22794  0.39898  Biso   1.000  H
  H57      1.0000 0.54346  0.27589  0.45643  Biso   1.000  H
  C42      1.0000 0.21387  0.46370  0.49059  Biso   1.000  C
  C43      1.0000 0.18626  0.39996  0.48400  Biso   1.000  C
  C44      1.0000 0.57978  0.34889  0.34509  Biso   1.000  C
  C45      1.0000 0.12231  0.52635  0.44900  Biso   1.000  C
  H58      1.0000 0.16812  0.40408  0.50901  Biso   1.000  H
  H59      1.0000 0.26638  0.52022  0.53061  Biso   1.000  H
  C46      1.0000 0.06282  0.39028  0.43738  Biso   1.000  C
  H60      1.0000 0.17821  0.36126  0.52329  Biso   1.000  H
  H61      1.0000 0.21764  0.48341  0.50372  Biso   1.000  H
  C47      1.0000 0.51682  0.27311  0.27567  Biso   1.000  C
  H62      1.0000 0.62335  0.42025  0.33662  Biso   1.000  H
  H63      1.0000 0.64371  0.30612  0.36769  Biso   1.000  H
  O19      1.0000 0.05830  0.45757  0.39422  Biso   1.000  O
  H64      1.0000 0.16887  0.59101  0.43513  Biso   1.000  H
  H65      1.0000 0.06508  0.56074  0.47892  Biso   1.000  H
  H66      1.0000 0.04104  0.30844  0.41091  Biso   1.000  H
  H67      1.0000 0.99908  0.40807  0.46673  Biso   1.000  H
  O20      1.0000 0.47858  0.15823  0.28545  Biso   1.000  O
  H68      1.0000 0.57541  0.26770  0.24250  Biso   1.000  H
  H69      1.0000 0.44313  0.30799  0.25589  Biso   1.000  H
  C48      1.0000 0.95428  0.49185  0.35498  Biso   1.000  C
  C49      1.0000 0.42516  0.07471  0.22691  Biso   1.000  C
  C50      1.0000 0.91303  0.41021  0.28613  Biso   1.000  C
  H70      1.0000 0.88494  0.49447  0.38130  Biso   1.000  H
  H71      1.0000 0.97547  0.57146  0.34760  Biso   1.000  H
  C51      1.0000 0.40862  0.09203  0.15921  Biso   1.000  C
  C52      1.0000 0.38816  0.96474  0.23941  Biso   1.000  C
  O21      1.0000 0.86328  0.29975  0.29654  Biso   1.000  O
  H72      1.0000 0.98460  0.39976  0.26180  Biso   1.000  H
  H73      1.0000 0.84832  0.44275  0.25662  Biso   1.000  H
  H74      1.0000 0.43242  0.16661  0.15068  Biso   1.000  H
  C53      1.0000 0.35710  0.99982  0.10359  Biso   1.000  C
  C54      1.0000 0.33663  0.87326  0.18296  Biso   1.000  C
  C55      1.0000 0.41064  0.94140  0.31177  Biso   1.000  C
  C56      1.0000 0.81804  0.21452  0.23800  Biso   1.000  C
  H75      1.0000 0.34603  0.01216  0.05718  Biso   1.000  H
  C57      1.0000 0.32162  0.89029  0.11494  Biso   1.000  C
  H76      1.0000 0.31161  0.79862  0.19112  Biso   1.000  H
  O22      1.0000 0.31631  0.99182  0.34954  Biso   1.000  O
  H77      1.0000 0.49528  0.97696  0.33683  Biso   1.000  H
  H78      1.0000 0.40517  0.85624  0.30931  Biso   1.000  H
  C58      1.0000 0.77675  0.10562  0.24993  Biso   1.000  C
  C59      1.0000 0.80683  0.22975  0.16946  Biso   1.000  C
  O23      1.0000 0.27478  0.80440  0.05645  Biso   1.000  O
  C60      1.0000 0.32777  0.97447  0.41473  Biso   1.000  C
  C61      1.0000 0.77714  0.08965  0.32307  Biso   1.000  C
  C62      1.0000 0.72620  0.01437  0.19363  Biso   1.000  C
  C63      1.0000 0.75698  0.13899  0.11385  Biso   1.000  C
  H79      1.0000 0.83387  0.30358  0.16098  Biso   1.000  H
  C64      1.0000 0.25332  0.68729  0.06644  Biso   1.000  C
  C65      1.0000 0.24173  0.03889  0.45632  Biso   1.000  C
  O24      1.0000 0.40210  0.91628  0.43911  Biso   1.000  O
  O25      1.0000 0.90382  0.08464  0.35864  Biso   1.000  O
  H80      1.0000 0.72439  0.01658  0.32171  Biso   1.000  H
  H81      1.0000 0.74148  0.15553  0.34933  Biso   1.000  H
  H82      1.0000 0.69855  0.94030  0.20169  Biso   1.000  H
  C66      1.0000 0.71595  0.03106  0.12515  Biso   1.000  C
  H83      1.0000 0.75086  0.15063  0.06739  Biso   1.000  H
  C67      1.0000 0.21178  0.60810  0.99655  Biso   1.000  C
  H84      1.0000 0.33100  0.66431  0.09088  Biso   1.000  H
  H85      1.0000 0.18834  0.68237  0.09532  Biso   1.000  H
  N2       1.0000 0.13290  0.05975  0.42211  Biso   1.000  N
  C68      1.0000 0.28325  0.07336  0.52774  Biso   1.000  C
  C69      1.0000 0.93153  0.13494  0.42655  Biso   1.000  C
  O26      1.0000 0.66674  0.94597  0.06676  Biso   1.000  O
  O27      1.0000 0.09320  0.63304  0.96489  Biso   1.000  O
  H86      1.0000 0.27338  0.61863  0.96641  Biso   1.000  H
  H87      1.0000 0.20602  0.52564  0.00167  Biso   1.000  H
  C70      1.0000 0.05870  0.11620  0.46098  Biso   1.000  C
  H88      1.0000 0.36159  0.05559  0.54929  Biso   1.000  H
  C71      1.0000 0.20638  0.13526  0.56682  Biso   1.000  C
  O28      1.0000 0.86107  0.18768  0.45836  Biso   1.000  O
  C72      1.0000 0.62255  0.83453  0.07827  Biso   1.000  C
  C73      1.0000 0.03509  0.54176  0.90781  Biso   1.000  C
  C74      1.0000 0.09250  0.15584  0.53323  Biso   1.000  C
  H89      1.0000 0.23223  0.16264  0.61589  Biso   1.000  H
  C75      1.0000 0.56602  0.75591  0.00973  Biso   1.000  C
  H90      1.0000 0.69281  0.79978  0.10202  Biso   1.000  H
  H91      1.0000 0.55955  0.84418  0.10872  Biso   1.000  H
  C76      1.0000 0.92351  0.58109  0.86790  Biso   1.000  C
  H92      1.0000 0.09509  0.52005  0.87658  Biso   1.000  H
  H93      1.0000 0.00918  0.47210  0.92539  Biso   1.000  H
  H94      1.0000 0.03751  0.19672  0.55881  Biso   1.000  H
  O29      1.0000 0.66076  0.73157  0.96966  Biso   1.000  O
  H95      1.0000 0.50123  0.79401  0.98410  Biso   1.000  H
  H96      1.0000 0.52613  0.68214  0.01742  Biso   1.000  H
  O30      1.0000 0.82797  0.59045  0.90740  Biso   1.000  O
  H97      1.0000 0.89329  0.52424  0.82311  Biso   1.000  H
  H98      1.0000 0.94702  0.65790  0.85722  Biso   1.000  H
  C77      1.0000 0.62001  0.63462  0.91320  Biso   1.000  C
  C78      1.0000 0.71849  0.62117  0.86894  Biso   1.000  C
  H99      1.0000 0.60530  0.56298  0.93120  Biso   1.000  H
  H100     1.0000 0.54054  0.64726  0.88490  Biso   1.000  H
  H101     1.0000 0.73804  0.69532  0.85440  Biso   1.000  H
  H102     1.0000 0.68715  0.55953  0.82630  Biso   1.000  H
  Ne1      1.0000 0.09372  0.06445  0.25636  Biso   1.000  Ne
  He1      1.0000 0.96755  0.85103  0.08021  Biso   1.000  He
  He2      1.0000 0.16296  0.22049  0.27165  Biso   1.000  He
  Ar1      1.0000 0.07293  0.04648  0.19457  Biso   1.000  Ar
  Ne2      1.0000 0.90641  0.93570  0.74365  Biso   1.000  Ne
  He3      1.0000 0.01583  0.06267  0.96659  Biso   1.000  He
  He4      1.0000 0.01648  0.14832  0.87398  Biso   1.000  He
  Ar2      1.0000 0.94045  0.96340  0.82502  Biso   1.000  Ar
