data_image0
_cell_length_a       16.473
_cell_length_b       21.07
_cell_length_c       22.267
_cell_angle_alpha    101.2
_cell_angle_beta     100
_cell_angle_gamma    108.2

_symmetry_space_group_name_H-M    "P 1"
_symmetry_int_tables_number       1

loop_
  _symmetry_equiv_pos_as_xyz
  'x, y, z'

loop_
  _atom_site_label
  _atom_site_occupancy
  _atom_site_fract_x
  _atom_site_fract_y
  _atom_site_fract_z
  _atom_site_thermal_displace_type
  _atom_site_B_iso_or_equiv
  _atom_site_type_symbol
  C1       1.0000 0.60614  0.37080  0.50839  Biso   1.000  C
  C2       1.0000 0.56559  0.30068  0.47722  Biso   1.000  C
  H1       1.0000 0.57103  0.39779  0.51771  Biso   1.000  H
  C3       1.0000 0.69651  0.40110  0.52580  Biso   1.000  C
  O1       1.0000 0.47680  0.26455  0.45915  Biso   1.000  O
  C4       1.0000 0.61841  0.26194  0.46275  Biso   1.000  C
  C5       1.0000 0.74931  0.36258  0.51189  Biso   1.000  C
  H2       1.0000 0.72349  0.44888  0.54751  Biso   1.000  H
  C6       1.0000 0.42001  0.30139  0.47519  Biso   1.000  C
  C7       1.0000 0.57555  0.18661  0.42878  Biso   1.000  C
  C8       1.0000 0.70943  0.29316  0.48006  Biso   1.000  C
  O2       1.0000 0.83912  0.39773  0.53209  Biso   1.000  O
  C9       1.0000 0.32694  0.25050  0.45158  Biso   1.000  C
  H3       1.0000 0.42762  0.34007  0.45499  Biso   1.000  H
  H4       1.0000 0.43442  0.32068  0.52159  Biso   1.000  H
  O3       1.0000 0.54679  0.14966  0.47519  Biso   1.000  O
  H5       1.0000 0.52422  0.17900  0.39402  Biso   1.000  H
  H6       1.0000 0.61801  0.16958  0.41057  Biso   1.000  H
  H7       1.0000 0.74470  0.26670  0.46998  Biso   1.000  H
  C10      1.0000 0.89260  0.35810  0.51833  Biso   1.000  C
  O4       1.0000 0.31185  0.20163  0.48810  Biso   1.000  O
  H8       1.0000 0.28531  0.27550  0.45437  Biso   1.000  H
  H9       1.0000 0.31633  0.22600  0.40669  Biso   1.000  H
  C11      1.0000 0.47517  0.09277  0.45362  Biso   1.000  C
  H10      1.0000 0.87950  0.33868  0.47202  Biso   1.000  H
  H11      1.0000 0.87992  0.31920  0.53829  Biso   1.000  H
  C12      1.0000 0.98721  0.40360  0.54316  Biso   1.000  C
  C13      1.0000 0.22574  0.15121  0.46592  Biso   1.000  C
  O5       1.0000 0.43431  0.06910  0.39870  Biso   1.000  O
  C14      1.0000 0.45040  0.06059  0.50475  Biso   1.000  C
  H12      1.0000 0.99761  0.44622  0.52840  Biso   1.000  H
  O6       1.0000 0.01090  0.42167  0.61023  Biso   1.000  O
  H13      1.0000 0.02465  0.37930  0.52679  Biso   1.000  H
  H14      1.0000 0.21620  0.12619  0.42131  Biso   1.000  H
  H15      1.0000 0.18161  0.17399  0.46800  Biso   1.000  H
  C15      1.0000 0.21468  0.10138  0.50570  Biso   1.000  C
  N1       1.0000 0.50514  0.08826  0.56260  Biso   1.000  N
  C16      1.0000 0.37332  0.00281  0.48990  Biso   1.000  C
  C17      1.0000 0.10281  0.45828  0.63511  Biso   1.000  C
  O7       1.0000 0.21645  0.13402  0.56757  Biso   1.000  O
  H16      1.0000 0.15779  0.06237  0.48668  Biso   1.000  H
  H17      1.0000 0.26267  0.08247  0.50697  Biso   1.000  H
  C18      1.0000 0.48255  0.05982  0.60839  Biso   1.000  C
  H18      1.0000 0.33760  0.98341  0.44780  Biso   1.000  H
  C19      1.0000 0.35088  0.97459  0.53800  Biso   1.000  C
  C20      1.0000 0.12032  0.49658  0.70270  Biso   1.000  C
  H19      1.0000 0.12453  0.49137  0.61028  Biso   1.000  H
  H20      1.0000 0.13473  0.42538  0.63208  Biso   1.000  H
  C21      1.0000 0.20659  0.08717  0.60659  Biso   1.000  C
  C22      1.0000 0.54811  0.09172  0.67201  Biso   1.000  C
  C23      1.0000 0.40529  0.00398  0.59850  Biso   1.000  C
  H21      1.0000 0.29844  0.93537  0.52977  Biso   1.000  H
  O8       1.0000 0.09578  0.44922  0.73979  Biso   1.000  O
  H22      1.0000 0.18389  0.52528  0.71907  Biso   1.000  H
  H23      1.0000 0.08633  0.52791  0.70578  Biso   1.000  H
  C24      1.0000 0.21395  0.12411  0.67309  Biso   1.000  C
  H24      1.0000 0.25280  0.06641  0.60631  Biso   1.000  H
  H25      1.0000 0.14829  0.04928  0.58951  Biso   1.000  H
  O9       1.0000 0.50825  0.08990  0.71865  Biso   1.000  O
  O10      1.0000 0.62674  0.11431  0.67787  Biso   1.000  O
  H26      1.0000 0.39007  0.98621  0.63270  Biso   1.000  H
  C25      1.0000 0.10452  0.48559  0.80279  Biso   1.000  C
  O11      1.0000 0.30262  0.16877  0.70176  Biso   1.000  O
  H27      1.0000 0.17475  0.15141  0.67300  Biso   1.000  H
  H28      1.0000 0.19520  0.08989  0.69750  Biso   1.000  H
  C26      1.0000 0.56645  0.11962  0.78179  Biso   1.000  C
  H29      1.0000 0.06249  0.51047  0.80279  Biso   1.000  H
  H30      1.0000 0.16502  0.52019  0.82039  Biso   1.000  H
  C27      1.0000 0.08635  0.43641  0.84324  Biso   1.000  C
  C28      1.0000 0.31753  0.19590  0.76822  Biso   1.000  C
  C29      1.0000 0.60771  0.19747  0.79972  Biso   1.000  C
  H31      1.0000 0.61401  0.10009  0.78491  Biso   1.000  H
  H32      1.0000 0.53250  0.10559  0.81259  Biso   1.000  H
  O12      1.0000 0.99759  0.38996  0.82115  Biso   1.000  O
  H33      1.0000 0.12663  0.41002  0.84201  Biso   1.000  H
  H34      1.0000 0.09701  0.46271  0.88760  Biso   1.000  H
  C30      1.0000 0.41184  0.24269  0.79527  Biso   1.000  C
  H35      1.0000 0.30404  0.15740  0.78870  Biso   1.000  H
  H36      1.0000 0.27816  0.22201  0.77640  Biso   1.000  H
  C31      1.0000 0.55593  0.23826  0.80767  Biso   1.000  C
  C32      1.0000 0.69873  0.22949  0.81259  Biso   1.000  C
  C33      1.0000 0.97772  0.34519  0.86131  Biso   1.000  C
  O13      1.0000 0.46662  0.20256  0.79333  Biso   1.000  O
  H37      1.0000 0.43195  0.29167  0.81131  Biso   1.000  H
  C34      1.0000 0.59599  0.30977  0.83075  Biso   1.000  C
  C35      1.0000 0.73873  0.30131  0.83463  Biso   1.000  C
  H38      1.0000 0.73413  0.20211  0.80620  Biso   1.000  H
  C36      1.0000 0.88350  0.29779  0.83851  Biso   1.000  C
  H39      1.0000 0.98864  0.37307  0.90511  Biso   1.000  H
  H40      1.0000 0.01661  0.31767  0.86149  Biso   1.000  H
  H41      1.0000 0.56104  0.33747  0.83770  Biso   1.000  H
  C37      1.0000 0.68652  0.34069  0.84361  Biso   1.000  C
  O14      1.0000 0.82824  0.33729  0.84773  Biso   1.000  O
  H42      1.0000 0.87041  0.27408  0.79310  Biso   1.000  H
  H43      1.0000 0.87232  0.26212  0.86220  Biso   1.000  H
  H44      1.0000 0.71333  0.38970  0.85889  Biso   1.000  H
  C38      1.0000 0.39395  0.62920  0.49160  Biso   1.000  C
  C39      1.0000 0.30352  0.59891  0.47419  Biso   1.000  C
  C40      1.0000 0.43442  0.69928  0.52277  Biso   1.000  C
  H45      1.0000 0.42900  0.60221  0.48228  Biso   1.000  H
  C41      1.0000 0.25070  0.63738  0.48810  Biso   1.000  C
  H46      1.0000 0.27652  0.55108  0.45248  Biso   1.000  H
  C42      1.0000 0.38162  0.73806  0.53725  Biso   1.000  C
  O15      1.0000 0.52323  0.73546  0.54084  Biso   1.000  O
  O16      1.0000 0.16097  0.60228  0.46790  Biso   1.000  O
  C43      1.0000 0.29064  0.70679  0.51993  Biso   1.000  C
  C44      1.0000 0.42454  0.81339  0.57121  Biso   1.000  C
  C45      1.0000 0.58003  0.69862  0.52481  Biso   1.000  C
  C46      1.0000 0.10743  0.64190  0.48167  Biso   1.000  C
  H47      1.0000 0.25534  0.73331  0.53001  Biso   1.000  H
  O17      1.0000 0.45322  0.85030  0.52481  Biso   1.000  O
  H48      1.0000 0.47581  0.82101  0.60597  Biso   1.000  H
  H49      1.0000 0.38206  0.83038  0.58942  Biso   1.000  H
  C47      1.0000 0.67316  0.74950  0.54841  Biso   1.000  C
  H50      1.0000 0.57245  0.65988  0.54500  Biso   1.000  H
  H51      1.0000 0.56559  0.67927  0.47840  Biso   1.000  H
  H52      1.0000 0.12051  0.66127  0.52797  Biso   1.000  H
  H53      1.0000 0.12011  0.68081  0.46171  Biso   1.000  H
  C48      1.0000 0.01283  0.59641  0.45683  Biso   1.000  C
  C49      1.0000 0.52484  0.90718  0.54637  Biso   1.000  C
  O18      1.0000 0.68816  0.79833  0.51189  Biso   1.000  O
  H54      1.0000 0.71472  0.72451  0.54562  Biso   1.000  H
  H55      1.0000 0.68371  0.77400  0.59330  Biso   1.000  H
  H56      1.0000 0.00242  0.55379  0.47159  Biso   1.000  H
  O19      1.0000 0.98912  0.57829  0.38976  Biso   1.000  O
  H57      1.0000 0.97544  0.62070  0.47320  Biso   1.000  H
  O20      1.0000 0.56572  0.93091  0.60129  Biso   1.000  O
  C50      1.0000 0.54961  0.93937  0.49524  Biso   1.000  C
  C51      1.0000 0.77435  0.84880  0.53408  Biso   1.000  C
  C52      1.0000 0.89720  0.54167  0.36488  Biso   1.000  C
  N2       1.0000 0.49495  0.91174  0.43739  Biso   1.000  N
  C53      1.0000 0.62671  0.99720  0.51009  Biso   1.000  C
  H58      1.0000 0.78381  0.87377  0.57868  Biso   1.000  H
  H59      1.0000 0.81843  0.82601  0.53200  Biso   1.000  H
  C54      1.0000 0.78533  0.89858  0.49430  Biso   1.000  C
  C55      1.0000 0.87969  0.50337  0.29729  Biso   1.000  C
  H60      1.0000 0.87554  0.50858  0.38971  Biso   1.000  H
  H61      1.0000 0.86534  0.57458  0.36791  Biso   1.000  H
  C56      1.0000 0.51754  0.94019  0.39161  Biso   1.000  C
  H62      1.0000 0.66249  0.01659  0.55219  Biso   1.000  H
  C57      1.0000 0.64913  0.02537  0.46199  Biso   1.000  C
  O21      1.0000 0.78365  0.86599  0.43243  Biso   1.000  O
  H63      1.0000 0.84222  0.93758  0.51331  Biso   1.000  H
  H64      1.0000 0.73734  0.91749  0.49302  Biso   1.000  H
  O22      1.0000 0.90431  0.55078  0.26020  Biso   1.000  O
  H65      1.0000 0.81614  0.47473  0.28092  Biso   1.000  H
  H66      1.0000 0.91370  0.47210  0.29421  Biso   1.000  H
  C58      1.0000 0.45192  0.90829  0.32799  Biso   1.000  C
  C59      1.0000 0.59472  0.99597  0.40149  Biso   1.000  C
  H67      1.0000 0.70156  0.06457  0.47017  Biso   1.000  H
  C60      1.0000 0.79342  0.91278  0.39340  Biso   1.000  C
  C61      1.0000 0.89551  0.51442  0.19720  Biso   1.000  C
  O23      1.0000 0.49176  0.91006  0.28135  Biso   1.000  O
  O24      1.0000 0.37335  0.88570  0.32212  Biso   1.000  O
  H68      1.0000 0.60996  0.01380  0.36729  Biso   1.000  H
  C62      1.0000 0.78615  0.87590  0.32690  Biso   1.000  C
  H69      1.0000 0.74723  0.93360  0.39369  Biso   1.000  H
  H70      1.0000 0.85173  0.95068  0.41048  Biso   1.000  H
  H71      1.0000 0.93752  0.48949  0.19720  Biso   1.000  H
  H72      1.0000 0.83501  0.47982  0.17960  Biso   1.000  H
  C63      1.0000 0.91374  0.56360  0.15676  Biso   1.000  C
  C64      1.0000 0.43365  0.88039  0.21820  Biso   1.000  C
  O25      1.0000 0.69741  0.83124  0.29823  Biso   1.000  O
  H73      1.0000 0.82534  0.84860  0.32699  Biso   1.000  H
  H74      1.0000 0.80483  0.91011  0.30249  Biso   1.000  H
  O26      1.0000 0.00248  0.61000  0.17885  Biso   1.000  O
  H75      1.0000 0.87340  0.58999  0.15799  Biso   1.000  H
  H76      1.0000 0.90302  0.53730  0.11239  Biso   1.000  H
  C65      1.0000 0.39230  0.80248  0.20027  Biso   1.000  C
  H77      1.0000 0.38600  0.89987  0.21508  Biso   1.000  H
  H78      1.0000 0.46753  0.89441  0.18741  Biso   1.000  H
  C66      1.0000 0.68251  0.80410  0.23178  Biso   1.000  C
  C67      1.0000 0.02231  0.65482  0.13869  Biso   1.000  C
  C68      1.0000 0.30130  0.77051  0.18741  Biso   1.000  C
  C69      1.0000 0.44414  0.76170  0.19233  Biso   1.000  C
  C70      1.0000 0.58826  0.75731  0.20472  Biso   1.000  C
  H79      1.0000 0.69606  0.84261  0.21129  Biso   1.000  H
  H80      1.0000 0.72193  0.77799  0.22359  Biso   1.000  H
  H81      1.0000 0.01143  0.62688  0.09489  Biso   1.000  H
  C71      1.0000 0.11653  0.70222  0.16149  Biso   1.000  C
  H82      1.0000 0.98340  0.68229  0.13850  Biso   1.000  H
  C72      1.0000 0.26130  0.69870  0.16536  Biso   1.000  C
  H83      1.0000 0.26590  0.79790  0.19379  Biso   1.000  H
  O27      1.0000 0.53348  0.79745  0.20666  Biso   1.000  O
  C73      1.0000 0.40402  0.69019  0.16924  Biso   1.000  C
  H84      1.0000 0.56812  0.70828  0.18868  Biso   1.000  H
  O28      1.0000 0.17184  0.66266  0.15226  Biso   1.000  O
  H85      1.0000 0.12960  0.72587  0.20689  Biso   1.000  H
  H86      1.0000 0.12771  0.73789  0.13779  Biso   1.000  H
  C74      1.0000 0.31351  0.65931  0.15638  Biso   1.000  C
  H87      1.0000 0.43904  0.66248  0.16229  Biso   1.000  H
  H88      1.0000 0.28671  0.61030  0.14110  Biso   1.000  H
  C75      1.0000 0.61050  0.32640  0.32917  Biso   1.000  C
  C76      1.0000 0.57170  0.25565  0.30083  Biso   1.000  C
  C77      1.0000 0.70134  0.35800  0.34454  Biso   1.000  C
  H89      1.0000 0.57481  0.35302  0.33792  Biso   1.000  H
  O29      1.0000 0.48320  0.21840  0.28357  Biso   1.000  O
  C78      1.0000 0.62500  0.21728  0.28934  Biso   1.000  C
  C79      1.0000 0.75501  0.32051  0.33262  Biso   1.000  C
  H90      1.0000 0.72739  0.40649  0.36370  Biso   1.000  H
  C80      1.0000 0.42529  0.25480  0.29535  Biso   1.000  C
  C81      1.0000 0.71619  0.24921  0.30514  Biso   1.000  C
  C82      1.0000 0.58422  0.14010  0.26427  Biso   1.000  C
  O30      1.0000 0.84430  0.35648  0.34894  Biso   1.000  O
  C83      1.0000 0.33221  0.20430  0.27184  Biso   1.000  C
  H91      1.0000 0.43381  0.29188  0.27321  Biso   1.000  H
  H92      1.0000 0.43823  0.27631  0.34128  Biso   1.000  H
  H93      1.0000 0.75221  0.22262  0.29719  Biso   1.000  H
  O31      1.0000 0.54306  0.12207  0.19616  Biso   1.000  O
  H94      1.0000 0.63012  0.11932  0.27151  Biso   1.000  H
  H95      1.0000 0.53909  0.12139  0.28669  Biso   1.000  H
  C84      1.0000 0.89892  0.31561  0.34137  Biso   1.000  C
  O32      1.0000 0.31029  0.18015  0.20481  Biso   1.000  O
  H96      1.0000 0.32584  0.16470  0.29062  Biso   1.000  H
  H97      1.0000 0.29149  0.22710  0.28480  Biso   1.000  H
  C85      1.0000 0.47207  0.06507  0.17539  Biso   1.000  C
  C86      1.0000 0.99278  0.36290  0.36464  Biso   1.000  C
  H98      1.0000 0.88643  0.29097  0.29620  Biso   1.000  H
  H99      1.0000 0.88651  0.28069  0.36578  Biso   1.000  H
  C87      1.0000 0.22073  0.13549  0.17960  Biso   1.000  C
  C88      1.0000 0.43313  0.04405  0.10553  Biso   1.000  C
  O33      1.0000 0.44153  0.03073  0.20898  Biso   1.000  O
  O34      1.0000 0.01493  0.40485  0.32269  Biso   1.000  O
  H100     1.0000 0.00249  0.39277  0.40740  Biso   1.000  H
  H101     1.0000 0.03154  0.33531  0.36772  Biso   1.000  H
  H102     1.0000 0.18168  0.16300  0.18159  Biso   1.000  H
  H103     1.0000 0.20489  0.10179  0.20491  Biso   1.000  H
  C89      1.0000 0.20820  0.09769  0.11220  Biso   1.000  C
  N3       1.0000 0.47373  0.07939  0.06835  Biso   1.000  N
  C90      1.0000 0.35685  0.98608  0.08249  Biso   1.000  C
  C91      1.0000 0.10460  0.44928  0.34303  Biso   1.000  C
  O35      1.0000 0.21912  0.14353  0.07294  Biso   1.000  O
  H104     1.0000 0.25152  0.07418  0.11021  Biso   1.000  H
  H105     1.0000 0.14823  0.06180  0.09649  Biso   1.000  H
  C92      1.0000 0.43852  0.05457  0.00639  Biso   1.000  C
  H106     1.0000 0.32964  0.96321  0.11050  Biso   1.000  H
  C93      1.0000 0.32106  0.96208  0.01821  Biso   1.000  C
  H107     1.0000 0.14314  0.42149  0.34090  Biso   1.000  H
  H108     1.0000 0.11770  0.47631  0.38749  Biso   1.000  H
  C94      1.0000 0.12268  0.49728  0.30192  Biso   1.000  C
  C95      1.0000 0.21471  0.10940  0.01112  Biso   1.000  C
  C96      1.0000 0.36286  0.99567  0.97928  Biso   1.000  C
  C97      1.0000 0.48003  0.08990  0.96145  Biso   1.000  C
  H109     1.0000 0.26803  0.92291  0.00118  Biso   1.000  H
  O36      1.0000 0.11026  0.45920  0.23854  Biso   1.000  O
  H110     1.0000 0.08239  0.52370  0.30277  Biso   1.000  H
  H111     1.0000 0.18413  0.53081  0.31810  Biso   1.000  H
  C98      1.0000 0.22766  0.15911  0.97058  Biso   1.000  C
  H112     1.0000 0.20509  0.06151  0.99678  Biso   1.000  H
  H113     1.0000 0.34076  0.97922  0.93458  Biso   1.000  H
  O37      1.0000 0.54448  0.15102  0.98898  Biso   1.000  O
  O38      1.0000 0.45748  0.06395  0.90488  Biso   1.000  O
  C99      1.0000 0.13349  0.50571  0.20041  Biso   1.000  C
  O39      1.0000 0.31494  0.20805  0.99300  Biso   1.000  O
  H114     1.0000 0.21768  0.13370  0.92602  Biso   1.000  H
  H115     1.0000 0.18489  0.18310  0.97252  Biso   1.000  H
  C100     1.0000 0.58125  0.18722  0.94409  Biso   1.000  C
  C101     1.0000 0.11304  0.46670  0.13315  Biso   1.000  C
  H116     1.0000 0.19729  0.53378  0.21550  Biso   1.000  H
  H117     1.0000 0.10031  0.53759  0.20420  Biso   1.000  H
  C102     1.0000 0.33296  0.25538  0.95530  Biso   1.000  C
  C103     1.0000 0.62486  0.26278  0.97644  Biso   1.000  C
  H118     1.0000 0.53346  0.17992  0.90682  Biso   1.000  H
  H119     1.0000 0.62476  0.16869  0.92952  Biso   1.000  H
  O40      1.0000 0.02080  0.42913  0.11031  Biso   1.000  O
  H120     1.0000 0.13232  0.49931  0.10752  Biso   1.000  H
  H121     1.0000 0.14542  0.43421  0.12932  Biso   1.000  H
  H122     1.0000 0.29215  0.28142  0.95620  Biso   1.000  H
  H123     1.0000 0.32379  0.22982  0.91088  Biso   1.000  H
  C104     1.0000 0.42656  0.30502  0.98046  Biso   1.000  C
  C105     1.0000 0.57199  0.30270  0.98794  Biso   1.000  C
  C106     1.0000 0.71556  0.29427  0.99196  Biso   1.000  C
  C107     1.0000 0.99358  0.40818  0.04347  Biso   1.000  C
  H124     1.0000 0.43824  0.32652  0.02620  Biso   1.000  H
  O41      1.0000 0.48304  0.26665  0.96982  Biso   1.000  O
  H125     1.0000 0.43746  0.34222  0.95842  Biso   1.000  H
  C108     1.0000 0.61250  0.37362  0.01656  Biso   1.000  C
  C109     1.0000 0.75549  0.36493  0.02034  Biso   1.000  C
  H126     1.0000 0.75096  0.26742  0.98311  Biso   1.000  H
  C110     1.0000 0.89908  0.36129  0.02223  Biso   1.000  C
  H127     1.0000 0.03068  0.38379  0.02658  Biso   1.000  H
  H128     1.0000 0.00110  0.44948  0.02691  Biso   1.000  H
  H129     1.0000 0.57759  0.40108  0.02488  Biso   1.000  H
  C111     1.0000 0.70318  0.40378  0.03264  Biso   1.000  C
  O42      1.0000 0.84553  0.40017  0.03827  Biso   1.000  O
  H130     1.0000 0.88981  0.32309  0.04309  Biso   1.000  H
  H131     1.0000 0.88281  0.34092  0.97592  Biso   1.000  H
  H132     1.0000 0.73034  0.45210  0.05241  Biso   1.000  H
  C112     1.0000 0.38953  0.67361  0.67082  Biso   1.000  C
  C113     1.0000 0.29875  0.64201  0.65545  Biso   1.000  C
  C114     1.0000 0.42833  0.74435  0.69916  Biso   1.000  C
  H133     1.0000 0.42522  0.64698  0.66207  Biso   1.000  H
  H134     1.0000 0.27262  0.59347  0.63629  Biso   1.000  H
  C115     1.0000 0.24502  0.67950  0.66737  Biso   1.000  C
  C116     1.0000 0.37503  0.78272  0.71065  Biso   1.000  C
  O43      1.0000 0.51683  0.78160  0.71642  Biso   1.000  O
  O44      1.0000 0.15573  0.64353  0.65105  Biso   1.000  O
  C117     1.0000 0.28384  0.75080  0.69485  Biso   1.000  C
  C118     1.0000 0.41582  0.85991  0.73572  Biso   1.000  C
  C119     1.0000 0.57474  0.74520  0.70464  Biso   1.000  C
  C120     1.0000 0.10111  0.68440  0.65862  Biso   1.000  C
  H135     1.0000 0.24782  0.77739  0.70280  Biso   1.000  H
  O45      1.0000 0.45695  0.87788  0.80383  Biso   1.000  O
  H136     1.0000 0.36991  0.88069  0.72848  Biso   1.000  H
  H137     1.0000 0.46095  0.87862  0.71330  Biso   1.000  H
  H138     1.0000 0.56620  0.70808  0.72678  Biso   1.000  H
  H139     1.0000 0.56186  0.72369  0.65871  Biso   1.000  H
  C121     1.0000 0.66782  0.79571  0.72815  Biso   1.000  C
  C122     1.0000 0.00725  0.63711  0.63535  Biso   1.000  C
  H140     1.0000 0.11364  0.70898  0.70379  Biso   1.000  H
  H141     1.0000 0.11352  0.71931  0.63421  Biso   1.000  H
  C123     1.0000 0.52794  0.93488  0.82460  Biso   1.000  C
  O46      1.0000 0.68980  0.81986  0.79518  Biso   1.000  O
  H142     1.0000 0.67425  0.83531  0.70937  Biso   1.000  H
  H143     1.0000 0.70854  0.77290  0.71519  Biso   1.000  H
  O47      1.0000 0.98510  0.59516  0.67730  Biso   1.000  O
  H144     1.0000 0.99752  0.60718  0.59259  Biso   1.000  H
  H145     1.0000 0.96850  0.66469  0.63227  Biso   1.000  H
  C124     1.0000 0.56697  0.95596  0.89446  Biso   1.000  C
  O48      1.0000 0.55855  0.96923  0.79102  Biso   1.000  O
  C125     1.0000 0.77936  0.86451  0.82039  Biso   1.000  C
  C126     1.0000 0.89541  0.55067  0.65696  Biso   1.000  C
  N4       1.0000 0.52634  0.92056  0.93164  Biso   1.000  N
  C127     1.0000 0.64316  0.01387  0.91750  Biso   1.000  C
  H146     1.0000 0.81835  0.83701  0.81840  Biso   1.000  H
  H147     1.0000 0.79512  0.89817  0.79508  Biso   1.000  H
  C128     1.0000 0.79183  0.90231  0.88779  Biso   1.000  C
  H148     1.0000 0.85694  0.57847  0.65909  Biso   1.000  H
  H149     1.0000 0.88233  0.52370  0.61250  Biso   1.000  H
  C129     1.0000 0.87733  0.50268  0.69807  Biso   1.000  C
  C130     1.0000 0.56157  0.94544  0.99361  Biso   1.000  C
  H150     1.0000 0.67040  0.03680  0.88950  Biso   1.000  H
  C131     1.0000 0.67895  0.03787  0.98178  Biso   1.000  C
  O49      1.0000 0.78091  0.85648  0.92705  Biso   1.000  O
  H151     1.0000 0.74855  0.92577  0.88978  Biso   1.000  H
  H152     1.0000 0.85186  0.93821  0.90350  Biso   1.000  H
  O50      1.0000 0.88983  0.54081  0.76145  Biso   1.000  O
  H153     1.0000 0.91765  0.47630  0.69722  Biso   1.000  H
  H154     1.0000 0.81590  0.46920  0.68189  Biso   1.000  H
  C132     1.0000 0.52000  0.91010  0.03854  Biso   1.000  C
  C133     1.0000 0.63721  0.00429  0.02071  Biso   1.000  C
  H155     1.0000 0.73200  0.07710  0.99881  Biso   1.000  H
  C134     1.0000 0.78532  0.89061  0.98888  Biso   1.000  C
  C135     1.0000 0.86654  0.49430  0.79958  Biso   1.000  C
  O51      1.0000 0.45561  0.84898  0.01101  Biso   1.000  O
  O52      1.0000 0.54261  0.93606  0.09511  Biso   1.000  O
  H156     1.0000 0.65928  0.02079  0.06541  Biso   1.000  H
  C136     1.0000 0.77237  0.84090  0.02941  Biso   1.000  C
  H157     1.0000 0.79501  0.93849  0.00321  Biso   1.000  H
  C137     1.0000 0.88705  0.53330  0.86684  Biso   1.000  C
  H158     1.0000 0.80272  0.46617  0.78449  Biso   1.000  H
  H159     1.0000 0.89971  0.46237  0.79579  Biso   1.000  H
  C138     1.0000 0.41878  0.81279  0.05590  Biso   1.000  C
  O53      1.0000 0.68509  0.79196  0.00699  Biso   1.000  O
  H160     1.0000 0.78235  0.86630  0.07397  Biso   1.000  H
  H161     1.0000 0.81520  0.81690  0.02747  Biso   1.000  H
  O54      1.0000 0.97922  0.57083  0.88969  Biso   1.000  O
  H162     1.0000 0.86772  0.50069  0.89248  Biso   1.000  H
  H163     1.0000 0.85461  0.56579  0.87067  Biso   1.000  H
  C139     1.0000 0.37518  0.73722  0.02355  Biso   1.000  C
  H164     1.0000 0.46657  0.82008  0.09318  Biso   1.000  H
  H165     1.0000 0.37525  0.83126  0.07047  Biso   1.000  H
  C140     1.0000 0.66706  0.74458  0.04469  Biso   1.000  C
  C141     1.0000 0.00643  0.59177  0.95652  Biso   1.000  C
  C142     1.0000 0.28447  0.70573  0.00803  Biso   1.000  C
  C143     1.0000 0.42810  0.69731  0.01205  Biso   1.000  C
  H166     1.0000 0.70788  0.71858  0.04379  Biso   1.000  H
  H167     1.0000 0.67630  0.77019  0.08911  Biso   1.000  H
  C144     1.0000 0.57347  0.69499  0.01953  Biso   1.000  C
  C145     1.0000 0.10093  0.63867  0.97776  Biso   1.000  C
  H168     1.0000 0.96933  0.61617  0.97341  Biso   1.000  H
  H169     1.0000 0.99892  0.55048  0.97308  Biso   1.000  H
  C146     1.0000 0.24452  0.63502  0.97965  Biso   1.000  C
  H170     1.0000 0.24907  0.73259  0.01688  Biso   1.000  H
  C147     1.0000 0.38753  0.62638  0.98344  Biso   1.000  C
  O55      1.0000 0.51697  0.73331  0.03017  Biso   1.000  O
  H171     1.0000 0.56185  0.67348  0.97379  Biso   1.000  H
  H172     1.0000 0.56257  0.65779  0.04157  Biso   1.000  H
  O56      1.0000 0.15448  0.59978  0.96173  Biso   1.000  O
  H173     1.0000 0.11022  0.67691  0.95690  Biso   1.000  H
  H174     1.0000 0.11729  0.65909  0.02407  Biso   1.000  H
  C148     1.0000 0.29683  0.59617  0.96735  Biso   1.000  C
  H175     1.0000 0.42242  0.59888  0.97511  Biso   1.000  H
  H176     1.0000 0.26975  0.54790  0.94758  Biso   1.000  H
  Ne1      1.0000 0.61283  0.24519  0.13432  Biso   1.000  Ne
  He1      1.0000 0.53609  0.30430  0.14882  Biso   1.000  He
  He2      1.0000 0.78876  0.29703  0.16356  Biso   1.000  He
  Ar1      1.0000 0.66079  0.30184  0.15539  Biso   1.000  Ar
  Ne2      1.0000 0.61184  0.24027  0.63208  Biso   1.000  Ne
  He3      1.0000 0.56391  0.29070  0.64984  Biso   1.000  He
  He4      1.0000 0.81379  0.23503  0.63933  Biso   1.000  He
  Ar2      1.0000 0.65073  0.29224  0.65403  Biso   1.000  Ar
  Ne3      1.0000 0.38820  0.75971  0.36791  Biso   1.000  Ne
  He5      1.0000 0.21948  0.85157  0.44109  Biso   1.000  He
  He6      1.0000 0.18104  0.55298  0.28087  Biso   1.000  He
  Ar3      1.0000 0.34932  0.70775  0.34596  Biso   1.000  Ar
  Ne4      1.0000 0.38721  0.75480  0.86568  Biso   1.000  Ne
  He7      1.0000 0.21013  0.69606  0.83305  Biso   1.000  He
  He8      1.0000 0.16146  0.55685  0.78750  Biso   1.000  He
  Ar4      1.0000 0.33918  0.69823  0.84464  Biso   1.000  Ar
