data_image0
_cell_length_a       10.333
_cell_length_b       19.779
_cell_length_c       15.662
_cell_angle_alpha    90
_cell_angle_beta     91.4
_cell_angle_gamma    90

_symmetry_space_group_name_H-M    "P 1"
_symmetry_int_tables_number       1

loop_
  _symmetry_equiv_pos_as_xyz
  'x, y, z'

loop_
  _atom_site_label
  _atom_site_occupancy
  _atom_site_fract_x
  _atom_site_fract_y
  _atom_site_fract_z
  _atom_site_thermal_displace_type
  _atom_site_B_iso_or_equiv
  _atom_site_type_symbol
  C1       1.0000 0.71575  0.43875  0.49600  Biso   1.000  C
  C2       1.0000 0.72545  0.42515  0.40262  Biso   1.000  C
  O1       1.0000 0.72982  0.37509  0.53898  Biso   1.000  O
  H1       1.0000 0.78497  0.47030  0.51516  Biso   1.000  H
  H2       1.0000 0.63085  0.45922  0.50839  Biso   1.000  H
  O2       1.0000 0.61610  0.38627  0.37414  Biso   1.000  O
  H3       1.0000 0.72795  0.46838  0.37088  Biso   1.000  H
  H4       1.0000 0.80624  0.40002  0.39157  Biso   1.000  H
  C3       1.0000 0.72646  0.37515  0.62603  Biso   1.000  C
  C4       1.0000 0.63325  0.36038  0.29092  Biso   1.000  C
  C5       1.0000 0.71524  0.43314  0.67572  Biso   1.000  C
  C6       1.0000 0.73578  0.31149  0.66340  Biso   1.000  C
  C7       1.0000 0.51376  0.32464  0.26058  Biso   1.000  C
  H5       1.0000 0.70739  0.32858  0.29137  Biso   1.000  H
  H6       1.0000 0.65278  0.39790  0.25138  Biso   1.000  H
  H7       1.0000 0.70819  0.47652  0.64998  Biso   1.000  H
  C8       1.0000 0.71457  0.42591  0.76482  Biso   1.000  C
  C9       1.0000 0.73216  0.30563  0.75109  Biso   1.000  C
  H8       1.0000 0.74466  0.27241  0.62878  Biso   1.000  H
  O3       1.0000 0.41404  0.37317  0.24647  Biso   1.000  O
  H9       1.0000 0.53065  0.30012  0.20700  Biso   1.000  H
  H10      1.0000 0.48682  0.29142  0.30401  Biso   1.000  H
  C10      1.0000 0.72312  0.36321  0.80237  Biso   1.000  C
  C11      1.0000 0.70233  0.48703  0.82096  Biso   1.000  C
  O4       1.0000 0.73628  0.24526  0.79445  Biso   1.000  O
  C12      1.0000 0.31006  0.35032  0.19301  Biso   1.000  C
  H11      1.0000 0.72294  0.35902  0.86279  Biso   1.000  H
  O5       1.0000 0.57077  0.49062  0.84612  Biso   1.000  O
  H12      1.0000 0.76054  0.48289  0.87186  Biso   1.000  H
  H13      1.0000 0.72612  0.52839  0.78934  Biso   1.000  H
  C13      1.0000 0.76578  0.18590  0.74700  Biso   1.000  C
  C14      1.0000 0.22957  0.29501  0.23024  Biso   1.000  C
  H14      1.0000 0.34579  0.33389  0.13872  Biso   1.000  H
  H15      1.0000 0.25294  0.38920  0.17940  Biso   1.000  H
  C15      1.0000 0.55124  0.53678  0.91465  Biso   1.000  C
  C16      1.0000 0.74171  0.12604  0.80263  Biso   1.000  C
  H16      1.0000 0.85748  0.18681  0.73007  Biso   1.000  H
  H17      1.0000 0.71043  0.18348  0.69469  Biso   1.000  H
  O6       1.0000 0.18337  0.31579  0.31027  Biso   1.000  O
  H18      1.0000 0.15553  0.28459  0.19109  Biso   1.000  H
  H19      1.0000 0.28238  0.25360  0.23740  Biso   1.000  H
  C17      1.0000 0.57357  0.60913  0.89038  Biso   1.000  C
  H20      1.0000 0.61061  0.52480  0.96287  Biso   1.000  H
  H21      1.0000 0.46149  0.53188  0.93445  Biso   1.000  H
  O7       1.0000 0.60563  0.11628  0.80493  Biso   1.000  O
  H22      1.0000 0.78401  0.08539  0.77919  Biso   1.000  H
  H23      1.0000 0.77736  0.13418  0.86100  Biso   1.000  H
  C18      1.0000 0.07824  0.27570  0.33837  Biso   1.000  C
  C19      1.0000 0.50445  0.63042  0.80876  Biso   1.000  C
  H24      1.0000 0.66769  0.61641  0.88406  Biso   1.000  H
  H25      1.0000 0.54483  0.63851  0.93739  Biso   1.000  H
  C20      1.0000 0.57169  0.05683  0.85015  Biso   1.000  C
  C21      1.0000 0.06764  0.28030  0.43373  Biso   1.000  C
  H26      1.0000 0.09185  0.22802  0.32157  Biso   1.000  H
  H27      1.0000 0.99679  0.29162  0.31059  Biso   1.000  H
  C22      1.0000 0.36090  0.61535  0.80276  Biso   1.000  C
  H28      1.0000 0.54660  0.60782  0.76047  Biso   1.000  H
  H29      1.0000 0.51647  0.67971  0.80154  Biso   1.000  H
  C23      1.0000 0.42995  0.04581  0.83795  Biso   1.000  C
  H30      1.0000 0.59381  0.06209  0.91165  Biso   1.000  H
  H31      1.0000 0.62004  0.01749  0.82817  Biso   1.000  H
  O8       1.0000 0.04754  0.34966  0.45538  Biso   1.000  O
  H32      1.0000 0.14796  0.26331  0.46208  Biso   1.000  H
  H33      1.0000 0.99423  0.25249  0.45301  Biso   1.000  H
  C24      1.0000 0.29603  0.64624  0.72356  Biso   1.000  C
  H34      1.0000 0.31887  0.63320  0.85430  Biso   1.000  H
  H35      1.0000 0.34799  0.56570  0.80167  Biso   1.000  H
  O9       1.0000 0.35844  0.09667  0.88010  Biso   1.000  O
  H36      1.0000 0.40724  0.04641  0.77619  Biso   1.000  H
  H37      1.0000 0.40650  0.00091  0.86075  Biso   1.000  H
  C25      1.0000 0.04781  0.36503  0.54109  Biso   1.000  C
  C26      1.0000 0.15899  0.62334  0.70517  Biso   1.000  C
  H38      1.0000 0.29598  0.69599  0.73007  Biso   1.000  H
  H39      1.0000 0.34886  0.63532  0.67355  Biso   1.000  H
  C27      1.0000 0.22223  0.08504  0.87090  Biso   1.000  C
  C28      1.0000 0.05367  0.31721  0.60528  Biso   1.000  C
  C29      1.0000 0.04283  0.43359  0.56076  Biso   1.000  C
  O10      1.0000 0.16182  0.55336  0.68224  Biso   1.000  O
  H40      1.0000 0.10591  0.62981  0.75626  Biso   1.000  H
  H41      1.0000 0.12036  0.65029  0.65765  Biso   1.000  H
  C30      1.0000 0.14760  0.13757  0.91765  Biso   1.000  C
  H42      1.0000 0.20119  0.03969  0.89338  Biso   1.000  H
  H43      1.0000 0.19672  0.08610  0.80946  Biso   1.000  H
  H44      1.0000 0.05831  0.27049  0.59186  Biso   1.000  H
  C31      1.0000 0.05246  0.33849  0.69022  Biso   1.000  C
  H45      1.0000 0.03896  0.46620  0.51631  Biso   1.000  H
  C32      1.0000 0.04342  0.45392  0.64468  Biso   1.000  C
  C33      1.0000 0.03564  0.52834  0.66710  Biso   1.000  C
  O11      1.0000 0.15754  0.20092  0.87505  Biso   1.000  O
  H46      1.0000 0.05546  0.12402  0.92014  Biso   1.000  H
  H47      1.0000 0.18231  0.14172  0.97699  Biso   1.000  H
  O12      1.0000 0.05368  0.28707  0.74904  Biso   1.000  O
  C34      1.0000 0.04906  0.40639  0.71072  Biso   1.000  C
  H48      1.0000 0.99323  0.55362  0.61945  Biso   1.000  H
  H49      1.0000 0.98345  0.53441  0.71871  Biso   1.000  H
  C35      1.0000 0.04874  0.24298  0.89019  Biso   1.000  C
  C36      1.0000 0.05501  0.30558  0.83724  Biso   1.000  C
  H50      1.0000 0.05043  0.42050  0.76865  Biso   1.000  H
  H51      1.0000 0.04743  0.25532  0.95144  Biso   1.000  H
  H52      1.0000 0.96798  0.21811  0.87588  Biso   1.000  H
  H53      1.0000 0.13509  0.33101  0.85174  Biso   1.000  H
  H54      1.0000 0.97995  0.33500  0.84887  Biso   1.000  H
  O13      1.0000 0.39424  0.61626  0.19505  Biso   1.000  O
  C37      1.0000 0.42817  0.55680  0.14977  Biso   1.000  C
  C38      1.0000 0.25816  0.62602  0.19735  Biso   1.000  C
  H55      1.0000 0.40606  0.56211  0.08827  Biso   1.000  H
  H56      1.0000 0.37992  0.51752  0.17180  Biso   1.000  H
  C39      1.0000 0.57002  0.54578  0.16197  Biso   1.000  C
  H57      1.0000 0.21586  0.58542  0.22079  Biso   1.000  H
  H58      1.0000 0.22251  0.63421  0.13898  Biso   1.000  H
  C40      1.0000 0.23409  0.68593  0.25298  Biso   1.000  C
  O14      1.0000 0.64152  0.59669  0.11982  Biso   1.000  O
  H59      1.0000 0.59263  0.54639  0.22379  Biso   1.000  H
  H60      1.0000 0.59337  0.50088  0.13917  Biso   1.000  H
  O15      1.0000 0.26359  0.74523  0.20553  Biso   1.000  O
  H61      1.0000 0.14239  0.68679  0.26991  Biso   1.000  H
  H62      1.0000 0.28944  0.68350  0.30529  Biso   1.000  H
  C41      1.0000 0.77764  0.58501  0.12908  Biso   1.000  C
  C42      1.0000 0.26781  0.80565  0.24889  Biso   1.000  C
  C43      1.0000 0.85227  0.63760  0.08233  Biso   1.000  C
  H63      1.0000 0.79868  0.53971  0.10660  Biso   1.000  H
  H64      1.0000 0.80315  0.58608  0.19052  Biso   1.000  H
  C44      1.0000 0.26409  0.81152  0.33658  Biso   1.000  C
  C45      1.0000 0.27675  0.86324  0.19761  Biso   1.000  C
  O16      1.0000 0.84233  0.70095  0.12493  Biso   1.000  O
  H65      1.0000 0.94440  0.62400  0.07977  Biso   1.000  H
  H66      1.0000 0.81756  0.64169  0.02299  Biso   1.000  H
  H67      1.0000 0.25530  0.77238  0.37120  Biso   1.000  H
  C46      1.0000 0.27350  0.87512  0.37395  Biso   1.000  C
  C47      1.0000 0.28530  0.92593  0.23516  Biso   1.000  C
  H68      1.0000 0.27702  0.85899  0.13719  Biso   1.000  H
  C48      1.0000 0.95123  0.74301  0.10979  Biso   1.000  C
  O17      1.0000 0.27014  0.87512  0.46100  Biso   1.000  O
  C49      1.0000 0.28463  0.93311  0.32426  Biso   1.000  C
  C50      1.0000 0.29754  0.98701  0.17902  Biso   1.000  C
  C51      1.0000 0.94486  0.80560  0.16267  Biso   1.000  C
  H69      1.0000 0.95244  0.75530  0.04848  Biso   1.000  H
  H70      1.0000 0.03189  0.71808  0.12410  Biso   1.000  H
  C52      1.0000 0.28412  0.93877  0.50398  Biso   1.000  C
  H71      1.0000 0.29168  0.97649  0.35000  Biso   1.000  H
  O18      1.0000 0.42910  0.99065  0.15386  Biso   1.000  O
  H72      1.0000 0.23943  0.98291  0.12812  Biso   1.000  H
  H73      1.0000 0.27374  0.02841  0.21057  Biso   1.000  H
  O19      1.0000 0.94619  0.78705  0.25094  Biso   1.000  O
  H74      1.0000 0.86477  0.83098  0.14817  Biso   1.000  H
  H75      1.0000 0.02002  0.83498  0.15111  Biso   1.000  H
  C53      1.0000 0.27442  0.92517  0.59736  Biso   1.000  C
  H76      1.0000 0.21499  0.97032  0.48476  Biso   1.000  H
  H77      1.0000 0.36902  0.95920  0.49159  Biso   1.000  H
  C54      1.0000 0.44872  0.03676  0.08533  Biso   1.000  C
  C55      1.0000 0.94750  0.83847  0.30976  Biso   1.000  C
  O20      1.0000 0.38377  0.88629  0.62584  Biso   1.000  O
  H78      1.0000 0.27192  0.96840  0.62910  Biso   1.000  H
  H79      1.0000 0.19363  0.89999  0.60841  Biso   1.000  H
  H80      1.0000 0.38926  0.02482  0.03711  Biso   1.000  H
  H81      1.0000 0.53838  0.03190  0.06553  Biso   1.000  H
  C56      1.0000 0.42630  0.10911  0.10960  Biso   1.000  C
  C57      1.0000 0.94629  0.81723  0.39464  Biso   1.000  C
  C58      1.0000 0.95090  0.90637  0.28926  Biso   1.000  C
  C59      1.0000 0.36662  0.86036  0.70906  Biso   1.000  C
  C60      1.0000 0.49552  0.13039  0.19122  Biso   1.000  C
  H82      1.0000 0.33217  0.11639  0.11592  Biso   1.000  H
  H83      1.0000 0.45504  0.13848  0.06259  Biso   1.000  H
  H84      1.0000 0.94156  0.77051  0.40812  Biso   1.000  H
  C61      1.0000 0.95206  0.86501  0.45889  Biso   1.000  C
  H85      1.0000 0.94943  0.92052  0.23127  Biso   1.000  H
  C62      1.0000 0.95645  0.95394  0.35530  Biso   1.000  C
  H86      1.0000 0.29247  0.82861  0.70855  Biso   1.000  H
  H87      1.0000 0.34709  0.89792  0.74860  Biso   1.000  H
  C63      1.0000 0.48611  0.82466  0.73940  Biso   1.000  C
  H88      1.0000 0.45327  0.10779  0.23950  Biso   1.000  H
  H89      1.0000 0.48339  0.17969  0.19837  Biso   1.000  H
  C64      1.0000 0.63897  0.11532  0.19722  Biso   1.000  C
  O21      1.0000 0.95233  0.84969  0.54460  Biso   1.000  O
  C65      1.0000 0.95704  0.93357  0.43922  Biso   1.000  C
  C66      1.0000 0.96423  0.02836  0.33288  Biso   1.000  C
  O22      1.0000 0.58583  0.87320  0.75351  Biso   1.000  O
  H90      1.0000 0.46922  0.80009  0.79298  Biso   1.000  H
  H91      1.0000 0.51305  0.79139  0.69597  Biso   1.000  H
  H92      1.0000 0.68100  0.13322  0.14568  Biso   1.000  H
  H93      1.0000 0.65188  0.06568  0.19831  Biso   1.000  H
  C67      1.0000 0.70384  0.14622  0.27642  Biso   1.000  C
  C68      1.0000 0.93222  0.78027  0.56625  Biso   1.000  C
  H94      1.0000 0.96091  0.96618  0.48367  Biso   1.000  H
  O23      1.0000 0.83805  0.05334  0.31774  Biso   1.000  O
  H95      1.0000 0.00664  0.05359  0.38046  Biso   1.000  H
  H96      1.0000 0.01642  0.03438  0.28127  Biso   1.000  H
  C69      1.0000 0.68981  0.85030  0.80697  Biso   1.000  C
  C70      1.0000 0.84088  0.12336  0.29481  Biso   1.000  C
  H97      1.0000 0.70389  0.19602  0.26991  Biso   1.000  H
  H98      1.0000 0.65101  0.13530  0.32636  Biso   1.000  H
  H99      1.0000 0.85191  0.76328  0.53790  Biso   1.000  H
  C71      1.0000 0.92163  0.77567  0.66161  Biso   1.000  C
  H100     1.0000 0.00564  0.75252  0.54696  Biso   1.000  H
  C72      1.0000 0.77030  0.79504  0.76967  Biso   1.000  C
  H101     1.0000 0.65408  0.83391  0.86126  Biso   1.000  H
  H102     1.0000 0.74693  0.88918  0.82057  Biso   1.000  H
  H103     1.0000 0.89396  0.12978  0.24372  Biso   1.000  H
  H104     1.0000 0.87951  0.15031  0.34227  Biso   1.000  H
  O24      1.0000 0.81650  0.81576  0.68971  Biso   1.000  O
  H105     1.0000 0.90802  0.72799  0.67840  Biso   1.000  H
  H106     1.0000 0.00308  0.79160  0.68939  Biso   1.000  H
  H107     1.0000 0.84434  0.78462  0.80889  Biso   1.000  H
  H108     1.0000 0.71749  0.75358  0.76258  Biso   1.000  H
  Ne1      1.0000 0.38977  0.35072  0.65136  Biso   1.000  Ne
  He1      1.0000 0.40194  0.24498  0.74091  Biso   1.000  He
  He2      1.0000 0.39913  0.34366  0.54168  Biso   1.000  He
  He3      1.0000 0.34776  0.46293  0.45737  Biso   1.000  He
  Ar1      1.0000 0.38898  0.35066  0.65142  Biso   1.000  Ar
  Ne2      1.0000 0.61012  0.85072  0.34861  Biso   1.000  Ne
  He4      1.0000 0.62734  0.90359  0.49357  Biso   1.000  He
  He5      1.0000 0.61490  0.77626  0.28452  Biso   1.000  He
  He6      1.0000 0.60660  0.79561  0.21223  Biso   1.000  He
  Ar2      1.0000 0.61099  0.85065  0.34854  Biso   1.000  Ar
