data_image0
_cell_length_a       12.638
_cell_length_b       30.535
_cell_length_c       15.017
_cell_angle_alpha    90
_cell_angle_beta     102.12
_cell_angle_gamma    90

_symmetry_space_group_name_H-M    "P 1"
_symmetry_int_tables_number       1

loop_
  _symmetry_equiv_pos_as_xyz
  'x, y, z'

loop_
  _atom_site_label
  _atom_site_occupancy
  _atom_site_fract_x
  _atom_site_fract_y
  _atom_site_fract_z
  _atom_site_thermal_displace_type
  _atom_site_B_iso_or_equiv
  _atom_site_type_symbol
  N1       1.0000 0.63769  0.52514  0.47547  Biso   1.000  N
  C1       1.0000 0.58571  0.51321  0.39047  Biso   1.000  C
  C2       1.0000 0.74365  0.50490  0.50088  Biso   1.000  C
  C3       1.0000 0.58878  0.55461  0.53030  Biso   1.000  C
  N2       1.0000 0.64810  0.48616  0.35226  Biso   1.000  N
  O1       1.0000 0.49250  0.52402  0.35369  Biso   1.000  O
  C4       1.0000 0.75160  0.47621  0.41540  Biso   1.000  C
  C5       1.0000 0.75704  0.48001  0.59071  Biso   1.000  C
  N3       1.0000 0.83239  0.53656  0.50326  Biso   1.000  N
  H1       1.0000 0.51070  0.55111  0.51389  Biso   1.000  H
  H2       1.0000 0.61198  0.54629  0.59378  Biso   1.000  H
  N4       1.0000 0.61536  0.60029  0.52042  Biso   1.000  N
  C6       1.0000 0.60944  0.46599  0.26678  Biso   1.000  C
  C7       1.0000 0.76224  0.42649  0.43297  Biso   1.000  C
  N5       1.0000 0.84301  0.49389  0.38502  Biso   1.000  N
  H3       1.0000 0.82773  0.46701  0.60542  Biso   1.000  H
  H4       1.0000 0.70314  0.45741  0.58492  Biso   1.000  H
  H5       1.0000 0.74843  0.49979  0.63832  Biso   1.000  H
  C8       1.0000 0.89185  0.52759  0.43869  Biso   1.000  C
  C9       1.0000 0.86555  0.56990  0.57117  Biso   1.000  C
  C10      1.0000 0.54418  0.62810  0.46600  Biso   1.000  C
  C11      1.0000 0.70801  0.62240  0.57498  Biso   1.000  C
  H6       1.0000 0.53092  0.46589  0.25459  Biso   1.000  H
  H7       1.0000 0.63323  0.43570  0.27046  Biso   1.000  H
  N6       1.0000 0.64391  0.48659  0.19118  Biso   1.000  N
  H8       1.0000 0.69976  0.41611  0.45340  Biso   1.000  H
  H9       1.0000 0.82605  0.42070  0.47881  Biso   1.000  H
  H10      1.0000 0.76751  0.41169  0.37767  Biso   1.000  H
  C12      1.0000 0.88859  0.47791  0.31051  Biso   1.000  C
  O2       1.0000 0.97555  0.54623  0.43168  Biso   1.000  O
  H11      1.0000 0.94256  0.57511  0.57757  Biso   1.000  H
  H12      1.0000 0.85392  0.55929  0.62919  Biso   1.000  H
  N7       1.0000 0.80857  0.61100  0.55019  Biso   1.000  N
  N8       1.0000 0.58845  0.66887  0.47568  Biso   1.000  N
  O3       1.0000 0.45642  0.61814  0.41969  Biso   1.000  O
  C13      1.0000 0.69085  0.67159  0.54201  Biso   1.000  C
  C14      1.0000 0.71328  0.61651  0.67442  Biso   1.000  C
  C15      1.0000 0.57861  0.51488  0.13527  Biso   1.000  C
  C16      1.0000 0.74473  0.47821  0.16142  Biso   1.000  C
  N9       1.0000 0.83890  0.49628  0.22299  Biso   1.000  N
  H13      1.0000 0.96540  0.48449  0.32311  Biso   1.000  H
  H14      1.0000 0.88099  0.44631  0.30731  Biso   1.000  H
  C17      1.0000 0.85277  0.64510  0.51198  Biso   1.000  C
  C18      1.0000 0.53756  0.70549  0.41949  Biso   1.000  C
  C19      1.0000 0.68598  0.70309  0.61891  Biso   1.000  C
  N10      1.0000 0.78350  0.67906  0.50108  Biso   1.000  N
  H15      1.0000 0.77564  0.63150  0.70841  Biso   1.000  H
  H16      1.0000 0.71844  0.58589  0.68906  Biso   1.000  H
  H17      1.0000 0.64907  0.62839  0.68981  Biso   1.000  H
  N11      1.0000 0.62999  0.52848  0.06750  Biso   1.000  N
  O4       1.0000 0.48682  0.52579  0.14031  Biso   1.000  O
  C20      1.0000 0.73622  0.50729  0.07560  Biso   1.000  C
  C21      1.0000 0.75131  0.42902  0.13990  Biso   1.000  C
  C22      1.0000 0.88519  0.52851  0.18492  Biso   1.000  C
  O5       1.0000 0.94350  0.64454  0.49318  Biso   1.000  O
  H18      1.0000 0.46035  0.70031  0.40116  Biso   1.000  H
  H19      1.0000 0.54792  0.73221  0.45531  Biso   1.000  H
  N12      1.0000 0.58230  0.71131  0.33878  Biso   1.000  N
  H20      1.0000 0.75498  0.70368  0.66046  Biso   1.000  H
  H21      1.0000 0.63143  0.69360  0.65051  Biso   1.000  H
  H22      1.0000 0.66856  0.73191  0.59446  Biso   1.000  H
  C23      1.0000 0.81361  0.72160  0.46921  Biso   1.000  C
  C24      1.0000 0.57975  0.55900  0.99680  Biso   1.000  C
  N13      1.0000 0.82446  0.53823  0.10230  Biso   1.000  N
  C25      1.0000 0.74759  0.48069  0.99462  Biso   1.000  C
  H23      1.0000 0.68589  0.42011  0.09903  Biso   1.000  H
  H24      1.0000 0.76010  0.41241  0.19541  Biso   1.000  H
  H25      1.0000 0.81203  0.42391  0.11211  Biso   1.000  H
  O6       1.0000 0.97180  0.54711  0.22061  Biso   1.000  O
  C26      1.0000 0.52402  0.70103  0.25548  Biso   1.000  C
  C27      1.0000 0.66631  0.74318  0.33360  Biso   1.000  C
  H26      1.0000 0.78578  0.74439  0.50292  Biso   1.000  H
  H27      1.0000 0.89196  0.72389  0.48290  Biso   1.000  H
  N14      1.0000 0.77502  0.72900  0.37447  Biso   1.000  N
  N15      1.0000 0.60695  0.60390  0.01669  Biso   1.000  N
  H28      1.0000 0.60099  0.55120  0.94047  Biso   1.000  H
  H29      1.0000 0.50185  0.55579  0.98713  Biso   1.000  H
  C28      1.0000 0.85410  0.57200  0.04379  Biso   1.000  C
  H30      1.0000 0.81374  0.46429  0.00858  Biso   1.000  H
  H31      1.0000 0.68759  0.46082  0.97929  Biso   1.000  H
  H32      1.0000 0.74857  0.49969  0.94401  Biso   1.000  H
  N16      1.0000 0.57283  0.71849  0.18948  Biso   1.000  N
  O7       1.0000 0.43963  0.68017  0.23852  Biso   1.000  O
  C29      1.0000 0.66761  0.74560  0.22939  Biso   1.000  C
  H33      1.0000 0.65003  0.77180  0.35717  Biso   1.000  H
  C30      1.0000 0.83383  0.71934  0.30922  Biso   1.000  C
  C31      1.0000 0.54150  0.63170  0.05122  Biso   1.000  C
  C32      1.0000 0.69955  0.62689  0.99298  Biso   1.000  C
  H34      1.0000 0.93175  0.57639  0.06007  Biso   1.000  H
  N17      1.0000 0.80168  0.61330  0.04843  Biso   1.000  N
  H35      1.0000 0.83676  0.56172  0.98127  Biso   1.000  H
  C33      1.0000 0.53696  0.70889  0.09549  Biso   1.000  C
  N18      1.0000 0.76914  0.72592  0.22531  Biso   1.000  N
  C34      1.0000 0.65712  0.79201  0.19241  Biso   1.000  C
  O8       1.0000 0.92943  0.70758  0.32577  Biso   1.000  O
  N19      1.0000 0.58652  0.67238  0.06198  Biso   1.000  N
  O9       1.0000 0.45382  0.62155  0.06797  Biso   1.000  O
  C35      1.0000 0.68447  0.67500  0.02547  Biso   1.000  C
  C36      1.0000 0.69897  0.62299  0.89171  Biso   1.000  C
  C37      1.0000 0.84931  0.64559  0.10550  Biso   1.000  C
  H36      1.0000 0.45953  0.70391  0.08357  Biso   1.000  H
  H37      1.0000 0.54929  0.73460  0.06089  Biso   1.000  H
  C38      1.0000 0.81189  0.72150  0.14357  Biso   1.000  C
  H38      1.0000 0.58772  0.80360  0.19650  Biso   1.000  H
  H39      1.0000 0.66358  0.79171  0.12982  Biso   1.000  H
  H40      1.0000 0.71321  0.80989  0.22728  Biso   1.000  H
  N20      1.0000 0.78212  0.68132  0.09528  Biso   1.000  N
  C39      1.0000 0.67025  0.70850  0.94851  Biso   1.000  C
  H41      1.0000 0.76016  0.63841  0.87849  Biso   1.000  H
  H42      1.0000 0.63357  0.63560  0.85697  Biso   1.000  H
  H43      1.0000 0.70294  0.59270  0.87590  Biso   1.000  H
  O10      1.0000 0.93831  0.64365  0.15617  Biso   1.000  O
  H44      1.0000 0.78628  0.74590  0.10339  Biso   1.000  H
  H45      1.0000 0.89021  0.72330  0.15999  Biso   1.000  H
  H46      1.0000 0.73517  0.70981  0.92488  Biso   1.000  H
  H47      1.0000 0.65601  0.73679  0.97133  Biso   1.000  H
  H48      1.0000 0.61064  0.69998  0.90083  Biso   1.000  H
  C40      1.0000 0.41137  0.44539  0.46968  Biso   1.000  C
  N21      1.0000 0.38473  0.39971  0.47963  Biso   1.000  N
  H49      1.0000 0.48937  0.44889  0.48610  Biso   1.000  H
  H50      1.0000 0.38817  0.45371  0.40620  Biso   1.000  H
  N22      1.0000 0.36238  0.47486  0.52451  Biso   1.000  N
  C41      1.0000 0.29206  0.37760  0.42500  Biso   1.000  C
  C42      1.0000 0.45598  0.37190  0.53398  Biso   1.000  C
  C43      1.0000 0.41437  0.48679  0.60951  Biso   1.000  C
  C44      1.0000 0.25642  0.49510  0.49911  Biso   1.000  C
  C45      1.0000 0.30922  0.32841  0.45797  Biso   1.000  C
  C46      1.0000 0.28679  0.38349  0.32556  Biso   1.000  C
  N23      1.0000 0.19158  0.38900  0.44979  Biso   1.000  N
  N24      1.0000 0.41163  0.33113  0.52431  Biso   1.000  N
  O11      1.0000 0.54365  0.38186  0.58029  Biso   1.000  O
  N25      1.0000 0.35197  0.51384  0.64772  Biso   1.000  N
  O12      1.0000 0.50757  0.47598  0.64629  Biso   1.000  O
  N26      1.0000 0.16768  0.46344  0.49672  Biso   1.000  N
  C47      1.0000 0.24847  0.52379  0.58458  Biso   1.000  C
  C48      1.0000 0.24303  0.51999  0.40927  Biso   1.000  C
  C49      1.0000 0.31409  0.29691  0.38107  Biso   1.000  C
  N27      1.0000 0.21657  0.32094  0.49890  Biso   1.000  N
  H51      1.0000 0.22443  0.36850  0.29158  Biso   1.000  H
  H52      1.0000 0.28164  0.41411  0.31092  Biso   1.000  H
  H53      1.0000 0.35100  0.37161  0.31017  Biso   1.000  H
  C50      1.0000 0.14739  0.35490  0.48800  Biso   1.000  C
  C51      1.0000 0.13452  0.43010  0.42882  Biso   1.000  C
  C52      1.0000 0.46252  0.29451  0.58050  Biso   1.000  C
  C53      1.0000 0.39071  0.53401  0.73320  Biso   1.000  C
  C54      1.0000 0.10822  0.47241  0.56129  Biso   1.000  C
  N28      1.0000 0.15706  0.50611  0.61496  Biso   1.000  N
  C55      1.0000 0.23784  0.57351  0.56701  Biso   1.000  C
  H54      1.0000 0.17236  0.53299  0.39463  Biso   1.000  H
  H55      1.0000 0.29695  0.54259  0.41513  Biso   1.000  H
  H56      1.0000 0.25166  0.50021  0.36173  Biso   1.000  H
  H57      1.0000 0.24517  0.29632  0.33953  Biso   1.000  H
  H58      1.0000 0.36864  0.30640  0.34947  Biso   1.000  H
  H59      1.0000 0.33151  0.26809  0.40552  Biso   1.000  H
  C56      1.0000 0.18646  0.27840  0.53078  Biso   1.000  C
  O13      1.0000 0.05657  0.35546  0.50680  Biso   1.000  O
  H60      1.0000 0.05751  0.42489  0.42241  Biso   1.000  H
  H61      1.0000 0.14615  0.44071  0.37079  Biso   1.000  H
  H62      1.0000 0.53973  0.29969  0.59882  Biso   1.000  H
  H63      1.0000 0.45215  0.26779  0.54467  Biso   1.000  H
  N29      1.0000 0.41777  0.28869  0.66121  Biso   1.000  N
  H64      1.0000 0.46916  0.53411  0.74539  Biso   1.000  H
  H65      1.0000 0.36684  0.56430  0.72952  Biso   1.000  H
  N30      1.0000 0.35616  0.51341  0.80880  Biso   1.000  N
  O14      1.0000 0.02460  0.45377  0.56830  Biso   1.000  O
  C57      1.0000 0.11148  0.52209  0.68947  Biso   1.000  C
  H66      1.0000 0.30031  0.58389  0.54658  Biso   1.000  H
  H67      1.0000 0.17402  0.57930  0.52117  Biso   1.000  H
  H68      1.0000 0.23256  0.58831  0.62232  Biso   1.000  H
  H69      1.0000 0.21437  0.25561  0.49706  Biso   1.000  H
  H70      1.0000 0.10811  0.27611  0.51709  Biso   1.000  H
  N31      1.0000 0.22505  0.27100  0.62552  Biso   1.000  N
  C58      1.0000 0.47606  0.29897  0.74450  Biso   1.000  C
  C59      1.0000 0.33376  0.25682  0.66638  Biso   1.000  C
  C60      1.0000 0.42146  0.48512  0.86472  Biso   1.000  C
  C61      1.0000 0.25534  0.52179  0.83856  Biso   1.000  C
  H71      1.0000 0.03467  0.51551  0.67687  Biso   1.000  H
  H72      1.0000 0.11908  0.55369  0.69267  Biso   1.000  H
  N32      1.0000 0.16117  0.50372  0.77699  Biso   1.000  N
  C62      1.0000 0.16624  0.28066  0.69077  Biso   1.000  C
  N33      1.0000 0.42724  0.28151  0.81050  Biso   1.000  N
  O15      1.0000 0.56044  0.31983  0.76146  Biso   1.000  O
  H73      1.0000 0.35004  0.22820  0.64282  Biso   1.000  H
  C63      1.0000 0.33246  0.25440  0.77059  Biso   1.000  C
  N34      1.0000 0.37008  0.47152  0.93249  Biso   1.000  N
  O16      1.0000 0.51326  0.47421  0.85968  Biso   1.000  O
  C64      1.0000 0.26393  0.49271  0.92438  Biso   1.000  C
  C65      1.0000 0.24876  0.57098  0.86008  Biso   1.000  C
  C66      1.0000 0.11488  0.47149  0.81506  Biso   1.000  C
  N35      1.0000 0.23101  0.27408  0.77468  Biso   1.000  N
  O17      1.0000 0.07064  0.29242  0.67421  Biso   1.000  O
  C67      1.0000 0.46311  0.29111  0.90449  Biso   1.000  C
  C68      1.0000 0.34295  0.20799  0.80757  Biso   1.000  C
  C69      1.0000 0.42032  0.44100  0.00318  Biso   1.000  C
  N36      1.0000 0.17561  0.46177  0.89768  Biso   1.000  N
  C70      1.0000 0.25248  0.51931  0.00536  Biso   1.000  C
  H74      1.0000 0.31420  0.57989  0.90102  Biso   1.000  H
  H75      1.0000 0.23997  0.58759  0.80458  Biso   1.000  H
  H76      1.0000 0.18812  0.57609  0.88787  Biso   1.000  H
  O18      1.0000 0.02828  0.45289  0.77938  Biso   1.000  O
  C71      1.0000 0.18818  0.27850  0.85641  Biso   1.000  C
  H77      1.0000 0.54062  0.29609  0.91641  Biso   1.000  H
  H78      1.0000 0.45078  0.26540  0.93909  Biso   1.000  H
  N37      1.0000 0.41363  0.32762  0.93800  Biso   1.000  N
  H79      1.0000 0.41236  0.19640  0.80349  Biso   1.000  H
  H80      1.0000 0.33649  0.20829  0.87017  Biso   1.000  H
  H81      1.0000 0.28686  0.19011  0.77270  Biso   1.000  H
  N38      1.0000 0.39312  0.39610  0.98329  Biso   1.000  N
  H82      1.0000 0.39916  0.44880  0.05951  Biso   1.000  H
  H83      1.0000 0.49822  0.44421  0.01285  Biso   1.000  H
  C72      1.0000 0.14597  0.42800  0.95619  Biso   1.000  C
  H84      1.0000 0.18633  0.53571  0.99140  Biso   1.000  H
  H85      1.0000 0.31249  0.53918  0.02069  Biso   1.000  H
  H86      1.0000 0.25150  0.50031  0.05597  Biso   1.000  H
  H87      1.0000 0.21379  0.25410  0.89659  Biso   1.000  H
  H88      1.0000 0.10986  0.27670  0.83999  Biso   1.000  H
  N39      1.0000 0.21803  0.31868  0.90470  Biso   1.000  N
  C73      1.0000 0.45857  0.36830  0.94876  Biso   1.000  C
  C74      1.0000 0.31560  0.32500  0.97451  Biso   1.000  C
  C75      1.0000 0.30052  0.37311  0.00700  Biso   1.000  C
  N40      1.0000 0.19839  0.38670  0.95156  Biso   1.000  N
  H89      1.0000 0.06833  0.42361  0.93991  Biso   1.000  H
  H90      1.0000 0.16331  0.43828  0.01871  Biso   1.000  H
  C76      1.0000 0.15076  0.35441  0.89448  Biso   1.000  C
  O19      1.0000 0.54626  0.37845  0.93201  Biso   1.000  O
  C77      1.0000 0.32982  0.29150  0.05147  Biso   1.000  C
  C78      1.0000 0.30110  0.37701  0.10828  Biso   1.000  C
  O20      1.0000 0.06176  0.35635  0.84381  Biso   1.000  O
  H91      1.0000 0.26490  0.29019  0.07511  Biso   1.000  H
  H92      1.0000 0.34415  0.26321  0.02866  Biso   1.000  H
  H93      1.0000 0.38944  0.30002  0.09922  Biso   1.000  H
  H94      1.0000 0.23991  0.36159  0.12149  Biso   1.000  H
  H95      1.0000 0.36650  0.36440  0.14301  Biso   1.000  H
  H96      1.0000 0.29713  0.40730  0.12408  Biso   1.000  H
  C79      1.0000 0.84295  0.29199  0.80757  Biso   1.000  C
  C80      1.0000 0.83246  0.24559  0.77059  Biso   1.000  C
  H97      1.0000 0.91236  0.30359  0.80349  Biso   1.000  H
  H98      1.0000 0.83649  0.29170  0.87017  Biso   1.000  H
  H99      1.0000 0.78686  0.30991  0.77270  Biso   1.000  H
  C81      1.0000 0.83376  0.24316  0.66638  Biso   1.000  C
  N41      1.0000 0.73093  0.22590  0.77468  Biso   1.000  N
  N42      1.0000 0.92724  0.21850  0.81050  Biso   1.000  N
  N43      1.0000 0.72505  0.22898  0.62552  Biso   1.000  N
  N44      1.0000 0.91777  0.21130  0.66121  Biso   1.000  N
  H100     1.0000 0.85004  0.27179  0.64282  Biso   1.000  H
  C82      1.0000 0.66624  0.21935  0.69077  Biso   1.000  C
  C83      1.0000 0.68818  0.22152  0.85641  Biso   1.000  C
  C84      1.0000 0.97606  0.20102  0.74450  Biso   1.000  C
  C85      1.0000 0.96311  0.20891  0.90449  Biso   1.000  C
  C86      1.0000 0.68646  0.22161  0.53078  Biso   1.000  C
  C87      1.0000 0.96252  0.20550  0.58050  Biso   1.000  C
  O21      1.0000 0.57064  0.20757  0.67421  Biso   1.000  O
  H101     1.0000 0.71379  0.24591  0.89659  Biso   1.000  H
  H102     1.0000 0.60986  0.22328  0.83999  Biso   1.000  H
  N45      1.0000 0.71795  0.18130  0.90470  Biso   1.000  N
  O22      1.0000 0.06044  0.18019  0.76146  Biso   1.000  O
  H103     1.0000 0.95078  0.23462  0.93909  Biso   1.000  H
  N46      1.0000 0.91355  0.17236  0.93800  Biso   1.000  N
  H104     1.0000 0.04055  0.20390  0.91641  Biso   1.000  H
  N47      1.0000 0.71657  0.17907  0.49890  Biso   1.000  N
  H105     1.0000 0.71429  0.24441  0.49706  Biso   1.000  H
  H106     1.0000 0.60811  0.22391  0.51709  Biso   1.000  H
  N48      1.0000 0.91163  0.16886  0.52431  Biso   1.000  N
  H107     1.0000 0.95215  0.23219  0.54467  Biso   1.000  H
  H108     1.0000 0.03973  0.20029  0.59882  Biso   1.000  H
  C88      1.0000 0.81560  0.17501  0.97451  Biso   1.000  C
  C89      1.0000 0.65076  0.14560  0.89448  Biso   1.000  C
  C90      1.0000 0.95857  0.13168  0.94876  Biso   1.000  C
  C91      1.0000 0.64731  0.14511  0.48800  Biso   1.000  C
  C92      1.0000 0.80922  0.17161  0.45797  Biso   1.000  C
  C93      1.0000 0.95590  0.12812  0.53398  Biso   1.000  C
  C94      1.0000 0.80052  0.12690  0.00700  Biso   1.000  C
  C95      1.0000 0.82982  0.20851  0.05147  Biso   1.000  C
  N49      1.0000 0.69839  0.11328  0.95156  Biso   1.000  N
  O23      1.0000 0.56176  0.14364  0.84381  Biso   1.000  O
  N50      1.0000 0.89312  0.10391  0.98329  Biso   1.000  N
  O24      1.0000 0.04626  0.12153  0.93201  Biso   1.000  O
  O25      1.0000 0.55657  0.14452  0.50680  Biso   1.000  O
  N51      1.0000 0.69150  0.11102  0.44979  Biso   1.000  N
  C96      1.0000 0.79206  0.12238  0.42500  Biso   1.000  C
  C97      1.0000 0.81409  0.20311  0.38107  Biso   1.000  C
  N52      1.0000 0.88473  0.10031  0.47963  Biso   1.000  N
  O26      1.0000 0.04365  0.11813  0.58029  Biso   1.000  O
  C98      1.0000 0.80110  0.12301  0.10828  Biso   1.000  C
  H109     1.0000 0.76490  0.20979  0.07511  Biso   1.000  H
  H110     1.0000 0.84407  0.23681  0.02866  Biso   1.000  H
  H111     1.0000 0.88944  0.20000  0.09922  Biso   1.000  H
  C99      1.0000 0.64597  0.07202  0.95619  Biso   1.000  C
  C100     1.0000 0.92032  0.05901  0.00318  Biso   1.000  C
  C101     1.0000 0.63452  0.06989  0.42882  Biso   1.000  C
  C102     1.0000 0.78679  0.11649  0.32556  Biso   1.000  C
  H112     1.0000 0.74510  0.20370  0.33953  Biso   1.000  H
  H113     1.0000 0.86864  0.19361  0.34947  Biso   1.000  H
  H114     1.0000 0.83151  0.23190  0.40552  Biso   1.000  H
  C103     1.0000 0.91129  0.05459  0.46968  Biso   1.000  C
  H115     1.0000 0.73991  0.13840  0.12149  Biso   1.000  H
  H116     1.0000 0.86650  0.13561  0.14301  Biso   1.000  H
  H117     1.0000 0.79713  0.09271  0.12408  Biso   1.000  H
  N53      1.0000 0.67561  0.03825  0.89768  Biso   1.000  N
  H118     1.0000 0.56833  0.07640  0.93991  Biso   1.000  H
  H119     1.0000 0.66331  0.06170  0.01871  Biso   1.000  H
  N54      1.0000 0.87008  0.02849  0.93249  Biso   1.000  N
  H120     1.0000 0.89908  0.05119  0.05951  Biso   1.000  H
  H121     1.0000 0.99822  0.05580  0.01285  Biso   1.000  H
  H122     1.0000 0.55751  0.07509  0.42241  Biso   1.000  H
  H123     1.0000 0.64615  0.05931  0.37079  Biso   1.000  H
  N55      1.0000 0.66768  0.03655  0.49672  Biso   1.000  N
  H124     1.0000 0.72443  0.13149  0.29158  Biso   1.000  H
  H125     1.0000 0.78164  0.08590  0.31092  Biso   1.000  H
  H126     1.0000 0.85100  0.12841  0.31017  Biso   1.000  H
  N56      1.0000 0.86230  0.02515  0.52451  Biso   1.000  N
  H127     1.0000 0.98929  0.05109  0.48610  Biso   1.000  H
  H128     1.0000 0.88810  0.04631  0.40620  Biso   1.000  H
  C104     1.0000 0.61488  0.02849  0.81506  Biso   1.000  C
  C105     1.0000 0.76385  0.00730  0.92438  Biso   1.000  C
  C106     1.0000 0.92146  0.01490  0.86472  Biso   1.000  C
  C107     1.0000 0.75642  0.00491  0.49911  Biso   1.000  C
  C108     1.0000 0.60822  0.02761  0.56129  Biso   1.000  C
  C109     1.0000 0.91437  0.01320  0.60951  Biso   1.000  C
  N57      1.0000 0.66117  0.99630  0.77699  Biso   1.000  N
  O27      1.0000 0.52828  0.04713  0.77938  Biso   1.000  O
  C110     1.0000 0.75534  0.97819  0.83856  Biso   1.000  C
  C111     1.0000 0.75248  0.98071  0.00536  Biso   1.000  C
  N58      1.0000 0.85616  0.98661  0.80880  Biso   1.000  N
  O28      1.0000 0.01326  0.02581  0.85968  Biso   1.000  O
  C112     1.0000 0.74847  0.97619  0.58458  Biso   1.000  C
  C113     1.0000 0.74303  0.97999  0.40927  Biso   1.000  C
  O29      1.0000 0.52452  0.04624  0.56830  Biso   1.000  O
  N59      1.0000 0.65706  0.99388  0.61496  Biso   1.000  N
  N60      1.0000 0.85197  0.98615  0.64772  Biso   1.000  N
  O30      1.0000 0.00757  0.02404  0.64629  Biso   1.000  O
  C114     1.0000 0.61148  0.97789  0.68947  Biso   1.000  C
  C115     1.0000 0.74876  0.92900  0.86008  Biso   1.000  C
  H129     1.0000 0.68633  0.96430  0.99140  Biso   1.000  H
  H130     1.0000 0.81249  0.96080  0.02069  Biso   1.000  H
  H131     1.0000 0.75150  0.99971  0.05597  Biso   1.000  H
  C116     1.0000 0.89063  0.96601  0.73320  Biso   1.000  C
  C117     1.0000 0.73784  0.92651  0.56701  Biso   1.000  C
  H132     1.0000 0.67236  0.96699  0.39463  Biso   1.000  H
  H133     1.0000 0.79695  0.95739  0.41513  Biso   1.000  H
  H134     1.0000 0.75166  0.99980  0.36173  Biso   1.000  H
  H135     1.0000 0.53467  0.98451  0.67687  Biso   1.000  H
  H136     1.0000 0.61908  0.94629  0.69267  Biso   1.000  H
  H137     1.0000 0.81420  0.92009  0.90102  Biso   1.000  H
  H138     1.0000 0.73997  0.91240  0.80458  Biso   1.000  H
  H139     1.0000 0.68804  0.92389  0.88787  Biso   1.000  H
  H140     1.0000 0.96916  0.96591  0.74539  Biso   1.000  H
  H141     1.0000 0.86684  0.93571  0.72952  Biso   1.000  H
  H142     1.0000 0.80031  0.91610  0.54658  Biso   1.000  H
  H143     1.0000 0.67402  0.92071  0.52117  Biso   1.000  H
  H144     1.0000 0.73256  0.91171  0.62232  Biso   1.000  H
  C118     1.0000 0.15712  0.70801  0.19241  Biso   1.000  C
  C119     1.0000 0.16761  0.75441  0.22939  Biso   1.000  C
  H145     1.0000 0.08772  0.69641  0.19650  Biso   1.000  H
  H146     1.0000 0.16358  0.70830  0.12982  Biso   1.000  H
  H147     1.0000 0.21321  0.69009  0.22728  Biso   1.000  H
  C120     1.0000 0.16631  0.75684  0.33360  Biso   1.000  C
  N61      1.0000 0.07283  0.78150  0.18948  Biso   1.000  N
  N62      1.0000 0.26914  0.77410  0.22531  Biso   1.000  N
  H148     1.0000 0.15003  0.72821  0.35717  Biso   1.000  H
  N63      1.0000 0.08230  0.78870  0.33878  Biso   1.000  N
  N64      1.0000 0.27502  0.77102  0.37447  Biso   1.000  N
  C121     1.0000 0.02402  0.79898  0.25548  Biso   1.000  C
  C122     1.0000 0.03704  0.79109  0.09549  Biso   1.000  C
  C123     1.0000 0.33383  0.78065  0.30922  Biso   1.000  C
  C124     1.0000 0.31189  0.77848  0.14357  Biso   1.000  C
  C125     1.0000 0.03756  0.79450  0.41949  Biso   1.000  C
  C126     1.0000 0.31361  0.77839  0.46921  Biso   1.000  C
  O31      1.0000 0.93963  0.81981  0.23852  Biso   1.000  O
  H149     1.0000 0.04929  0.76538  0.06089  Biso   1.000  H
  N65      1.0000 0.08652  0.82764  0.06198  Biso   1.000  N
  H150     1.0000 0.95953  0.79610  0.08357  Biso   1.000  H
  O32      1.0000 0.42943  0.79243  0.32577  Biso   1.000  O
  H151     1.0000 0.28628  0.75409  0.10339  Biso   1.000  H
  H152     1.0000 0.39021  0.77672  0.15999  Biso   1.000  H
  N66      1.0000 0.28212  0.81870  0.09528  Biso   1.000  N
  H153     1.0000 0.04792  0.76781  0.45531  Biso   1.000  H
  N67      1.0000 0.08845  0.83114  0.47568  Biso   1.000  N
  H154     1.0000 0.96035  0.79971  0.40116  Biso   1.000  H
  H155     1.0000 0.28578  0.75559  0.50292  Biso   1.000  H
  H156     1.0000 0.39196  0.77609  0.48290  Biso   1.000  H
  N68      1.0000 0.28358  0.82093  0.50108  Biso   1.000  N
  C127     1.0000 0.04150  0.86832  0.05122  Biso   1.000  C
  C128     1.0000 0.18447  0.82499  0.02547  Biso   1.000  C
  C129     1.0000 0.34931  0.85440  0.10550  Biso   1.000  C
  C130     1.0000 0.04418  0.87188  0.46600  Biso   1.000  C
  C131     1.0000 0.19085  0.82839  0.54201  Biso   1.000  C
  C132     1.0000 0.35277  0.85489  0.51198  Biso   1.000  C
  N69      1.0000 0.10703  0.89609  0.01669  Biso   1.000  N
  O33      1.0000 0.95382  0.87847  0.06797  Biso   1.000  O
  C133     1.0000 0.19955  0.87310  0.99298  Biso   1.000  C
  C134     1.0000 0.17025  0.79149  0.94851  Biso   1.000  C
  N70      1.0000 0.30168  0.88672  0.04843  Biso   1.000  N
  O34      1.0000 0.43831  0.85636  0.15617  Biso   1.000  O
  N71      1.0000 0.11536  0.89969  0.52042  Biso   1.000  N
  O35      1.0000 0.95642  0.88187  0.41969  Biso   1.000  O
  C135     1.0000 0.20801  0.87762  0.57498  Biso   1.000  C
  C136     1.0000 0.18598  0.79689  0.61891  Biso   1.000  C
  N72      1.0000 0.30857  0.88898  0.55019  Biso   1.000  N
  O36      1.0000 0.44350  0.85548  0.49318  Biso   1.000  O
  C137     1.0000 0.07975  0.94099  0.99680  Biso   1.000  C
  C138     1.0000 0.19897  0.87699  0.89171  Biso   1.000  C
  H157     1.0000 0.23517  0.79021  0.92488  Biso   1.000  H
  H158     1.0000 0.15601  0.76319  0.97133  Biso   1.000  H
  H159     1.0000 0.11064  0.80000  0.90083  Biso   1.000  H
  C139     1.0000 0.35410  0.92798  0.04379  Biso   1.000  C
  C140     1.0000 0.08878  0.94541  0.53030  Biso   1.000  C
  C141     1.0000 0.21328  0.88351  0.67442  Biso   1.000  C
  H160     1.0000 0.25498  0.79630  0.66046  Biso   1.000  H
  H161     1.0000 0.13143  0.80639  0.65051  Biso   1.000  H
  H162     1.0000 0.16856  0.76810  0.59446  Biso   1.000  H
  C142     1.0000 0.36555  0.93011  0.57117  Biso   1.000  C
  N73      1.0000 0.12999  0.97151  0.06750  Biso   1.000  N
  H163     1.0000 0.10099  0.94881  0.94047  Biso   1.000  H
  H164     1.0000 0.00185  0.94420  0.98713  Biso   1.000  H
  H165     1.0000 0.26016  0.86160  0.87849  Biso   1.000  H
  H166     1.0000 0.13357  0.86439  0.85697  Biso   1.000  H
  H167     1.0000 0.20294  0.90729  0.87590  Biso   1.000  H
  H168     1.0000 0.43183  0.92360  0.06007  Biso   1.000  H
  N74      1.0000 0.32454  0.96175  0.10230  Biso   1.000  N
  H169     1.0000 0.33676  0.93830  0.98127  Biso   1.000  H
  H170     1.0000 0.01078  0.94891  0.51389  Biso   1.000  H
  H171     1.0000 0.11198  0.95369  0.59378  Biso   1.000  H
  N75      1.0000 0.13777  0.97485  0.47547  Biso   1.000  N
  H172     1.0000 0.27564  0.86851  0.70841  Biso   1.000  H
  H173     1.0000 0.21844  0.91410  0.68906  Biso   1.000  H
  H174     1.0000 0.14907  0.87159  0.68981  Biso   1.000  H
  H175     1.0000 0.44256  0.92491  0.57757  Biso   1.000  H
  H176     1.0000 0.35400  0.94069  0.62919  Biso   1.000  H
  N76      1.0000 0.33247  0.96345  0.50326  Biso   1.000  N
  C143     1.0000 0.07861  0.98510  0.13527  Biso   1.000  C
  C144     1.0000 0.23622  0.99270  0.07560  Biso   1.000  C
  C145     1.0000 0.38519  0.97151  0.18492  Biso   1.000  C
  C146     1.0000 0.08571  0.98680  0.39047  Biso   1.000  C
  C147     1.0000 0.24365  0.99509  0.50088  Biso   1.000  C
  C148     1.0000 0.39185  0.97239  0.43869  Biso   1.000  C
  O37      1.0000 0.98682  0.97419  0.14031  Biso   1.000  O
  N77      1.0000 0.14391  0.01339  0.19118  Biso   1.000  N
  C149     1.0000 0.24759  0.01929  0.99462  Biso   1.000  C
  C150     1.0000 0.24473  0.02181  0.16142  Biso   1.000  C
  O38      1.0000 0.47180  0.95287  0.22061  Biso   1.000  O
  N78      1.0000 0.33890  0.00370  0.22299  Biso   1.000  N
  O39      1.0000 0.99258  0.97596  0.35369  Biso   1.000  O
  N79      1.0000 0.14810  0.01385  0.35226  Biso   1.000  N
  C151     1.0000 0.25160  0.02381  0.41540  Biso   1.000  C
  C152     1.0000 0.25704  0.02001  0.59071  Biso   1.000  C
  O40      1.0000 0.47555  0.95376  0.43168  Biso   1.000  O
  N80      1.0000 0.34301  0.00612  0.38502  Biso   1.000  N
  C153     1.0000 0.10944  0.03399  0.26678  Biso   1.000  C
  H177     1.0000 0.18759  0.03920  0.97929  Biso   1.000  H
  H178     1.0000 0.24857  0.00029  0.94401  Biso   1.000  H
  H179     1.0000 0.31382  0.03570  0.00858  Biso   1.000  H
  C154     1.0000 0.25131  0.07100  0.13990  Biso   1.000  C
  C155     1.0000 0.38859  0.02211  0.31051  Biso   1.000  C
  C156     1.0000 0.26224  0.07349  0.43297  Biso   1.000  C
  H180     1.0000 0.32773  0.03301  0.60542  Biso   1.000  H
  H181     1.0000 0.20314  0.04261  0.58492  Biso   1.000  H
  H182     1.0000 0.24850  0.00020  0.63832  Biso   1.000  H
  H183     1.0000 0.03092  0.03409  0.25459  Biso   1.000  H
  H184     1.0000 0.13323  0.06429  0.27046  Biso   1.000  H
  H185     1.0000 0.18589  0.07991  0.09903  Biso   1.000  H
  H186     1.0000 0.26010  0.08760  0.19541  Biso   1.000  H
  H187     1.0000 0.31203  0.07611  0.11211  Biso   1.000  H
  H188     1.0000 0.46540  0.01549  0.32311  Biso   1.000  H
  H189     1.0000 0.38099  0.05371  0.30731  Biso   1.000  H
  H190     1.0000 0.19976  0.08390  0.45340  Biso   1.000  H
  H191     1.0000 0.32605  0.07929  0.47881  Biso   1.000  H
  H192     1.0000 0.26751  0.08829  0.37767  Biso   1.000  H
