data_image0
_cell_length_a       26.618
_cell_length_b       11.807
_cell_length_c       15.245
_cell_angle_alpha    90
_cell_angle_beta     90
_cell_angle_gamma    90

_symmetry_space_group_name_H-M    "P 1"
_symmetry_int_tables_number       1

loop_
  _symmetry_equiv_pos_as_xyz
  'x, y, z'

loop_
  _atom_site_label
  _atom_site_occupancy
  _atom_site_fract_x
  _atom_site_fract_y
  _atom_site_fract_z
  _atom_site_thermal_displace_type
  _atom_site_B_iso_or_equiv
  _atom_site_type_symbol
  C1       1.0000 0.39169  0.60447  0.57015  Biso   1.000  C
  N1       1.0000 0.34090  0.64496  0.58288  Biso   1.000  N
  H1       1.0000 0.40300  0.62683  0.51217  Biso   1.000  H
  H2       1.0000 0.39150  0.52232  0.57219  Biso   1.000  H
  N2       1.0000 0.42791  0.64640  0.63496  Biso   1.000  N
  C2       1.0000 0.31911  0.74998  0.54477  Biso   1.000  C
  C3       1.0000 0.30889  0.59185  0.63608  Biso   1.000  C
  C4       1.0000 0.44429  0.58287  0.70246  Biso   1.000  C
  C5       1.0000 0.45541  0.74998  0.62420  Biso   1.000  C
  C6       1.0000 0.32459  0.74998  0.44506  Biso   1.000  C
  C7       1.0000 0.26478  0.74998  0.58190  Biso   1.000  C
  N3       1.0000 0.34090  0.85500  0.58288  Biso   1.000  N
  N4       1.0000 0.26332  0.64758  0.63457  Biso   1.000  N
  O1       1.0000 0.31719  0.50267  0.67550  Biso   1.000  O
  N5       1.0000 0.47949  0.64631  0.74720  Biso   1.000  N
  O2       1.0000 0.43230  0.48556  0.71978  Biso   1.000  O
  N6       1.0000 0.42791  0.85356  0.63496  Biso   1.000  N
  H3       1.0000 0.47381  0.74998  0.56851  Biso   1.000  H
  C8       1.0000 0.49200  0.74998  0.70239  Biso   1.000  C
  H4       1.0000 0.31032  0.68180  0.42158  Biso   1.000  H
  H5       1.0000 0.31032  0.81816  0.42158  Biso   1.000  H
  H6       1.0000 0.30739  0.81435  0.42112  Biso   1.000  H
  H7       1.0000 0.30739  0.68561  0.42112  Biso   1.000  H
  H8       1.0000 0.35961  0.75379  0.42991  Biso   1.000  H
  H9       1.0000 0.35961  0.74617  0.42991  Biso   1.000  H
  C9       1.0000 0.22278  0.74998  0.51276  Biso   1.000  C
  N7       1.0000 0.26332  0.85238  0.63457  Biso   1.000  N
  C10      1.0000 0.30889  0.90811  0.63608  Biso   1.000  C
  C11      1.0000 0.39169  0.89549  0.57015  Biso   1.000  C
  C12      1.0000 0.22139  0.60379  0.68619  Biso   1.000  C
  C13      1.0000 0.50800  0.60371  0.82079  Biso   1.000  C
  C14      1.0000 0.44429  0.91708  0.70246  Biso   1.000  C
  N8       1.0000 0.47949  0.85365  0.74720  Biso   1.000  N
  H10      1.0000 0.52709  0.74998  0.68265  Biso   1.000  H
  H11      1.0000 0.22481  0.81790  0.47839  Biso   1.000  H
  H12      1.0000 0.22481  0.68205  0.47839  Biso   1.000  H
  H13      1.0000 0.22650  0.68527  0.47530  Biso   1.000  H
  H14      1.0000 0.22650  0.81469  0.47530  Biso   1.000  H
  H15      1.0000 0.19070  0.74676  0.54155  Biso   1.000  H
  H16      1.0000 0.19070  0.75320  0.54155  Biso   1.000  H
  C15      1.0000 0.22139  0.89616  0.68619  Biso   1.000  C
  O3       1.0000 0.31719  0.99729  0.67550  Biso   1.000  O
  H17      1.0000 0.40300  0.87321  0.51217  Biso   1.000  H
  H18      1.0000 0.39150  0.97773  0.57219  Biso   1.000  H
  H19      1.0000 0.19010  0.62378  0.65726  Biso   1.000  H
  H20      1.0000 0.22350  0.52181  0.68796  Biso   1.000  H
  N9       1.0000 0.22041  0.64690  0.77540  Biso   1.000  N
  H21      1.0000 0.54302  0.62387  0.81286  Biso   1.000  H
  H22      1.0000 0.50579  0.52156  0.82106  Biso   1.000  H
  N10      1.0000 0.49110  0.64631  0.90548  Biso   1.000  N
  O4       1.0000 0.43230  0.01440  0.71978  Biso   1.000  O
  C16      1.0000 0.50800  0.89625  0.82079  Biso   1.000  C
  H23      1.0000 0.19010  0.87618  0.65726  Biso   1.000  H
  H24      1.0000 0.22350  0.97815  0.68796  Biso   1.000  H
  N11      1.0000 0.22041  0.85305  0.77540  Biso   1.000  N
  C17      1.0000 0.23420  0.58262  0.84585  Biso   1.000  C
  C18      1.0000 0.19528  0.74998  0.79928  Biso   1.000  C
  C19      1.0000 0.45691  0.58686  0.95271  Biso   1.000  C
  C20      1.0000 0.50819  0.74998  0.94818  Biso   1.000  C
  H25      1.0000 0.54302  0.87609  0.81286  Biso   1.000  H
  H26      1.0000 0.50579  0.97840  0.82106  Biso   1.000  H
  N12      1.0000 0.49110  0.85365  0.90548  Biso   1.000  N
  C21      1.0000 0.23420  0.91742  0.84585  Biso   1.000  C
  N13      1.0000 0.22721  0.64657  0.91965  Biso   1.000  N
  O5       1.0000 0.24949  0.48361  0.84447  Biso   1.000  O
  C22      1.0000 0.20069  0.74998  0.90167  Biso   1.000  C
  H27      1.0000 0.16000  0.74998  0.78078  Biso   1.000  H
  O6       1.0000 0.43809  0.49691  0.93329  Biso   1.000  O
  N14      1.0000 0.44782  0.64741  0.02840  Biso   1.000  N
  C23      1.0000 0.56721  0.74998  0.95828  Biso   1.000  C
  C24      1.0000 0.47750  0.74998  0.03627  Biso   1.000  C
  C25      1.0000 0.45691  0.91310  0.95271  Biso   1.000  C
  N15      1.0000 0.22721  0.85339  0.91965  Biso   1.000  N
  O7       1.0000 0.24949  0.01643  0.84447  Biso   1.000  O
  C26      1.0000 0.23601  0.60439  0.00702  Biso   1.000  C
  H28      1.0000 0.16771  0.74998  0.93008  Biso   1.000  H
  C27      1.0000 0.41190  0.60388  0.09380  Biso   1.000  C
  H29      1.0000 0.57769  0.68138  0.98668  Biso   1.000  H
  H30      1.0000 0.57769  0.81858  0.98668  Biso   1.000  H
  H31      1.0000 0.57739  0.81401  0.99285  Biso   1.000  H
  H32      1.0000 0.57739  0.68595  0.99285  Biso   1.000  H
  H33      1.0000 0.58250  0.75455  0.90128  Biso   1.000  H
  H34      1.0000 0.58250  0.74541  0.90128  Biso   1.000  H
  N16      1.0000 0.44782  0.85255  0.02840  Biso   1.000  N
  C28      1.0000 0.50879  0.74998  0.11932  Biso   1.000  C
  O8       1.0000 0.43809  0.00313  0.93329  Biso   1.000  O
  C29      1.0000 0.23601  0.89557  0.00702  Biso   1.000  C
  H35      1.0000 0.20730  0.62387  0.04323  Biso   1.000  H
  H36      1.0000 0.23788  0.52240  0.00453  Biso   1.000  H
  N17      1.0000 0.28019  0.64589  0.04821  Biso   1.000  N
  N18      1.0000 0.36190  0.64716  0.08639  Biso   1.000  N
  H37      1.0000 0.41059  0.52198  0.08882  Biso   1.000  H
  H38      1.0000 0.42460  0.62175  0.15192  Biso   1.000  H
  C30      1.0000 0.41190  0.89608  0.09380  Biso   1.000  C
  H39      1.0000 0.52791  0.68129  0.12240  Biso   1.000  H
  H40      1.0000 0.52791  0.81867  0.12240  Biso   1.000  H
  H41      1.0000 0.53111  0.81375  0.11879  Biso   1.000  H
  H42      1.0000 0.53111  0.68620  0.11879  Biso   1.000  H
  H43      1.0000 0.48700  0.75498  0.16937  Biso   1.000  H
  H44      1.0000 0.48700  0.74498  0.16937  Biso   1.000  H
  H45      1.0000 0.20730  0.87609  0.04323  Biso   1.000  H
  H46      1.0000 0.23788  0.97756  0.00453  Biso   1.000  H
  N19      1.0000 0.28019  0.85407  0.04821  Biso   1.000  N
  C31      1.0000 0.32440  0.58855  0.04270  Biso   1.000  C
  C32      1.0000 0.28439  0.74998  0.09997  Biso   1.000  C
  C33      1.0000 0.34199  0.74998  0.12798  Biso   1.000  C
  N20      1.0000 0.36190  0.85280  0.08639  Biso   1.000  N
  H47      1.0000 0.41059  0.97798  0.08882  Biso   1.000  H
  H48      1.0000 0.42460  0.87821  0.15192  Biso   1.000  H
  C34      1.0000 0.32440  0.91141  0.04270  Biso   1.000  C
  O9       1.0000 0.33060  0.49581  0.00722  Biso   1.000  O
  C35      1.0000 0.24600  0.74998  0.17711  Biso   1.000  C
  C36      1.0000 0.35329  0.74998  0.22657  Biso   1.000  C
  O10      1.0000 0.33060  0.00423  0.00722  Biso   1.000  O
  H49      1.0000 0.24930  0.68087  0.20990  Biso   1.000  H
  H50      1.0000 0.24930  0.81909  0.20990  Biso   1.000  H
  H51      1.0000 0.21249  0.75565  0.15421  Biso   1.000  H
  H52      1.0000 0.21249  0.74430  0.15421  Biso   1.000  H
  H53      1.0000 0.25261  0.81325  0.21489  Biso   1.000  H
  H54      1.0000 0.25261  0.68671  0.21489  Biso   1.000  H
  H55      1.0000 0.34041  0.68188  0.25248  Biso   1.000  H
  H56      1.0000 0.34041  0.81807  0.25248  Biso   1.000  H
  H57      1.0000 0.33770  0.81452  0.25353  Biso   1.000  H
  H58      1.0000 0.33770  0.68553  0.25353  Biso   1.000  H
  H59      1.0000 0.38898  0.75362  0.23549  Biso   1.000  H
  H60      1.0000 0.38898  0.74642  0.23549  Biso   1.000  H
  N21      1.0000 0.57209  0.35360  0.36497  Biso   1.000  N
  C37      1.0000 0.55571  0.41713  0.29747  Biso   1.000  C
  C38      1.0000 0.54459  0.25002  0.37580  Biso   1.000  C
  C39      1.0000 0.60831  0.39553  0.42978  Biso   1.000  C
  N22      1.0000 0.52051  0.35369  0.25280  Biso   1.000  N
  O11      1.0000 0.56770  0.51436  0.28022  Biso   1.000  O
  C40      1.0000 0.50800  0.25002  0.29761  Biso   1.000  C
  N23      1.0000 0.57209  0.14644  0.36497  Biso   1.000  N
  H61      1.0000 0.52619  0.25002  0.43149  Biso   1.000  H
  H62      1.0000 0.59700  0.37317  0.48777  Biso   1.000  H
  H63      1.0000 0.60850  0.47768  0.42781  Biso   1.000  H
  N24      1.0000 0.65910  0.35496  0.41712  Biso   1.000  N
  C41      1.0000 0.49200  0.39629  0.17921  Biso   1.000  C
  N25      1.0000 0.52051  0.14627  0.25280  Biso   1.000  N
  H64      1.0000 0.47291  0.25002  0.31728  Biso   1.000  H
  C42      1.0000 0.55571  0.08292  0.29747  Biso   1.000  C
  C43      1.0000 0.60831  0.10451  0.42978  Biso   1.000  C
  C44      1.0000 0.68089  0.25002  0.45517  Biso   1.000  C
  C45      1.0000 0.69111  0.40806  0.36392  Biso   1.000  C
  N26      1.0000 0.50890  0.35369  0.09452  Biso   1.000  N
  H65      1.0000 0.45698  0.37613  0.18708  Biso   1.000  H
  H66      1.0000 0.49421  0.47836  0.17888  Biso   1.000  H
  C46      1.0000 0.49200  0.10367  0.17921  Biso   1.000  C
  O12      1.0000 0.56770  0.98560  0.28022  Biso   1.000  O
  H67      1.0000 0.59700  0.12679  0.48777  Biso   1.000  H
  H68      1.0000 0.60850  0.02227  0.42781  Biso   1.000  H
  N27      1.0000 0.65910  0.14500  0.41712  Biso   1.000  N
  C47      1.0000 0.73522  0.25002  0.41810  Biso   1.000  C
  C48      1.0000 0.67541  0.25002  0.55487  Biso   1.000  C
  N28      1.0000 0.73668  0.35242  0.36537  Biso   1.000  N
  O13      1.0000 0.68281  0.49733  0.32450  Biso   1.000  O
  C49      1.0000 0.49181  0.25002  0.05182  Biso   1.000  C
  C50      1.0000 0.54309  0.41306  0.04729  Biso   1.000  C
  N29      1.0000 0.50890  0.14627  0.09452  Biso   1.000  N
  H69      1.0000 0.45698  0.12391  0.18708  Biso   1.000  H
  H70      1.0000 0.49421  0.02160  0.17888  Biso   1.000  H
  C51      1.0000 0.69111  0.09189  0.36392  Biso   1.000  C
  N30      1.0000 0.73668  0.14762  0.36537  Biso   1.000  N
  C52      1.0000 0.77722  0.25002  0.48718  Biso   1.000  C
  H71      1.0000 0.68968  0.18176  0.57835  Biso   1.000  H
  H72      1.0000 0.68968  0.31820  0.57835  Biso   1.000  H
  H73      1.0000 0.69261  0.31439  0.57888  Biso   1.000  H
  H74      1.0000 0.69261  0.18557  0.57888  Biso   1.000  H
  H75      1.0000 0.64039  0.25383  0.57009  Biso   1.000  H
  H76      1.0000 0.64039  0.24621  0.57009  Biso   1.000  H
  C53      1.0000 0.77861  0.39621  0.31381  Biso   1.000  C
  C54      1.0000 0.43279  0.25002  0.04172  Biso   1.000  C
  C55      1.0000 0.52250  0.25002  0.96366  Biso   1.000  C
  N31      1.0000 0.55218  0.35259  0.97160  Biso   1.000  N
  O14      1.0000 0.56191  0.50309  0.06671  Biso   1.000  O
  C56      1.0000 0.54309  0.08690  0.04729  Biso   1.000  C
  O15      1.0000 0.68281  0.00271  0.32450  Biso   1.000  O
  C57      1.0000 0.77861  0.10384  0.31381  Biso   1.000  C
  H77      1.0000 0.77519  0.31786  0.52161  Biso   1.000  H
  H78      1.0000 0.77519  0.18210  0.52161  Biso   1.000  H
  H79      1.0000 0.77350  0.18531  0.52470  Biso   1.000  H
  H80      1.0000 0.77350  0.31473  0.52470  Biso   1.000  H
  H81      1.0000 0.80930  0.24680  0.45838  Biso   1.000  H
  H82      1.0000 0.80930  0.25315  0.45838  Biso   1.000  H
  N32      1.0000 0.77959  0.35310  0.22460  Biso   1.000  N
  H83      1.0000 0.80990  0.37622  0.34267  Biso   1.000  H
  H84      1.0000 0.77650  0.47819  0.31197  Biso   1.000  H
  H85      1.0000 0.42231  0.18142  0.01332  Biso   1.000  H
  H86      1.0000 0.42231  0.31862  0.01332  Biso   1.000  H
  H87      1.0000 0.42261  0.31397  0.00708  Biso   1.000  H
  H88      1.0000 0.42261  0.18599  0.00708  Biso   1.000  H
  H89      1.0000 0.41750  0.25459  0.09872  Biso   1.000  H
  H90      1.0000 0.41750  0.24536  0.09872  Biso   1.000  H
  C58      1.0000 0.49121  0.25002  0.88068  Biso   1.000  C
  N33      1.0000 0.55218  0.14737  0.97160  Biso   1.000  N
  C59      1.0000 0.58810  0.39612  0.90620  Biso   1.000  C
  O16      1.0000 0.56191  0.99687  0.06671  Biso   1.000  O
  N34      1.0000 0.77959  0.14686  0.22460  Biso   1.000  N
  H91      1.0000 0.80990  0.12382  0.34267  Biso   1.000  H
  H92      1.0000 0.77650  0.02177  0.31197  Biso   1.000  H
  C60      1.0000 0.76580  0.41738  0.15408  Biso   1.000  C
  C61      1.0000 0.80472  0.25002  0.20072  Biso   1.000  C
  H93      1.0000 0.47209  0.18133  0.87760  Biso   1.000  H
  H94      1.0000 0.47209  0.31871  0.87760  Biso   1.000  H
  H95      1.0000 0.46889  0.31380  0.88121  Biso   1.000  H
  H96      1.0000 0.46889  0.18616  0.88121  Biso   1.000  H
  H97      1.0000 0.51300  0.25502  0.83057  Biso   1.000  H
  H98      1.0000 0.51300  0.24502  0.83057  Biso   1.000  H
  C62      1.0000 0.58810  0.10392  0.90620  Biso   1.000  C
  H99      1.0000 0.58941  0.47802  0.91118  Biso   1.000  H
  H100     1.0000 0.57540  0.37817  0.84808  Biso   1.000  H
  N35      1.0000 0.63810  0.35276  0.91355  Biso   1.000  N
  C63      1.0000 0.76580  0.08258  0.15408  Biso   1.000  C
  N36      1.0000 0.77279  0.35343  0.08029  Biso   1.000  N
  O17      1.0000 0.75051  0.51639  0.15553  Biso   1.000  O
  C64      1.0000 0.79931  0.25002  0.09833  Biso   1.000  C
  H101     1.0000 0.84000  0.25002  0.21922  Biso   1.000  H
  H102     1.0000 0.58941  0.02202  0.91118  Biso   1.000  H
  H103     1.0000 0.57540  0.12179  0.84808  Biso   1.000  H
  N37      1.0000 0.63810  0.14720  0.91355  Biso   1.000  N
  C65      1.0000 0.65801  0.25002  0.87196  Biso   1.000  C
  C66      1.0000 0.67560  0.41137  0.95730  Biso   1.000  C
  N38      1.0000 0.77279  0.14661  0.08029  Biso   1.000  N
  O18      1.0000 0.75051  0.98357  0.15553  Biso   1.000  O
  C67      1.0000 0.76399  0.39561  0.99298  Biso   1.000  C
  H104     1.0000 0.83229  0.25002  0.06992  Biso   1.000  H
  C68      1.0000 0.67560  0.08859  0.95730  Biso   1.000  C
  C69      1.0000 0.71561  0.25002  0.89997  Biso   1.000  C
  C70      1.0000 0.64671  0.25002  0.77337  Biso   1.000  C
  N39      1.0000 0.71981  0.35411  0.95179  Biso   1.000  N
  O19      1.0000 0.66940  0.50419  0.99278  Biso   1.000  O
  C71      1.0000 0.76399  0.10443  0.99298  Biso   1.000  C
  H105     1.0000 0.79270  0.37613  0.95677  Biso   1.000  H
  H106     1.0000 0.76212  0.47760  0.99547  Biso   1.000  H
  O20      1.0000 0.66940  0.99577  0.99278  Biso   1.000  O
  N40      1.0000 0.71981  0.14593  0.95179  Biso   1.000  N
  C72      1.0000 0.75400  0.25002  0.82289  Biso   1.000  C
  H107     1.0000 0.65959  0.18193  0.74746  Biso   1.000  H
  H108     1.0000 0.65959  0.31812  0.74746  Biso   1.000  H
  H109     1.0000 0.66230  0.31447  0.74647  Biso   1.000  H
  H110     1.0000 0.66230  0.18548  0.74647  Biso   1.000  H
  H111     1.0000 0.61102  0.25358  0.76445  Biso   1.000  H
  H112     1.0000 0.61102  0.24638  0.76445  Biso   1.000  H
  H113     1.0000 0.79270  0.12391  0.95677  Biso   1.000  H
  H114     1.0000 0.76212  0.02236  0.99547  Biso   1.000  H
  H115     1.0000 0.75070  0.18091  0.79010  Biso   1.000  H
  H116     1.0000 0.75070  0.31913  0.79010  Biso   1.000  H
  H117     1.0000 0.78751  0.25570  0.84579  Biso   1.000  H
  H118     1.0000 0.78751  0.24426  0.84579  Biso   1.000  H
  H119     1.0000 0.74739  0.31329  0.78511  Biso   1.000  H
  H120     1.0000 0.74739  0.18667  0.78511  Biso   1.000  H
  C73      1.0000 0.29931  0.25002  0.40171  Biso   1.000  C
  C74      1.0000 0.30472  0.25002  0.29931  Biso   1.000  C
  N41      1.0000 0.27279  0.35343  0.41968  Biso   1.000  N
  H121     1.0000 0.33229  0.25002  0.43011  Biso   1.000  H
  N42      1.0000 0.27279  0.14661  0.41968  Biso   1.000  N
  N43      1.0000 0.27959  0.35310  0.27537  Biso   1.000  N
  H122     1.0000 0.34000  0.25002  0.28081  Biso   1.000  H
  N44      1.0000 0.27959  0.14686  0.27537  Biso   1.000  N
  C75      1.0000 0.26580  0.41738  0.34588  Biso   1.000  C
  C76      1.0000 0.26399  0.39561  0.50699  Biso   1.000  C
  C77      1.0000 0.26580  0.08258  0.34588  Biso   1.000  C
  C78      1.0000 0.26399  0.10443  0.50699  Biso   1.000  C
  C79      1.0000 0.27861  0.39621  0.18622  Biso   1.000  C
  C80      1.0000 0.27861  0.10384  0.18622  Biso   1.000  C
  O21      1.0000 0.25051  0.51639  0.34451  Biso   1.000  O
  H123     1.0000 0.29270  0.37613  0.54319  Biso   1.000  H
  H124     1.0000 0.26212  0.47760  0.50449  Biso   1.000  H
  N45      1.0000 0.21981  0.35411  0.54818  Biso   1.000  N
  O22      1.0000 0.25051  0.98357  0.34451  Biso   1.000  O
  H125     1.0000 0.29270  0.12391  0.54319  Biso   1.000  H
  H126     1.0000 0.26212  0.02236  0.50449  Biso   1.000  H
  N46      1.0000 0.21981  0.14593  0.54818  Biso   1.000  N
  H127     1.0000 0.30990  0.37622  0.15730  Biso   1.000  H
  H128     1.0000 0.27650  0.47819  0.18800  Biso   1.000  H
  N47      1.0000 0.23668  0.35242  0.13460  Biso   1.000  N
  H129     1.0000 0.30990  0.12382  0.15730  Biso   1.000  H
  H130     1.0000 0.27650  0.02177  0.18800  Biso   1.000  H
  N48      1.0000 0.23668  0.14762  0.13460  Biso   1.000  N
  C81      1.0000 0.17560  0.41137  0.54267  Biso   1.000  C
  C82      1.0000 0.21561  0.25002  0.60000  Biso   1.000  C
  C83      1.0000 0.17560  0.08859  0.54267  Biso   1.000  C
  C84      1.0000 0.19111  0.40806  0.13611  Biso   1.000  C
  C85      1.0000 0.23522  0.25002  0.08193  Biso   1.000  C
  C86      1.0000 0.19111  0.09189  0.13611  Biso   1.000  C
  N49      1.0000 0.13810  0.35276  0.58636  Biso   1.000  N
  O23      1.0000 0.16940  0.50419  0.50718  Biso   1.000  O
  C87      1.0000 0.15801  0.25002  0.62801  Biso   1.000  C
  C88      1.0000 0.25400  0.25002  0.67707  Biso   1.000  C
  N50      1.0000 0.13810  0.14720  0.58636  Biso   1.000  N
  O24      1.0000 0.16940  0.99577  0.50718  Biso   1.000  O
  N51      1.0000 0.15910  0.35496  0.08291  Biso   1.000  N
  O25      1.0000 0.18281  0.49733  0.17547  Biso   1.000  O
  C89      1.0000 0.18089  0.25002  0.04480  Biso   1.000  C
  C90      1.0000 0.27722  0.25002  0.01279  Biso   1.000  C
  N52      1.0000 0.15910  0.14500  0.08291  Biso   1.000  N
  O26      1.0000 0.18281  0.00271  0.17547  Biso   1.000  O
  C91      1.0000 0.08810  0.39612  0.59377  Biso   1.000  C
  C92      1.0000 0.14671  0.25002  0.72660  Biso   1.000  C
  H131     1.0000 0.25070  0.31913  0.70987  Biso   1.000  H
  H132     1.0000 0.25070  0.18091  0.70987  Biso   1.000  H
  H133     1.0000 0.28751  0.24426  0.65418  Biso   1.000  H
  H134     1.0000 0.28751  0.25570  0.65418  Biso   1.000  H
  H135     1.0000 0.24739  0.18667  0.71486  Biso   1.000  H
  H136     1.0000 0.24739  0.31329  0.71486  Biso   1.000  H
  C93      1.0000 0.08810  0.10392  0.59377  Biso   1.000  C
  C94      1.0000 0.10831  0.39553  0.07019  Biso   1.000  C
  C95      1.0000 0.17541  0.25002  0.94510  Biso   1.000  C
  H137     1.0000 0.30930  0.25315  0.04159  Biso   1.000  H
  H138     1.0000 0.30930  0.24680  0.04159  Biso   1.000  H
  H139     1.0000 0.27519  0.18210  0.97835  Biso   1.000  H
  H140     1.0000 0.27519  0.31786  0.97835  Biso   1.000  H
  H141     1.0000 0.27350  0.31473  0.97527  Biso   1.000  H
  H142     1.0000 0.27350  0.18531  0.97527  Biso   1.000  H
  C96      1.0000 0.10831  0.10451  0.07019  Biso   1.000  C
  H143     1.0000 0.08941  0.47802  0.58878  Biso   1.000  H
  H144     1.0000 0.07540  0.37817  0.65189  Biso   1.000  H
  N53      1.0000 0.05218  0.35259  0.52837  Biso   1.000  N
  H145     1.0000 0.15959  0.31812  0.75251  Biso   1.000  H
  H146     1.0000 0.15959  0.18193  0.75251  Biso   1.000  H
  H147     1.0000 0.16230  0.18548  0.75349  Biso   1.000  H
  H148     1.0000 0.16230  0.31447  0.75349  Biso   1.000  H
  H149     1.0000 0.11102  0.24638  0.73545  Biso   1.000  H
  H150     1.0000 0.11102  0.25358  0.73545  Biso   1.000  H
  H151     1.0000 0.08941  0.02202  0.58878  Biso   1.000  H
  H152     1.0000 0.07540  0.12179  0.65189  Biso   1.000  H
  N54      1.0000 0.05218  0.14737  0.52837  Biso   1.000  N
  H153     1.0000 0.09700  0.37317  0.01220  Biso   1.000  H
  H154     1.0000 0.10850  0.47768  0.07222  Biso   1.000  H
  N55      1.0000 0.07209  0.35360  0.13500  Biso   1.000  N
  H155     1.0000 0.18968  0.31820  0.92155  Biso   1.000  H
  H156     1.0000 0.18968  0.18176  0.92155  Biso   1.000  H
  H157     1.0000 0.19261  0.18557  0.92109  Biso   1.000  H
  H158     1.0000 0.19261  0.31439  0.92109  Biso   1.000  H
  H159     1.0000 0.14039  0.24621  0.92988  Biso   1.000  H
  H160     1.0000 0.14039  0.25383  0.92988  Biso   1.000  H
  H161     1.0000 0.09700  0.12679  0.01220  Biso   1.000  H
  H162     1.0000 0.10850  0.02227  0.07222  Biso   1.000  H
  N56      1.0000 0.07209  0.14644  0.13500  Biso   1.000  N
  C97      1.0000 0.04309  0.41306  0.45267  Biso   1.000  C
  C98      1.0000 0.02250  0.25002  0.53631  Biso   1.000  C
  C99      1.0000 0.04309  0.08690  0.45267  Biso   1.000  C
  C100     1.0000 0.05571  0.41713  0.20249  Biso   1.000  C
  C101     1.0000 0.04459  0.25002  0.12417  Biso   1.000  C
  C102     1.0000 0.05571  0.08292  0.20249  Biso   1.000  C
  N57      1.0000 0.00890  0.35369  0.40551  Biso   1.000  N
  O27      1.0000 0.06191  0.50309  0.43326  Biso   1.000  O
  C103     1.0000 0.99181  0.25002  0.44821  Biso   1.000  C
  C104     1.0000 0.99121  0.25002  0.61929  Biso   1.000  C
  N58      1.0000 0.00890  0.14627  0.40551  Biso   1.000  N
  O28      1.0000 0.06191  0.99687  0.43326  Biso   1.000  O
  N59      1.0000 0.02051  0.35369  0.24716  Biso   1.000  N
  O29      1.0000 0.06770  0.51436  0.21981  Biso   1.000  O
  H163     1.0000 0.02619  0.25002  0.06848  Biso   1.000  H
  C105     1.0000 0.00800  0.25002  0.20243  Biso   1.000  C
  N60      1.0000 0.02051  0.14627  0.24716  Biso   1.000  N
  O30      1.0000 0.06770  0.98560  0.21981  Biso   1.000  O
  C106     1.0000 0.99200  0.39629  0.32076  Biso   1.000  C
  C107     1.0000 0.93279  0.25002  0.45831  Biso   1.000  C
  H164     1.0000 0.01300  0.24502  0.66940  Biso   1.000  H
  H165     1.0000 0.01300  0.25502  0.66940  Biso   1.000  H
  H166     1.0000 0.97209  0.31871  0.62237  Biso   1.000  H
  H167     1.0000 0.97209  0.18133  0.62237  Biso   1.000  H
  H168     1.0000 0.96889  0.18616  0.61876  Biso   1.000  H
  H169     1.0000 0.96889  0.31380  0.61876  Biso   1.000  H
  C108     1.0000 0.99200  0.10367  0.32076  Biso   1.000  C
  H170     1.0000 0.97291  0.25002  0.18268  Biso   1.000  H
  H171     1.0000 0.95698  0.37613  0.31289  Biso   1.000  H
  H172     1.0000 0.99421  0.47836  0.32109  Biso   1.000  H
  H173     1.0000 0.92231  0.31862  0.48672  Biso   1.000  H
  H174     1.0000 0.92231  0.18142  0.48672  Biso   1.000  H
  H175     1.0000 0.92261  0.18599  0.49288  Biso   1.000  H
  H176     1.0000 0.92261  0.31397  0.49288  Biso   1.000  H
  H177     1.0000 0.91750  0.24536  0.40131  Biso   1.000  H
  H178     1.0000 0.91750  0.25459  0.40131  Biso   1.000  H
  H179     1.0000 0.95698  0.12391  0.31289  Biso   1.000  H
  H180     1.0000 0.99421  0.02160  0.32109  Biso   1.000  H
  C109     1.0000 0.70069  0.74998  0.59829  Biso   1.000  C
  N61      1.0000 0.72721  0.64657  0.58026  Biso   1.000  N
  H181     1.0000 0.66771  0.74998  0.56989  Biso   1.000  H
  C110     1.0000 0.69528  0.74998  0.70069  Biso   1.000  C
  N62      1.0000 0.72721  0.85339  0.58026  Biso   1.000  N
  C111     1.0000 0.73601  0.60439  0.49301  Biso   1.000  C
  C112     1.0000 0.73420  0.58262  0.65405  Biso   1.000  C
  N63      1.0000 0.72041  0.64690  0.72457  Biso   1.000  N
  H182     1.0000 0.66000  0.74998  0.71919  Biso   1.000  H
  N64      1.0000 0.72041  0.85305  0.72457  Biso   1.000  N
  C113     1.0000 0.73420  0.91742  0.65405  Biso   1.000  C
  C114     1.0000 0.73601  0.89557  0.49301  Biso   1.000  C
  H183     1.0000 0.70730  0.62387  0.45681  Biso   1.000  H
  H184     1.0000 0.73788  0.52240  0.49551  Biso   1.000  H
  N65      1.0000 0.78019  0.64589  0.45182  Biso   1.000  N
  O31      1.0000 0.74949  0.48361  0.65549  Biso   1.000  O
  C115     1.0000 0.72139  0.60379  0.81378  Biso   1.000  C
  C116     1.0000 0.72139  0.89616  0.81378  Biso   1.000  C
  O32      1.0000 0.74949  0.01643  0.65549  Biso   1.000  O
  N66      1.0000 0.78019  0.85407  0.45182  Biso   1.000  N
  H185     1.0000 0.70730  0.87609  0.45681  Biso   1.000  H
  H186     1.0000 0.73788  0.97756  0.49551  Biso   1.000  H
  C117     1.0000 0.82440  0.58855  0.45726  Biso   1.000  C
  C118     1.0000 0.78439  0.74998  0.40000  Biso   1.000  C
  H187     1.0000 0.69010  0.62378  0.84270  Biso   1.000  H
  H188     1.0000 0.72350  0.52181  0.81200  Biso   1.000  H
  N67      1.0000 0.76332  0.64758  0.86540  Biso   1.000  N
  H189     1.0000 0.69010  0.87618  0.84270  Biso   1.000  H
  H190     1.0000 0.72350  0.97815  0.81200  Biso   1.000  H
  N68      1.0000 0.76332  0.85238  0.86540  Biso   1.000  N
  C119     1.0000 0.82440  0.91141  0.45726  Biso   1.000  C
  N69      1.0000 0.86190  0.64716  0.41358  Biso   1.000  N
  O33      1.0000 0.83060  0.49581  0.49282  Biso   1.000  O
  C120     1.0000 0.84199  0.74998  0.37199  Biso   1.000  C
  C121     1.0000 0.74600  0.74998  0.32286  Biso   1.000  C
  C122     1.0000 0.80889  0.59185  0.86389  Biso   1.000  C
  C123     1.0000 0.76478  0.74998  0.91807  Biso   1.000  C
  C124     1.0000 0.80889  0.90811  0.86389  Biso   1.000  C
  N70      1.0000 0.86190  0.85280  0.41358  Biso   1.000  N
  O34      1.0000 0.83060  0.00423  0.49282  Biso   1.000  O
  C125     1.0000 0.91190  0.60388  0.40617  Biso   1.000  C
  C126     1.0000 0.85329  0.74998  0.27340  Biso   1.000  C
  H191     1.0000 0.74930  0.81909  0.29006  Biso   1.000  H
  H192     1.0000 0.74930  0.68087  0.29006  Biso   1.000  H
  H193     1.0000 0.71249  0.74430  0.34582  Biso   1.000  H
  H194     1.0000 0.71249  0.75565  0.34582  Biso   1.000  H
  H195     1.0000 0.75261  0.68671  0.28508  Biso   1.000  H
  H196     1.0000 0.75261  0.81325  0.28508  Biso   1.000  H
  N71      1.0000 0.84090  0.64496  0.91709  Biso   1.000  N
  O35      1.0000 0.81719  0.50267  0.82447  Biso   1.000  O
  C127     1.0000 0.81911  0.74998  0.95520  Biso   1.000  C
  C128     1.0000 0.72278  0.74998  0.98714  Biso   1.000  C
  N72      1.0000 0.84090  0.85500  0.91709  Biso   1.000  N
  O36      1.0000 0.81719  0.99729  0.82447  Biso   1.000  O
  C129     1.0000 0.91190  0.89608  0.40617  Biso   1.000  C
  H197     1.0000 0.91059  0.52198  0.41122  Biso   1.000  H
  H198     1.0000 0.92460  0.62175  0.34811  Biso   1.000  H
  N73      1.0000 0.94782  0.64741  0.47156  Biso   1.000  N
  H199     1.0000 0.84041  0.81807  0.24749  Biso   1.000  H
  H200     1.0000 0.84041  0.68188  0.24749  Biso   1.000  H
  H201     1.0000 0.83770  0.68553  0.24651  Biso   1.000  H
  H202     1.0000 0.83770  0.81452  0.24651  Biso   1.000  H
  H203     1.0000 0.88898  0.74642  0.26448  Biso   1.000  H
  H204     1.0000 0.88898  0.75362  0.26448  Biso   1.000  H
  C130     1.0000 0.89169  0.60447  0.92975  Biso   1.000  C
  C131     1.0000 0.82459  0.74998  0.05490  Biso   1.000  C
  H205     1.0000 0.69070  0.75320  0.95835  Biso   1.000  H
  H206     1.0000 0.69070  0.74676  0.95835  Biso   1.000  H
  H207     1.0000 0.72481  0.68205  0.02158  Biso   1.000  H
  H208     1.0000 0.72481  0.81790  0.02158  Biso   1.000  H
  H209     1.0000 0.72650  0.81469  0.02473  Biso   1.000  H
  H210     1.0000 0.72650  0.68527  0.02473  Biso   1.000  H
  C132     1.0000 0.89169  0.89549  0.92975  Biso   1.000  C
  H211     1.0000 0.91059  0.97798  0.41122  Biso   1.000  H
  H212     1.0000 0.92460  0.87821  0.34811  Biso   1.000  H
  N74      1.0000 0.94782  0.85255  0.47156  Biso   1.000  N
  C133     1.0000 0.95691  0.58686  0.54726  Biso   1.000  C
  C134     1.0000 0.97750  0.74998  0.46369  Biso   1.000  C
  H213     1.0000 0.90300  0.62683  0.98780  Biso   1.000  H
  H214     1.0000 0.89150  0.52232  0.92778  Biso   1.000  H
  N75      1.0000 0.92791  0.64640  0.86500  Biso   1.000  N
  H215     1.0000 0.81032  0.81816  0.07839  Biso   1.000  H
  H216     1.0000 0.81032  0.68180  0.07839  Biso   1.000  H
  H217     1.0000 0.80739  0.68561  0.07891  Biso   1.000  H
  H218     1.0000 0.80739  0.81435  0.07891  Biso   1.000  H
  H219     1.0000 0.85961  0.74617  0.07012  Biso   1.000  H
  H220     1.0000 0.85961  0.75379  0.07012  Biso   1.000  H
  H221     1.0000 0.90300  0.87321  0.98780  Biso   1.000  H
  H222     1.0000 0.89150  0.97773  0.92778  Biso   1.000  H
  N76      1.0000 0.92791  0.85356  0.86500  Biso   1.000  N
  C135     1.0000 0.95691  0.91310  0.54726  Biso   1.000  C
  N77      1.0000 0.99110  0.64631  0.59449  Biso   1.000  N
  O37      1.0000 0.93809  0.49691  0.56668  Biso   1.000  O
  C136     1.0000 0.00819  0.74998  0.55179  Biso   1.000  C
  C137     1.0000 0.00879  0.74998  0.38071  Biso   1.000  C
  C138     1.0000 0.94429  0.58287  0.79751  Biso   1.000  C
  C139     1.0000 0.95541  0.74998  0.87576  Biso   1.000  C
  C140     1.0000 0.94429  0.91708  0.79751  Biso   1.000  C
  N78      1.0000 0.99110  0.85365  0.59449  Biso   1.000  N
  O38      1.0000 0.93809  0.00313  0.56668  Biso   1.000  O
  C141     1.0000 0.00800  0.60371  0.67917  Biso   1.000  C
  C142     1.0000 0.06721  0.74998  0.54169  Biso   1.000  C
  H223     1.0000 0.98700  0.74498  0.33060  Biso   1.000  H
  H224     1.0000 0.98700  0.75498  0.33060  Biso   1.000  H
  H225     1.0000 0.02791  0.81867  0.37757  Biso   1.000  H
  H226     1.0000 0.02791  0.68129  0.37757  Biso   1.000  H
  H227     1.0000 0.03111  0.68620  0.38117  Biso   1.000  H
  H228     1.0000 0.03111  0.81375  0.38117  Biso   1.000  H
  N79      1.0000 0.97949  0.64631  0.75277  Biso   1.000  N
  O39      1.0000 0.93230  0.48556  0.78019  Biso   1.000  O
  C143     1.0000 0.99200  0.74998  0.79757  Biso   1.000  C
  H229     1.0000 0.97381  0.74998  0.93145  Biso   1.000  H
  N80      1.0000 0.97949  0.85365  0.75277  Biso   1.000  N
  O40      1.0000 0.93230  0.01440  0.78019  Biso   1.000  O
  C144     1.0000 0.00800  0.89625  0.67917  Biso   1.000  C
  H230     1.0000 0.04302  0.62387  0.68711  Biso   1.000  H
  H231     1.0000 0.00579  0.52156  0.67891  Biso   1.000  H
  H232     1.0000 0.07769  0.81858  0.51328  Biso   1.000  H
  H233     1.0000 0.07769  0.68138  0.51328  Biso   1.000  H
  H234     1.0000 0.07739  0.68595  0.50712  Biso   1.000  H
  H235     1.0000 0.07739  0.81401  0.50712  Biso   1.000  H
  H236     1.0000 0.08250  0.74541  0.59869  Biso   1.000  H
  H237     1.0000 0.08250  0.75455  0.59869  Biso   1.000  H
  H238     1.0000 0.02709  0.74998  0.81725  Biso   1.000  H
  H239     1.0000 0.04302  0.87609  0.68711  Biso   1.000  H
  H240     1.0000 0.00579  0.97840  0.67891  Biso   1.000  H
  Ne1      1.0000 0.14430  0.25000  0.34403  Biso   1.000  Ne
  He1      1.0000 0.14560  0.98955  0.33744  Biso   1.000  He
  He2      1.0000 0.14560  0.51446  0.33739  Biso   1.000  He
  Ar1      1.0000 0.14659  0.24998  0.33770  Biso   1.000  Ar
  Ne2      1.0000 0.64430  0.25000  0.15596  Biso   1.000  Ne
  He3      1.0000 0.64560  0.98955  0.16252  Biso   1.000  He
  He4      1.0000 0.64559  0.50705  0.16248  Biso   1.000  He
  Ar2      1.0000 0.64659  0.24998  0.16226  Biso   1.000  Ar
  Ne3      1.0000 0.35570  0.74998  0.84402  Biso   1.000  Ne
  He5      1.0000 0.35439  0.01478  0.83742  Biso   1.000  He
  He6      1.0000 0.35441  0.49941  0.83760  Biso   1.000  He
  Ar3      1.0000 0.35344  0.74998  0.83774  Biso   1.000  Ar
  Ne4      1.0000 0.85570  0.74998  0.65594  Biso   1.000  Ne
  He7      1.0000 0.85443  0.00743  0.66249  Biso   1.000  He
  He8      1.0000 0.85444  0.49941  0.66240  Biso   1.000  He
  Ar4      1.0000 0.85346  0.74998  0.66220  Biso   1.000  Ar
