data_image0
_cell_length_a       24.075
_cell_length_b       24.075
_cell_length_c       10.715
_cell_angle_alpha    90
_cell_angle_beta     90
_cell_angle_gamma    120

_symmetry_space_group_name_H-M    "P 1"
_symmetry_int_tables_number       1

loop_
  _symmetry_equiv_pos_as_xyz
  'x, y, z'

loop_
  _atom_site_label
  _atom_site_occupancy
  _atom_site_fract_x
  _atom_site_fract_y
  _atom_site_fract_z
  _atom_site_thermal_displace_type
  _atom_site_B_iso_or_equiv
  _atom_site_type_symbol
  C1       1.0000 0.69980  0.76400  0.30266  Biso   1.000  C
  C2       1.0000 0.74022  0.80280  0.41325  Biso   1.000  C
  H1       1.0000 0.67420  0.78251  0.27224  Biso   1.000  H
  H2       1.0000 0.67119  0.71949  0.32870  Biso   1.000  H
  H3       1.0000 0.72800  0.76491  0.23584  Biso   1.000  H
  N1       1.0000 0.77490  0.87100  0.37564  Biso   1.000  N
  C3       1.0000 0.78390  0.78150  0.46972  Biso   1.000  C
  C4       1.0000 0.70400  0.80539  0.53672  Biso   1.000  C
  C5       1.0000 0.77991  0.89191  0.26402  Biso   1.000  C
  N2       1.0000 0.82519  0.78491  0.35399  Biso   1.000  N
  H4       1.0000 0.75930  0.73728  0.50313  Biso   1.000  H
  H5       1.0000 0.81081  0.81090  0.53691  Biso   1.000  H
  H6       1.0000 0.73570  0.83148  0.60009  Biso   1.000  H
  H7       1.0000 0.67680  0.76179  0.56864  Biso   1.000  H
  H8       1.0000 0.67737  0.82448  0.51666  Biso   1.000  H
  C6       1.0000 0.81620  0.95959  0.22753  Biso   1.000  C
  H9       1.0000 0.75850  0.86122  0.19991  Biso   1.000  H
  C7       1.0000 0.88239  0.81858  0.36930  Biso   1.000  C
  C8       1.0000 0.80994  0.97964  0.10929  Biso   1.000  C
  C9       1.0000 0.85953  0.00371  0.31227  Biso   1.000  C
  C10      1.0000 0.93210  0.82860  0.27895  Biso   1.000  C
  H10      1.0000 0.89621  0.84031  0.44685  Biso   1.000  H
  H11      1.0000 0.78039  0.94961  0.05142  Biso   1.000  H
  C11      1.0000 0.84698  0.04391  0.07597  Biso   1.000  C
  H12      1.0000 0.86380  0.99000  0.39300  Biso   1.000  H
  C12      1.0000 0.89654  0.06794  0.27895  Biso   1.000  C
  C13      1.0000 0.91208  0.80227  0.16080  Biso   1.000  C
  C14      1.0000 0.99629  0.85580  0.31227  Biso   1.000  C
  C15      1.0000 0.84252  0.06664  0.94923  Biso   1.000  C
  C16      1.0000 0.89018  0.08794  0.16080  Biso   1.000  C
  C17      1.0000 0.93618  0.11763  0.36930  Biso   1.000  C
  C18      1.0000 0.95610  0.80309  0.07597  Biso   1.000  C
  H13      1.0000 0.86820  0.78371  0.13803  Biso   1.000  H
  H14      1.0000 0.00998  0.87378  0.39300  Biso   1.000  H
  C19      1.0000 0.04044  0.85661  0.22753  Biso   1.000  C
  N3       1.0000 0.80122  0.03331  0.87345  Biso   1.000  N
  H15      1.0000 0.87328  0.10914  0.92608  Biso   1.000  H
  H16      1.0000 0.91549  0.13182  0.13803  Biso   1.000  H
  N4       1.0000 0.95972  0.17484  0.35399  Biso   1.000  N
  H17      1.0000 0.94414  0.10381  0.44685  Biso   1.000  H
  C20      1.0000 0.93341  0.77589  0.94923  Biso   1.000  C
  C21      1.0000 0.02033  0.83028  0.10929  Biso   1.000  C
  C22      1.0000 0.10808  0.88798  0.26402  Biso   1.000  C
  C23      1.0000 0.79289  0.05834  0.75744  Biso   1.000  C
  C24      1.0000 0.99764  0.21614  0.46972  Biso   1.000  C
  N5       1.0000 0.96670  0.76788  0.87345  Biso   1.000  N
  H18      1.0000 0.89088  0.76419  0.92608  Biso   1.000  H
  H19      1.0000 0.05042  0.83081  0.05142  Biso   1.000  H
  N6       1.0000 0.12900  0.90390  0.37564  Biso   1.000  N
  H20      1.0000 0.13878  0.89729  0.19991  Biso   1.000  H
  C25      1.0000 0.80020  0.01623  0.65824  Biso   1.000  C
  C26      1.0000 0.82487  0.09671  0.70107  Biso   1.000  C
  H21      1.0000 0.82601  0.10391  0.74699  Biso   1.000  H
  H22      1.0000 0.75000  0.05431  0.75296  Biso   1.000  H
  H23      1.0000 0.97802  0.24070  0.50313  Biso   1.000  H
  C27      1.0000 0.06265  0.25983  0.41325  Biso   1.000  C
  H24      1.0000 0.00010  0.18923  0.53691  Biso   1.000  H
  C28      1.0000 0.94171  0.73460  0.75744  Biso   1.000  C
  C29      1.0000 0.19721  0.93738  0.41325  Biso   1.000  C
  H25      1.0000 0.77249  0.97028  0.67970  Biso   1.000  H
  C30      1.0000 0.73180  0.95868  0.64928  Biso   1.000  C
  N7       1.0000 0.86602  0.03172  0.65320  Biso   1.000  N
  H26      1.0000 0.78671  0.02371  0.57564  Biso   1.000  H
  H27      1.0000 0.83459  0.13734  0.74046  Biso   1.000  H
  H28      1.0000 0.80539  0.09331  0.61913  Biso   1.000  H
  H29      1.0000 0.86458  0.09523  0.69090  Biso   1.000  H
  C31      1.0000 0.79286  0.07441  0.55035  Biso   1.000  C
  N8       1.0000 0.09613  0.22511  0.37564  Biso   1.000  N
  C32      1.0000 0.06423  0.30022  0.30266  Biso   1.000  C
  C33      1.0000 0.10137  0.29600  0.53672  Biso   1.000  C
  C34      1.0000 0.98382  0.78400  0.65824  Biso   1.000  C
  C35      1.0000 0.90330  0.72822  0.70107  Biso   1.000  C
  H30      1.0000 0.89608  0.72208  0.74699  Biso   1.000  H
  H31      1.0000 0.94569  0.69570  0.75296  Biso   1.000  H
  C36      1.0000 0.23600  0.93580  0.30266  Biso   1.000  C
  C37      1.0000 0.19459  0.89858  0.53672  Biso   1.000  C
  C38      1.0000 0.21847  0.00242  0.46972  Biso   1.000  C
  H32      1.0000 0.71059  0.96328  0.57508  Biso   1.000  H
  H33      1.0000 0.70759  0.95719  0.72385  Biso   1.000  H
  H34      1.0000 0.73352  0.91901  0.64312  Biso   1.000  H
  C39      1.0000 0.71254  0.01503  0.70705  Biso   1.000  C
  C40      1.0000 0.87643  0.98592  0.67196  Biso   1.000  C
  H35      1.0000 0.83354  0.11523  0.54942  Biso   1.000  H
  H36      1.0000 0.75854  0.08161  0.57993  Biso   1.000  H
  H37      1.0000 0.78288  0.05652  0.46580  Biso   1.000  H
  C41      1.0000 0.11203  0.22012  0.26402  Biso   1.000  C
  H38      1.0000 0.10832  0.32583  0.27224  Biso   1.000  H
  H39      1.0000 0.04829  0.32880  0.32870  Biso   1.000  H
  H40      1.0000 0.03692  0.27202  0.23584  Biso   1.000  H
  H41      1.0000 0.09581  0.26434  0.60009  Biso   1.000  H
  H42      1.0000 0.08505  0.32324  0.56864  Biso   1.000  H
  H43      1.0000 0.14708  0.32262  0.51666  Biso   1.000  H
  N9       1.0000 0.96831  0.83431  0.65320  Biso   1.000  N
  H44      1.0000 0.97630  0.76299  0.57564  Biso   1.000  H
  H45      1.0000 0.02973  0.80222  0.67970  Biso   1.000  H
  C42      1.0000 0.04130  0.77311  0.64928  Biso   1.000  C
  H46      1.0000 0.86270  0.69728  0.74046  Biso   1.000  H
  H47      1.0000 0.90670  0.71210  0.61913  Biso   1.000  H
  H48      1.0000 0.90479  0.76942  0.69090  Biso   1.000  H
  C43      1.0000 0.92560  0.71848  0.55035  Biso   1.000  C
  H49      1.0000 0.21749  0.89172  0.27224  Biso   1.000  H
  H50      1.0000 0.28051  0.95172  0.32870  Biso   1.000  H
  H51      1.0000 0.23511  0.96309  0.23584  Biso   1.000  H
  H52      1.0000 0.16848  0.90419  0.60009  Biso   1.000  H
  H53      1.0000 0.23818  0.91498  0.56864  Biso   1.000  H
  H54      1.0000 0.17549  0.85292  0.51666  Biso   1.000  H
  H55      1.0000 0.18908  0.99988  0.53691  Biso   1.000  H
  N10      1.0000 0.21507  0.04031  0.35399  Biso   1.000  N
  H56      1.0000 0.26275  0.02204  0.50313  Biso   1.000  H
  H57      1.0000 0.68789  0.97911  0.76398  Biso   1.000  H
  H58      1.0000 0.71089  0.99868  0.62268  Biso   1.000  H
  H59      1.0000 0.69421  0.04333  0.70658  Biso   1.000  H
  C44      1.0000 0.94098  0.99398  0.67401  Biso   1.000  C
  H60      1.0000 0.84078  0.94429  0.68549  Biso   1.000  H
  C45      1.0000 0.14339  0.18381  0.22753  Biso   1.000  C
  H61      1.0000 0.10267  0.24151  0.19991  Biso   1.000  H
  C46      1.0000 0.01411  0.89052  0.67196  Biso   1.000  C
  C47      1.0000 0.98502  0.69752  0.70705  Biso   1.000  C
  H62      1.0000 0.03671  0.74731  0.57508  Biso   1.000  H
  H63      1.0000 0.04279  0.75042  0.72385  Biso   1.000  H
  H64      1.0000 0.08102  0.81450  0.64312  Biso   1.000  H
  H65      1.0000 0.88479  0.71829  0.54942  Biso   1.000  H
  H66      1.0000 0.91839  0.67690  0.57993  Biso   1.000  H
  H67      1.0000 0.94351  0.72639  0.46580  Biso   1.000  H
  C48      1.0000 0.18138  0.06381  0.36930  Biso   1.000  C
  C49      1.0000 0.94222  0.93589  0.67354  Biso   1.000  C
  C50      1.0000 0.99375  0.05782  0.67354  Biso   1.000  C
  C51      1.0000 0.14421  0.14050  0.31227  Biso   1.000  C
  C52      1.0000 0.16969  0.19005  0.10929  Biso   1.000  C
  C53      1.0000 0.00601  0.94702  0.67401  Biso   1.000  C
  H68      1.0000 0.05569  0.89652  0.68549  Biso   1.000  H
  H69      1.0000 0.95669  0.65090  0.70658  Biso   1.000  H
  H70      1.0000 0.02090  0.70879  0.76398  Biso   1.000  H
  H71      1.0000 0.00129  0.71220  0.62268  Biso   1.000  H
  C54      1.0000 0.17141  0.10352  0.27895  Biso   1.000  C
  H72      1.0000 0.15972  0.05590  0.44685  Biso   1.000  H
  H73      1.0000 0.90490  0.89450  0.67308  Biso   1.000  H
  H74      1.0000 0.98964  0.09513  0.67308  Biso   1.000  H
  C55      1.0000 0.05304  0.05902  0.67401  Biso   1.000  C
  H75      1.0000 0.12625  0.13623  0.39300  Biso   1.000  H
  C56      1.0000 0.19695  0.15302  0.07597  Biso   1.000  C
  H76      1.0000 0.16920  0.21964  0.05142  Biso   1.000  H
  C57      1.0000 0.06411  0.00630  0.67354  Biso   1.000  C
  C58      1.0000 0.19773  0.10981  0.16080  Biso   1.000  C
  C59      1.0000 0.10947  0.12362  0.67196  Biso   1.000  C
  C60      1.0000 0.22412  0.15753  0.94923  Biso   1.000  C
  H77      1.0000 0.10555  0.01043  0.67308  Biso   1.000  H
  H78      1.0000 0.21628  0.08453  0.13803  Biso   1.000  H
  N11      1.0000 0.16573  0.13403  0.65320  Biso   1.000  N
  H79      1.0000 0.10351  0.15921  0.68549  Biso   1.000  H
  N12      1.0000 0.23210  0.19883  0.87345  Biso   1.000  N
  H80      1.0000 0.23581  0.12674  0.92608  Biso   1.000  H
  C61      1.0000 0.21599  0.19983  0.65824  Biso   1.000  C
  C62      1.0000 0.26541  0.20712  0.75744  Biso   1.000  C
  H81      1.0000 0.19785  0.22751  0.67970  Biso   1.000  H
  H82      1.0000 0.23698  0.21331  0.57564  Biso   1.000  H
  C63      1.0000 0.22689  0.26823  0.64928  Biso   1.000  C
  C64      1.0000 0.27184  0.17513  0.70107  Biso   1.000  C
  H83      1.0000 0.27794  0.17403  0.74699  Biso   1.000  H
  H84      1.0000 0.30434  0.25000  0.75296  Biso   1.000  H
  C65      1.0000 0.30253  0.28751  0.70705  Biso   1.000  C
  H85      1.0000 0.25269  0.28943  0.57508  Biso   1.000  H
  H86      1.0000 0.24961  0.29240  0.72385  Biso   1.000  H
  H87      1.0000 0.18552  0.26650  0.64312  Biso   1.000  H
  H88      1.0000 0.30272  0.16544  0.74046  Biso   1.000  H
  H89      1.0000 0.28794  0.19461  0.61913  Biso   1.000  H
  H90      1.0000 0.23064  0.13542  0.69090  Biso   1.000  H
  C66      1.0000 0.28153  0.20712  0.55035  Biso   1.000  C
  H91      1.0000 0.29120  0.31211  0.76398  Biso   1.000  H
  H92      1.0000 0.28781  0.28914  0.62268  Biso   1.000  H
  H93      1.0000 0.34916  0.30583  0.70658  Biso   1.000  H
  H94      1.0000 0.28173  0.16650  0.54942  Biso   1.000  H
  H95      1.0000 0.32314  0.24151  0.57993  Biso   1.000  H
  H96      1.0000 0.27364  0.21710  0.46580  Biso   1.000  H
  C67      1.0000 0.54022  0.56040  0.41269  Biso   1.000  C
  C68      1.0000 0.50328  0.56668  0.31666  Biso   1.000  C
  H97      1.0000 0.51871  0.51589  0.44209  Biso   1.000  H
  H98      1.0000 0.54470  0.58879  0.48222  Biso   1.000  H
  H99      1.0000 0.58271  0.57210  0.38040  Biso   1.000  H
  N13      1.0000 0.43292  0.54102  0.35399  Biso   1.000  N
  C69      1.0000 0.52913  0.63042  0.26822  Biso   1.000  C
  C70      1.0000 0.50267  0.52668  0.21549  Biso   1.000  C
  C71      1.0000 0.41107  0.52649  0.45628  Biso   1.000  C
  N14      1.0000 0.53409  0.67349  0.36519  Biso   1.000  N
  H100     1.0000 0.57200  0.64481  0.23192  Biso   1.000  H
  H101     1.0000 0.50093  0.63052  0.20103  Biso   1.000  H
  H102     1.0000 0.48339  0.48222  0.24442  Biso   1.000  H
  H103     1.0000 0.54669  0.54169  0.18768  Biso   1.000  H
  H104     1.0000 0.47749  0.52898  0.14596  Biso   1.000  H
  C72      1.0000 0.34736  0.50548  0.49622  Biso   1.000  C
  H105     1.0000 0.44012  0.52941  0.51955  Biso   1.000  H
  C73      1.0000 0.50761  0.71009  0.34923  Biso   1.000  C
  C74      1.0000 0.30552  0.50812  0.41008  Biso   1.000  C
  C75      1.0000 0.32571  0.48087  0.61475  Biso   1.000  C
  C76      1.0000 0.51392  0.75594  0.44256  Biso   1.000  C
  H106     1.0000 0.48412  0.70582  0.27513  Biso   1.000  H
  H107     1.0000 0.32040  0.52490  0.32888  Biso   1.000  H
  C77      1.0000 0.24199  0.48605  0.44256  Biso   1.000  C
  C78      1.0000 0.26212  0.45886  0.64741  Biso   1.000  C
  H108     1.0000 0.35432  0.47910  0.67364  Biso   1.000  H
  C79      1.0000 0.49190  0.79738  0.41008  Biso   1.000  C
  C80      1.0000 0.53856  0.75886  0.56127  Biso   1.000  C
  C81      1.0000 0.22030  0.46145  0.56127  Biso   1.000  C
  C82      1.0000 0.20250  0.49238  0.34923  Biso   1.000  C
  C83      1.0000 0.23100  0.42528  0.76780  Biso   1.000  C
  C84      1.0000 0.49451  0.84189  0.49622  Biso   1.000  C
  H109     1.0000 0.47510  0.79551  0.32888  Biso   1.000  H
  H110     1.0000 0.55363  0.73052  0.58357  Biso   1.000  H
  C85      1.0000 0.54116  0.80328  0.64741  Biso   1.000  C
  H111     1.0000 0.17688  0.44639  0.58357  Biso   1.000  H
  N15      1.0000 0.13941  0.46591  0.36519  Biso   1.000  N
  H112     1.0000 0.22168  0.51589  0.27513  Biso   1.000  H
  N16      1.0000 0.26770  0.41852  0.83994  Biso   1.000  N
  H113     1.0000 0.18732  0.41061  0.78675  Biso   1.000  H
  C86      1.0000 0.51910  0.84481  0.61475  Biso   1.000  C
  C87      1.0000 0.47351  0.88462  0.45628  Biso   1.000  C
  C88      1.0000 0.57468  0.80568  0.76780  Biso   1.000  C
  C89      1.0000 0.10128  0.47090  0.26822  Biso   1.000  C
  C90      1.0000 0.23339  0.38221  0.96034  Biso   1.000  C
  H114     1.0000 0.52089  0.87522  0.67364  Biso   1.000  H
  N17      1.0000 0.45900  0.89191  0.35399  Biso   1.000  N
  H115     1.0000 0.47060  0.91071  0.51955  Biso   1.000  H
  N18      1.0000 0.58147  0.84918  0.83994  Biso   1.000  N
  H116     1.0000 0.58939  0.77671  0.78675  Biso   1.000  H
  C91      1.0000 0.06339  0.49670  0.31666  Biso   1.000  C
  H117     1.0000 0.07283  0.42802  0.23192  Biso   1.000  H
  H118     1.0000 0.12959  0.49910  0.20103  Biso   1.000  H
  H119     1.0000 0.23158  0.34029  0.96547  Biso   1.000  H
  H120     1.0000 0.18931  0.37521  0.96500  Biso   1.000  H
  C92      1.0000 0.27599  0.42778  0.06430  Biso   1.000  C
  C93      1.0000 0.17879  0.38250  0.00476  Biso   1.000  C
  C94      1.0000 0.26362  0.34140  0.00121  Biso   1.000  C
  C95      1.0000 0.43329  0.93661  0.31666  Biso   1.000  C
  C96      1.0000 0.61779  0.85119  0.96034  Biso   1.000  C
  N19      1.0000 0.10810  0.56711  0.35399  Biso   1.000  N
  C97      1.0000 0.02401  0.49728  0.21549  Biso   1.000  C
  C98      1.0000 0.02019  0.45982  0.41269  Biso   1.000  C
  N20      1.0000 0.27759  0.49171  0.06262  Biso   1.000  N
  H121     1.0000 0.25979  0.40701  0.14634  Biso   1.000  H
  H122     1.0000 0.32019  0.43560  0.05441  Biso   1.000  H
  C99      1.0000 0.22621  0.37799  0.16416  Biso   1.000  C
  C100     1.0000 0.33949  0.42519  0.06654  Biso   1.000  C
  H123     1.0000 0.14230  0.35588  0.95035  Biso   1.000  H
  H124     1.0000 0.18670  0.42648  0.00532  Biso   1.000  H
  H125     1.0000 0.16930  0.36509  0.08978  Biso   1.000  H
  H126     1.0000 0.30102  0.35190  0.94867  Biso   1.000  H
  H127     1.0000 0.23192  0.29569  0.99197  Biso   1.000  H
  H128     1.0000 0.27711  0.35061  0.08857  Biso   1.000  H
  C101     1.0000 0.36961  0.89872  0.26822  Biso   1.000  C
  C102     1.0000 0.47329  0.97599  0.21549  Biso   1.000  C
  C103     1.0000 0.43959  0.97978  0.41269  Biso   1.000  C
  H129     1.0000 0.65968  0.89129  0.96547  Biso   1.000  H
  H130     1.0000 0.62480  0.81412  0.96500  Biso   1.000  H
  C104     1.0000 0.57223  0.84822  0.06430  Biso   1.000  C
  C105     1.0000 0.61752  0.79632  0.00476  Biso   1.000  C
  C106     1.0000 0.65860  0.92218  0.00121  Biso   1.000  C
  C107     1.0000 0.11538  0.58889  0.45628  Biso   1.000  C
  H131     1.0000 0.05149  0.52250  0.14596  Biso   1.000  H
  H132     1.0000 0.99882  0.51661  0.24442  Biso   1.000  H
  H133     1.0000 0.99500  0.45329  0.18768  Biso   1.000  H
  H134     1.0000 0.04410  0.45531  0.48222  Biso   1.000  H
  H135     1.0000 0.99720  0.48131  0.44209  Biso   1.000  H
  H136     1.0000 0.98943  0.41732  0.38040  Biso   1.000  H
  C108     1.0000 0.33052  0.54332  0.04769  Biso   1.000  C
  H137     1.0000 0.24222  0.39281  0.24881  Biso   1.000  H
  H138     1.0000 0.22171  0.33559  0.15082  Biso   1.000  H
  H139     1.0000 0.18440  0.37512  0.15380  Biso   1.000  H
  H140     1.0000 0.36190  0.44102  0.98665  Biso   1.000  H
  H141     1.0000 0.36691  0.45219  0.13448  Biso   1.000  H
  H142     1.0000 0.32953  0.38092  0.07951  Biso   1.000  H
  N21      1.0000 0.32650  0.86059  0.36519  Biso   1.000  N
  H143     1.0000 0.35520  0.92721  0.23192  Biso   1.000  H
  H144     1.0000 0.36948  0.87038  0.20103  Biso   1.000  H
  H145     1.0000 0.47101  0.94851  0.14596  Biso   1.000  H
  H146     1.0000 0.51781  0.00122  0.24442  Biso   1.000  H
  H147     1.0000 0.45827  0.00501  0.18768  Biso   1.000  H
  H148     1.0000 0.41120  0.95590  0.48222  Biso   1.000  H
  H149     1.0000 0.48412  0.00280  0.44209  Biso   1.000  H
  H150     1.0000 0.42793  0.01062  0.38040  Biso   1.000  H
  N22      1.0000 0.50831  0.78592  0.06262  Biso   1.000  N
  H151     1.0000 0.59302  0.85282  0.14634  Biso   1.000  H
  H152     1.0000 0.56443  0.88462  0.05441  Biso   1.000  H
  C109     1.0000 0.62199  0.84822  0.16416  Biso   1.000  C
  C110     1.0000 0.57479  0.91431  0.06654  Biso   1.000  C
  H153     1.0000 0.64408  0.78640  0.95035  Biso   1.000  H
  H154     1.0000 0.57350  0.76021  0.00532  Biso   1.000  H
  H155     1.0000 0.63491  0.80419  0.08978  Biso   1.000  H
  H156     1.0000 0.64808  0.94908  0.94867  Biso   1.000  H
  H157     1.0000 0.70431  0.93618  0.99197  Biso   1.000  H
  H158     1.0000 0.64942  0.92649  0.08857  Biso   1.000  H
  C111     1.0000 0.15813  0.65263  0.49622  Biso   1.000  C
  H159     1.0000 0.08930  0.55992  0.51955  Biso   1.000  H
  C112     1.0000 0.33657  0.60769  0.04218  Biso   1.000  C
  H160     1.0000 0.36828  0.54059  0.03948  Biso   1.000  H
  C113     1.0000 0.28989  0.79752  0.34923  Biso   1.000  C
  C114     1.0000 0.45670  0.78721  0.04769  Biso   1.000  C
  H161     1.0000 0.60722  0.84942  0.24881  Biso   1.000  H
  H162     1.0000 0.66440  0.88611  0.15082  Biso   1.000  H
  H163     1.0000 0.62493  0.80932  0.15380  Biso   1.000  H
  H164     1.0000 0.55901  0.92088  0.98665  Biso   1.000  H
  H165     1.0000 0.54782  0.91470  0.13448  Biso   1.000  H
  H166     1.0000 0.61910  0.94861  0.07951  Biso   1.000  H
  C115     1.0000 0.20262  0.69450  0.41008  Biso   1.000  C
  C116     1.0000 0.15518  0.67431  0.61475  Biso   1.000  C
  C117     1.0000 0.38918  0.66438  0.04097  Biso   1.000  C
  C118     1.0000 0.27520  0.61080  0.04097  Biso   1.000  C
  C119     1.0000 0.24405  0.75800  0.44256  Biso   1.000  C
  H167     1.0000 0.29419  0.77829  0.27513  Biso   1.000  H
  C120     1.0000 0.39227  0.72889  0.04218  Biso   1.000  C
  H168     1.0000 0.45941  0.82769  0.03948  Biso   1.000  H
  H169     1.0000 0.20451  0.67958  0.32888  Biso   1.000  H
  C121     1.0000 0.19674  0.73791  0.64741  Biso   1.000  C
  H170     1.0000 0.12481  0.64572  0.67364  Biso   1.000  H
  H171     1.0000 0.42890  0.66491  0.03929  Biso   1.000  H
  H172     1.0000 0.23599  0.57109  0.03929  Biso   1.000  H
  C122     1.0000 0.27111  0.66342  0.04218  Biso   1.000  C
  C123     1.0000 0.24116  0.77973  0.56127  Biso   1.000  C
  C124     1.0000 0.33561  0.72481  0.04097  Biso   1.000  C
  C125     1.0000 0.19430  0.76898  0.76780  Biso   1.000  C
  C126     1.0000 0.21280  0.66951  0.04769  Biso   1.000  C
  H173     1.0000 0.26949  0.82309  0.58357  Biso   1.000  H
  H174     1.0000 0.33510  0.76400  0.03929  Biso   1.000  H
  N23      1.0000 0.15078  0.73229  0.83994  Biso   1.000  N
  H175     1.0000 0.22329  0.81268  0.78675  Biso   1.000  H
  N24      1.0000 0.21412  0.72241  0.06262  Biso   1.000  N
  H176     1.0000 0.17231  0.63172  0.03948  Biso   1.000  H
  C127     1.0000 0.14878  0.76659  0.96034  Biso   1.000  C
  C128     1.0000 0.15178  0.72400  0.06430  Biso   1.000  C
  H177     1.0000 0.10869  0.76841  0.96547  Biso   1.000  H
  H178     1.0000 0.18592  0.81071  0.96500  Biso   1.000  H
  C129     1.0000 0.20371  0.82122  0.00476  Biso   1.000  C
  C130     1.0000 0.07782  0.73642  0.00121  Biso   1.000  C
  H179     1.0000 0.14722  0.74021  0.14634  Biso   1.000  H
  H180     1.0000 0.11540  0.67982  0.05441  Biso   1.000  H
  C131     1.0000 0.15179  0.77378  0.16416  Biso   1.000  C
  C132     1.0000 0.08568  0.66049  0.06654  Biso   1.000  C
  H181     1.0000 0.21361  0.85772  0.95035  Biso   1.000  H
  H182     1.0000 0.23980  0.81330  0.00532  Biso   1.000  H
  H183     1.0000 0.19579  0.83071  0.08978  Biso   1.000  H
  H184     1.0000 0.05090  0.69901  0.94867  Biso   1.000  H
  H185     1.0000 0.06381  0.76812  0.99197  Biso   1.000  H
  H186     1.0000 0.07351  0.72289  0.08857  Biso   1.000  H
  H187     1.0000 0.15062  0.75781  0.24881  Biso   1.000  H
  H188     1.0000 0.11388  0.77829  0.15082  Biso   1.000  H
  H189     1.0000 0.19069  0.81560  0.15380  Biso   1.000  H
  H190     1.0000 0.07909  0.63809  0.98665  Biso   1.000  H
  H191     1.0000 0.08532  0.63311  0.13448  Biso   1.000  H
  H192     1.0000 0.05140  0.67052  0.07951  Biso   1.000  H
  N25      1.0000 0.72718  0.57900  0.28838  Biso   1.000  N
  C133     1.0000 0.75242  0.60490  0.16500  Biso   1.000  C
  C134     1.0000 0.76131  0.57291  0.37303  Biso   1.000  C
  C135     1.0000 0.71219  0.55709  0.06981  Biso   1.000  C
  C136     1.0000 0.73269  0.65608  0.14540  Biso   1.000  C
  C137     1.0000 0.81319  0.61829  0.12823  Biso   1.000  C
  H193     1.0000 0.79729  0.61431  0.15800  Biso   1.000  H
  H194     1.0000 0.75189  0.64529  0.15203  Biso   1.000  H
  H195     1.0000 0.80482  0.58692  0.35306  Biso   1.000  H
  C138     1.0000 0.73879  0.54591  0.49893  Biso   1.000  C
  N26      1.0000 0.71841  0.50241  0.07466  Biso   1.000  N
  H196     1.0000 0.66670  0.54462  0.08334  Biso   1.000  H
  C139     1.0000 0.66349  0.57848  0.08707  Biso   1.000  C
  H197     1.0000 0.72482  0.57670  0.98572  Biso   1.000  H
  H198     1.0000 0.68309  0.61901  0.13346  Biso   1.000  H
  H199     1.0000 0.68792  0.63872  0.17060  Biso   1.000  H
  H200     1.0000 0.73739  0.66822  0.05712  Biso   1.000  H
  H201     1.0000 0.76022  0.69402  0.19599  Biso   1.000  H
  H202     1.0000 0.84518  0.64879  0.18675  Biso   1.000  H
  H203     1.0000 0.82221  0.63690  0.04433  Biso   1.000  H
  H204     1.0000 0.81513  0.57862  0.12767  Biso   1.000  H
  C140     1.0000 0.67462  0.52183  0.52888  Biso   1.000  C
  C141     1.0000 0.77976  0.54121  0.58413  Biso   1.000  C
  C142     1.0000 0.66947  0.45138  0.09323  Biso   1.000  C
  H205     1.0000 0.62663  0.54572  0.13383  Biso   1.000  H
  H206     1.0000 0.64920  0.58471  0.00523  Biso   1.000  H
  C143     1.0000 0.65139  0.49306  0.64414  Biso   1.000  C
  H207     1.0000 0.64660  0.52509  0.47056  Biso   1.000  H
  C144     1.0000 0.75653  0.51243  0.69949  Biso   1.000  C
  H208     1.0000 0.82360  0.55761  0.56370  Biso   1.000  H
  C145     1.0000 0.67372  0.39051  0.09790  Biso   1.000  C
  H209     1.0000 0.62950  0.44970  0.10434  Biso   1.000  H
  C146     1.0000 0.57879  0.46898  0.67420  Biso   1.000  C
  C147     1.0000 0.69232  0.48836  0.72944  Biso   1.000  C
  C148     1.0000 0.80023  0.51152  0.79067  Biso   1.000  C
  C149     1.0000 0.61222  0.33430  0.09286  Biso   1.000  C
  C150     1.0000 0.72207  0.38778  0.09286  Biso   1.000  C
  N27      1.0000 0.56199  0.45358  0.78983  Biso   1.000  N
  H210     1.0000 0.54939  0.46601  0.61185  Biso   1.000  H
  H211     1.0000 0.67638  0.46869  0.80831  Biso   1.000  H
  N28      1.0000 0.85842  0.53752  0.77284  Biso   1.000  N
  H212     1.0000 0.78339  0.48999  0.86757  Biso   1.000  H
  C151     1.0000 0.60952  0.28322  0.09790  Biso   1.000  C
  H213     1.0000 0.57440  0.33718  0.08577  Biso   1.000  H
  C152     1.0000 0.71679  0.32629  0.09790  Biso   1.000  C
  H214     1.0000 0.76280  0.42562  0.08577  Biso   1.000  H
  C153     1.0000 0.49561  0.43262  0.81969  Biso   1.000  C
  C154     1.0000 0.89489  0.53239  0.87056  Biso   1.000  C
  C155     1.0000 0.54859  0.21809  0.09323  Biso   1.000  C
  C156     1.0000 0.66572  0.27790  0.09286  Biso   1.000  C
  C157     1.0000 0.78191  0.33051  0.09323  Biso   1.000  C
  C158     1.0000 0.46761  0.36250  0.87056  Biso   1.000  C
  C159     1.0000 0.44618  0.42399  0.71059  Biso   1.000  C
  C160     1.0000 0.50601  0.47502  0.94410  Biso   1.000  C
  H215     1.0000 0.47200  0.43310  0.74438  Biso   1.000  H
  H216     1.0000 0.49277  0.46068  0.88390  Biso   1.000  H
  C161     1.0000 0.93703  0.50442  0.81969  Biso   1.000  C
  H217     1.0000 0.86600  0.50409  0.93691  Biso   1.000  H
  H218     1.0000 0.92309  0.57531  0.90723  Biso   1.000  H
  C162     1.0000 0.88771  0.50390  0.98105  Biso   1.000  C
  N29      1.0000 0.49763  0.21602  0.07466  Biso   1.000  N
  H219     1.0000 0.55030  0.17981  0.10434  Biso   1.000  H
  H220     1.0000 0.66283  0.23722  0.08577  Biso   1.000  H
  N30      1.0000 0.78399  0.28159  0.07466  Biso   1.000  N
  H221     1.0000 0.82019  0.37051  0.10434  Biso   1.000  H
  N31      1.0000 0.46252  0.32092  0.77284  Biso   1.000  N
  H222     1.0000 0.49587  0.36188  0.93691  Biso   1.000  H
  H223     1.0000 0.42469  0.34778  0.90723  Biso   1.000  H
  C163     1.0000 0.49611  0.38380  0.98105  Biso   1.000  C
  H224     1.0000 0.45919  0.46572  0.67261  Biso   1.000  H
  H225     1.0000 0.40301  0.40610  0.74568  Biso   1.000  H
  H226     1.0000 0.44619  0.39468  0.64694  Biso   1.000  H
  H227     1.0000 0.46441  0.46111  0.98385  Biso   1.000  H
  H228     1.0000 0.52578  0.52039  0.92123  Biso   1.000  H
  H229     1.0000 0.53400  0.46912  0.00243  Biso   1.000  H
  N32      1.0000 0.89160  0.43799  0.78983  Biso   1.000  N
  C164     1.0000 0.97778  0.55378  0.71059  Biso   1.000  C
  C165     1.0000 0.96900  0.49402  0.94410  Biso   1.000  C
  H230     1.0000 0.96112  0.52802  0.74438  Biso   1.000  H
  H231     1.0000 0.96791  0.50720  0.88390  Biso   1.000  H
  H232     1.0000 0.86793  0.45752  0.96911  Biso   1.000  H
  H233     1.0000 0.86020  0.51301  0.03462  Biso   1.000  H
  H234     1.0000 0.92981  0.52039  0.02081  Biso   1.000  H
  C166     1.0000 0.44291  0.15511  0.06981  Biso   1.000  C
  C167     1.0000 0.84493  0.28782  0.06981  Biso   1.000  C
  C168     1.0000 0.48848  0.28869  0.79067  Biso   1.000  C
  H235     1.0000 0.54249  0.41042  0.96911  Biso   1.000  H
  H236     1.0000 0.48700  0.34720  0.03462  Biso   1.000  H
  H237     1.0000 0.47960  0.40941  0.02081  Biso   1.000  H
  C169     1.0000 0.89019  0.42121  0.67420  Biso   1.000  C
  H238     1.0000 0.94850  0.55378  0.64694  Biso   1.000  H
  H239     1.0000 0.00651  0.54078  0.67261  Biso   1.000  H
  H240     1.0000 0.00309  0.59699  0.74568  Biso   1.000  H
  H241     1.0000 0.99669  0.53560  0.98385  Biso   1.000  H
  H242     1.0000 0.99461  0.47421  0.92123  Biso   1.000  H
  H243     1.0000 0.93510  0.46601  0.00243  Biso   1.000  H
  C170     1.0000 0.39511  0.14749  0.16500  Biso   1.000  C
  H244     1.0000 0.45541  0.12211  0.08334  Biso   1.000  H
  C171     1.0000 0.42148  0.08499  0.08707  Biso   1.000  C
  H245     1.0000 0.42330  0.14811  0.98572  Biso   1.000  H
  H246     1.0000 0.87788  0.33329  0.08334  Biso   1.000  H
  C172     1.0000 0.85247  0.24758  0.16500  Biso   1.000  C
  C173     1.0000 0.91500  0.33651  0.08707  Biso   1.000  C
  H247     1.0000 0.85191  0.27521  0.98572  Biso   1.000  H
  C174     1.0000 0.48759  0.24413  0.69949  Biso   1.000  C
  H248     1.0000 0.50998  0.29339  0.86757  Biso   1.000  H
  C175     1.0000 0.84169  0.34864  0.64414  Biso   1.000  C
  H249     1.0000 0.91660  0.45061  0.61185  Biso   1.000  H
  C176     1.0000 0.38170  0.19492  0.12823  Biso   1.000  C
  N33      1.0000 0.42095  0.14816  0.28838  Biso   1.000  N
  C177     1.0000 0.34388  0.07660  0.14540  Biso   1.000  C
  H250     1.0000 0.38569  0.18298  0.15800  Biso   1.000  H
  H251     1.0000 0.35470  0.10662  0.15203  Biso   1.000  H
  H252     1.0000 0.38099  0.06408  0.13346  Biso   1.000  H
  H253     1.0000 0.45429  0.08091  0.13383  Biso   1.000  H
  H254     1.0000 0.41531  0.06451  0.00523  Biso   1.000  H
  N34      1.0000 0.85184  0.27281  0.28838  Biso   1.000  N
  C178     1.0000 0.92339  0.26730  0.14540  Biso   1.000  C
  C179     1.0000 0.80510  0.18681  0.12823  Biso   1.000  C
  H255     1.0000 0.81698  0.20269  0.15800  Biso   1.000  H
  H256     1.0000 0.89340  0.24811  0.15203  Biso   1.000  H
  H257     1.0000 0.91911  0.37339  0.13383  Biso   1.000  H
  H258     1.0000 0.93548  0.35080  0.00523  Biso   1.000  H
  H259     1.0000 0.93589  0.31689  0.13346  Biso   1.000  H
  C180     1.0000 0.45881  0.23857  0.58413  Biso   1.000  C
  C181     1.0000 0.51165  0.20394  0.72944  Biso   1.000  C
  C182     1.0000 0.79604  0.30768  0.72944  Biso   1.000  C
  C183     1.0000 0.84722  0.32538  0.52888  Biso   1.000  C
  H260     1.0000 0.35120  0.19641  0.18675  Biso   1.000  H
  H261     1.0000 0.36309  0.18528  0.04433  Biso   1.000  H
  H262     1.0000 0.42139  0.23650  0.12767  Biso   1.000  H
  C184     1.0000 0.42712  0.18840  0.37303  Biso   1.000  C
  H263     1.0000 0.36130  0.04921  0.17060  Biso   1.000  H
  H264     1.0000 0.33180  0.06921  0.05712  Biso   1.000  H
  H265     1.0000 0.30599  0.06619  0.19599  Biso   1.000  H
  C185     1.0000 0.81161  0.23871  0.37303  Biso   1.000  C
  H266     1.0000 0.95081  0.31209  0.17060  Biso   1.000  H
  H267     1.0000 0.93080  0.26260  0.05712  Biso   1.000  H
  H268     1.0000 0.93382  0.23981  0.19599  Biso   1.000  H
  H269     1.0000 0.80360  0.15482  0.18675  Biso   1.000  H
  H270     1.0000 0.81471  0.17780  0.04433  Biso   1.000  H
  H271     1.0000 0.76352  0.18490  0.12767  Biso   1.000  H
  C186     1.0000 0.45409  0.19291  0.49893  Biso   1.000  C
  H272     1.0000 0.44241  0.26600  0.56370  Biso   1.000  H
  C187     1.0000 0.50695  0.15832  0.64414  Biso   1.000  C
  H273     1.0000 0.53129  0.20768  0.80831  Biso   1.000  H
  C188     1.0000 0.75587  0.24346  0.69949  Biso   1.000  C
  H274     1.0000 0.79229  0.32360  0.80831  Biso   1.000  H
  C189     1.0000 0.80711  0.26120  0.49893  Biso   1.000  C
  H275     1.0000 0.87850  0.35339  0.47056  Biso   1.000  H
  H276     1.0000 0.41308  0.21789  0.35306  Biso   1.000  H
  H277     1.0000 0.78209  0.19521  0.35306  Biso   1.000  H
  C190     1.0000 0.47813  0.15276  0.52888  Biso   1.000  C
  C191     1.0000 0.53099  0.10979  0.67420  Biso   1.000  C
  C192     1.0000 0.71129  0.19981  0.79067  Biso   1.000  C
  C193     1.0000 0.76142  0.22024  0.58413  Biso   1.000  C
  H278     1.0000 0.47491  0.12149  0.47056  Biso   1.000  H
  N35      1.0000 0.54641  0.10840  0.78983  Biso   1.000  N
  H279     1.0000 0.53400  0.08341  0.61185  Biso   1.000  H
  N36      1.0000 0.67910  0.14159  0.77284  Biso   1.000  N
  H280     1.0000 0.70660  0.21660  0.86757  Biso   1.000  H
  H281     1.0000 0.73402  0.17641  0.56370  Biso   1.000  H
  C194     1.0000 0.56742  0.06302  0.81969  Biso   1.000  C
  C195     1.0000 0.63751  0.10509  0.87056  Biso   1.000  C
  C196     1.0000 0.57600  0.02221  0.71059  Biso   1.000  C
  C197     1.0000 0.52498  0.03098  0.94410  Biso   1.000  C
  H282     1.0000 0.56690  0.03890  0.74438  Biso   1.000  H
  H283     1.0000 0.53928  0.03209  0.88390  Biso   1.000  H
  H284     1.0000 0.63809  0.13401  0.93691  Biso   1.000  H
  H285     1.0000 0.65219  0.07688  0.90723  Biso   1.000  H
  C198     1.0000 0.61618  0.11228  0.98105  Biso   1.000  C
  H286     1.0000 0.60532  0.05151  0.64694  Biso   1.000  H
  H287     1.0000 0.53427  0.99348  0.67261  Biso   1.000  H
  H288     1.0000 0.59387  0.99688  0.74568  Biso   1.000  H
  H289     1.0000 0.53889  0.00331  0.98385  Biso   1.000  H
  H290     1.0000 0.47959  0.00542  0.92123  Biso   1.000  H
  H291     1.0000 0.53089  0.06489  0.00243  Biso   1.000  H
  H292     1.0000 0.58958  0.13209  0.96911  Biso   1.000  H
  H293     1.0000 0.65279  0.13981  0.03462  Biso   1.000  H
  H294     1.0000 0.59062  0.07022  0.02081  Biso   1.000  H
  Ne1      1.0000 0.66667  0.33333  0.48721  Biso   1.000  Ne
  He1      1.0000 0.66666  0.33333  0.74575  Biso   1.000  He
  He2      1.0000 0.57627  0.36629  0.39831  Biso   1.000  He
  He3      1.0000 0.78922  0.42315  0.39893  Biso   1.000  He
  He4      1.0000 0.63297  0.20726  0.39632  Biso   1.000  He
  Ar1      1.0000 0.66666  0.33333  0.48587  Biso   1.000  Ar
  Ne2      1.0000 0.33333  0.66667  0.69731  Biso   1.000  Ne
  He5      1.0000 0.42115  0.63392  0.73902  Biso   1.000  He
  He6      1.0000 0.20899  0.57610  0.74178  Biso   1.000  He
  He7      1.0000 0.36671  0.78960  0.74075  Biso   1.000  He
  He8      1.0000 0.33334  0.66667  0.39352  Biso   1.000  He
  Ar2      1.0000 0.33309  0.66646  0.65255  Biso   1.000  Ar
  Ne3      1.0000 0.00001  0.00001  0.02340  Biso   1.000  Ne
  He9      1.0000 0.00002  0.00001  0.32074  Biso   1.000  He
  He10     1.0000 0.88213  0.90140  0.97397  Biso   1.000  He
  He11     1.0000 0.01837  0.11130  0.97849  Biso   1.000  He
  He12     1.0000 0.09579  0.98115  0.97620  Biso   1.000  He
  Ar3      1.0000 1.00000  0.00003  0.05367  Biso   1.000  Ar
