data_image0
_cell_length_a       14.117
_cell_length_b       15.736
_cell_length_c       20.905
_cell_angle_alpha    101.25
_cell_angle_beta     98.51
_cell_angle_gamma    96.04

_symmetry_space_group_name_H-M    "P 1"
_symmetry_int_tables_number       1

loop_
  _symmetry_equiv_pos_as_xyz
  'x, y, z'

loop_
  _atom_site_label
  _atom_site_occupancy
  _atom_site_fract_x
  _atom_site_fract_y
  _atom_site_fract_z
  _atom_site_thermal_displace_type
  _atom_site_B_iso_or_equiv
  _atom_site_type_symbol
  C1       1.0000 0.70306  0.52498  0.72468  Biso   1.000  C
  C2       1.0000 0.66293  0.59219  0.75806  Biso   1.000  C
  C3       1.0000 0.77936  0.54412  0.69478  Biso   1.000  C
  H1       1.0000 0.67846  0.46718  0.72256  Biso   1.000  H
  O1       1.0000 0.57838  0.57479  0.78396  Biso   1.000  O
  C4       1.0000 0.69777  0.67827  0.76167  Biso   1.000  C
  O2       1.0000 0.81494  0.47782  0.65536  Biso   1.000  O
  C5       1.0000 0.81541  0.62871  0.69537  Biso   1.000  C
  C6       1.0000 0.58074  0.53051  0.83298  Biso   1.000  C
  C7       1.0000 0.77501  0.69592  0.73008  Biso   1.000  C
  H2       1.0000 0.67021  0.72339  0.78470  Biso   1.000  H
  C8       1.0000 0.87867  0.43385  0.68492  Biso   1.000  C
  H3       1.0000 0.86585  0.64074  0.67309  Biso   1.000  H
  N1       1.0000 0.49308  0.50317  0.84293  Biso   1.000  N
  N2       1.0000 0.66522  0.52088  0.86353  Biso   1.000  N
  C9       1.0000 0.80918  0.78794  0.73008  Biso   1.000  C
  N3       1.0000 0.90603  0.37104  0.64362  Biso   1.000  N
  N4       1.0000 0.90695  0.45811  0.74989  Biso   1.000  N
  C10      1.0000 0.49540  0.45591  0.89047  Biso   1.000  C
  C11      1.0000 0.65600  0.47327  0.90869  Biso   1.000  C
  O3       1.0000 0.88476  0.79863  0.69879  Biso   1.000  O
  O4       1.0000 0.77146  0.84908  0.75217  Biso   1.000  O
  O5       1.0000 0.89855  0.79562  0.71840  Biso   1.000  O
  C12      1.0000 0.96911  0.32648  0.67314  Biso   1.000  C
  C13      1.0000 0.97193  0.41149  0.77143  Biso   1.000  C
  N5       1.0000 0.41139  0.42535  0.90488  Biso   1.000  N
  N6       1.0000 0.57614  0.43758  0.92414  Biso   1.000  N
  O6       1.0000 0.73709  0.45876  0.94548  Biso   1.000  O
  C14      1.0000 0.92167  0.88691  0.69458  Biso   1.000  C
  C15      1.0000 0.93522  0.88481  0.71290  Biso   1.000  C
  N7       1.0000 0.99472  0.25661  0.63536  Biso   1.000  N
  N8       1.0000 0.00738  0.34623  0.73796  Biso   1.000  N
  O7       1.0000 0.01082  0.43287  0.83659  Biso   1.000  O
  C16      1.0000 0.31824  0.44538  0.87606  Biso   1.000  C
  C17      1.0000 0.40898  0.37410  0.95365  Biso   1.000  C
  C18      1.0000 0.82772  0.49489  0.93404  Biso   1.000  C
  H4       1.0000 0.91426  0.92950  0.73330  Biso   1.000  H
  H5       1.0000 0.89066  0.90391  0.68037  Biso   1.000  H
  H6       1.0000 0.88873  0.90253  0.65516  Biso   1.000  H
  H7       1.0000 0.94027  0.92502  0.75519  Biso   1.000  H
  C19      1.0000 0.03002  0.88170  0.69106  Biso   1.000  C
  C20      1.0000 0.02943  0.88502  0.69309  Biso   1.000  C
  C21      1.0000 0.06575  0.20702  0.66086  Biso   1.000  C
  C22      1.0000 0.95262  0.22940  0.56450  Biso   1.000  C
  C23      1.0000 0.96173  0.48160  0.88032  Biso   1.000  C
  C24      1.0000 0.25044  0.36657  0.83446  Biso   1.000  C
  H8       1.0000 0.32921  0.48741  0.84868  Biso   1.000  H
  H9       1.0000 0.28714  0.47278  0.91146  Biso   1.000  H
  H10      1.0000 0.34309  0.35766  0.95786  Biso   1.000  H
  H11      1.0000 0.44421  0.40745  0.99540  Biso   1.000  H
  H12      1.0000 0.43814  0.32240  0.94078  Biso   1.000  H
  C25      1.0000 0.86945  0.44891  0.88626  Biso   1.000  C
  C26      1.0000 0.87389  0.57041  0.97598  Biso   1.000  C
  C27      1.0000 0.10483  0.87334  0.73989  Biso   1.000  C
  C28      1.0000 0.04798  0.88560  0.62808  Biso   1.000  C
  C29      1.0000 0.09918  0.93523  0.74429  Biso   1.000  C
  C30      1.0000 0.05694  0.83935  0.63649  Biso   1.000  C
  C31      1.0000 0.02325  0.11879  0.66997  Biso   1.000  C
  H13      1.0000 0.10075  0.24069  0.70329  Biso   1.000  H
  H14      1.0000 0.11173  0.19841  0.63090  Biso   1.000  H
  H15      1.0000 0.97916  0.17870  0.54499  Biso   1.000  H
  H16      1.0000 0.96764  0.27615  0.54271  Biso   1.000  H
  H17      1.0000 0.88378  0.21552  0.55969  Biso   1.000  H
  C32      1.0000 0.01080  0.55709  0.92191  Biso   1.000  C
  N9       1.0000 0.27785  0.33270  0.77143  Biso   1.000  N
  H18      1.0000 0.24804  0.32071  0.85937  Biso   1.000  H
  H19      1.0000 0.18585  0.38262  0.82659  Biso   1.000  H
  H20      1.0000 0.83693  0.39730  0.85858  Biso   1.000  H
  C33      1.0000 0.96745  0.60099  0.96955  Biso   1.000  C
  H21      1.0000 0.84371  0.60075  0.00822  Biso   1.000  H
  H22      1.0000 0.09287  0.87071  0.78208  Biso   1.000  H
  C34      1.0000 0.19741  0.86881  0.72548  Biso   1.000  C
  C35      1.0000 0.19646  0.93984  0.73870  Biso   1.000  C
  H23      1.0000 0.99793  0.89120  0.59549  Biso   1.000  H
  C36      1.0000 0.14055  0.88101  0.61367  Biso   1.000  C
  C37      1.0000 0.15414  0.84390  0.63090  Biso   1.000  C
  H24      1.0000 0.01022  0.80570  0.60228  Biso   1.000  H
  H25      1.0000 0.08082  0.96582  0.78217  Biso   1.000  H
  N10      1.0000 0.97639  0.12393  0.72810  Biso   1.000  N
  H26      1.0000 0.97625  0.09061  0.63090  Biso   1.000  H
  H27      1.0000 0.07433  0.08252  0.67388  Biso   1.000  H
  H28      1.0000 0.07311  0.57787  0.91746  Biso   1.000  H
  C38      1.0000 0.31472  0.25738  0.75796  Biso   1.000  C
  C39      1.0000 0.26473  0.38582  0.72226  Biso   1.000  C
  C40      1.0000 0.01567  0.68333  0.01689  Biso   1.000  C
  H29      1.0000 0.24746  0.86321  0.75806  Biso   1.000  H
  C41      1.0000 0.21538  0.87272  0.66249  Biso   1.000  C
  C42      1.0000 0.22397  0.89424  0.68210  Biso   1.000  C
  H30      1.0000 0.24312  0.97351  0.77296  Biso   1.000  H
  H31      1.0000 0.15258  0.88364  0.57148  Biso   1.000  H
  H32      1.0000 0.17257  0.81342  0.59297  Biso   1.000  H
  C43      1.0000 0.88202  0.09477  0.72330  Biso   1.000  C
  C44      1.0000 0.03961  0.15322  0.79277  Biso   1.000  C
  N11      1.0000 0.32782  0.22918  0.69512  Biso   1.000  N
  N12      1.0000 0.33675  0.21634  0.80738  Biso   1.000  N
  H33      1.0000 0.23780  0.43700  0.74008  Biso   1.000  H
  H34      1.0000 0.22162  0.35263  0.68359  Biso   1.000  H
  H35      1.0000 0.32611  0.40299  0.71067  Biso   1.000  H
  O8       1.0000 0.98089  0.71993  0.06130  Biso   1.000  O
  O9       1.0000 0.10170  0.71079  0.00461  Biso   1.000  O
  H36      1.0000 0.27739  0.86974  0.65288  Biso   1.000  H
  H37      1.0000 0.28897  0.89734  0.67839  Biso   1.000  H
  N13      1.0000 0.82639  0.06893  0.66269  Biso   1.000  N
  N14      1.0000 0.85003  0.09273  0.78044  Biso   1.000  N
  H38      1.0000 0.10395  0.17218  0.78658  Biso   1.000  H
  H39      1.0000 0.04094  0.10579  0.81550  Biso   1.000  H
  H40      1.0000 0.01552  0.20098  0.81857  Biso   1.000  H
  C45      1.0000 0.36822  0.15731  0.68616  Biso   1.000  C
  C46      1.0000 0.37780  0.14602  0.78990  Biso   1.000  C
  C47      1.0000 0.15287  0.78920  0.05001  Biso   1.000  C
  C48      1.0000 0.73603  0.04232  0.66507  Biso   1.000  C
  C49      1.0000 0.75831  0.06137  0.77237  Biso   1.000  C
  O10      1.0000 0.37969  0.12865  0.62327  Biso   1.000  O
  N15      1.0000 0.39684  0.11126  0.73053  Biso   1.000  N
  O11      1.0000 0.40074  0.10410  0.83912  Biso   1.000  O
  H41      1.0000 0.16537  0.77891  0.09448  Biso   1.000  H
  H42      1.0000 0.11418  0.83665  0.05011  Biso   1.000  H
  C50      1.0000 0.24558  0.81250  0.02778  Biso   1.000  C
  O12      1.0000 0.67972  0.01740  0.60411  Biso   1.000  O
  N16      1.0000 0.69487  0.03509  0.71676  Biso   1.000  N
  O13      1.0000 0.72811  0.05665  0.82976  Biso   1.000  O
  C51      1.0000 0.43094  0.05819  0.60713  Biso   1.000  C
  C52      1.0000 0.46953  0.04766  0.83253  Biso   1.000  C
  C53      1.0000 0.31647  0.75766  0.02956  Biso   1.000  C
  C54      1.0000 0.26408  0.89244  0.00995  Biso   1.000  C
  C55      1.0000 0.57883  0.00432  0.59807  Biso   1.000  C
  C56      1.0000 0.63073  0.02411  0.82788  Biso   1.000  C
  C57      1.0000 0.52945  0.07072  0.62362  Biso   1.000  C
  C58      1.0000 0.38027  0.98279  0.56786  Biso   1.000  C
  C59      1.0000 0.56282  0.07901  0.82768  Biso   1.000  C
  C60      1.0000 0.44603  0.96269  0.83734  Biso   1.000  C
  H43      1.0000 0.30416  0.70410  0.04150  Biso   1.000  H
  C61      1.0000 0.40591  0.78269  0.01347  Biso   1.000  C
  C62      1.0000 0.35330  0.91735  0.99386  Biso   1.000  C
  H44      1.0000 0.21657  0.92912  0.00881  Biso   1.000  H
  C63      1.0000 0.53114  0.92738  0.55836  Biso   1.000  C
  C64      1.0000 0.61037  0.93910  0.83347  Biso   1.000  C
  H45      1.0000 0.56223  0.12230  0.65120  Biso   1.000  H
  C65      1.0000 0.43087  0.91663  0.54360  Biso   1.000  C
  H46      1.0000 0.31319  0.97611  0.55756  Biso   1.000  H
  H47      1.0000 0.57874  0.13658  0.82426  Biso   1.000  H
  C66      1.0000 0.51615  0.90830  0.83798  Biso   1.000  C
  H48      1.0000 0.38293  0.94189  0.84016  Biso   1.000  H
  C67      1.0000 0.42419  0.86258  0.99564  Biso   1.000  C
  H49      1.0000 0.45331  0.74604  0.01471  Biso   1.000  H
  H50      1.0000 0.36575  0.97086  0.98198  Biso   1.000  H
  H51      1.0000 0.56536  0.88333  0.54157  Biso   1.000  H
  H52      1.0000 0.65836  0.90290  0.83427  Biso   1.000  H
  C68      1.0000 0.37379  0.83493  0.49948  Biso   1.000  C
  C69      1.0000 0.49508  0.81670  0.84288  Biso   1.000  C
  H53      1.0000 0.48400  0.87927  0.98485  Biso   1.000  H
  O14      1.0000 0.28885  0.82022  0.49017  Biso   1.000  O
  O15      1.0000 0.43070  0.78165  0.47220  Biso   1.000  O
  O16      1.0000 0.55494  0.77240  0.85952  Biso   1.000  O
  O17      1.0000 0.40177  0.78630  0.82644  Biso   1.000  O
  C70      1.0000 0.38379  0.69799  0.42926  Biso   1.000  C
  C71      1.0000 0.37554  0.69615  0.82966  Biso   1.000  C
  H54      1.0000 0.32037  0.68320  0.44001  Biso   1.000  H
  H55      1.0000 0.42199  0.65213  0.43679  Biso   1.000  H
  C72      1.0000 0.37367  0.70441  0.35801  Biso   1.000  C
  H56      1.0000 0.39333  0.68800  0.87447  Biso   1.000  H
  H57      1.0000 0.40763  0.65767  0.80050  Biso   1.000  H
  C73      1.0000 0.26816  0.67819  0.80797  Biso   1.000  C
  C74      1.0000 0.27454  0.66868  0.79787  Biso   1.000  C
  C75      1.0000 0.29227  0.73083  0.32671  Biso   1.000  C
  C76      1.0000 0.44569  0.68336  0.32201  Biso   1.000  C
  C77      1.0000 0.21278  0.72327  0.84917  Biso   1.000  C
  C78      1.0000 0.22318  0.61646  0.75177  Biso   1.000  C
  C79      1.0000 0.19095  0.67467  0.82535  Biso   1.000  C
  C80      1.0000 0.26834  0.62915  0.73157  Biso   1.000  C
  H58      1.0000 0.24417  0.74684  0.35078  Biso   1.000  H
  C81      1.0000 0.28063  0.73396  0.26190  Biso   1.000  C
  C82      1.0000 0.43382  0.68693  0.25491  Biso   1.000  C
  H59      1.0000 0.50189  0.66674  0.34231  Biso   1.000  H
  H60      1.0000 0.24284  0.76445  0.88675  Biso   1.000  H
  C83      1.0000 0.11246  0.70666  0.83407  Biso   1.000  C
  H61      1.0000 0.19511  0.70108  0.86967  Biso   1.000  H
  C84      1.0000 0.12286  0.59986  0.73667  Biso   1.000  C
  H62      1.0000 0.26028  0.58629  0.72419  Biso   1.000  H
  C85      1.0000 0.17856  0.59568  0.69280  Biso   1.000  C
  C86      1.0000 0.10113  0.64105  0.78648  Biso   1.000  C
  H63      1.0000 0.32429  0.62519  0.71330  Biso   1.000  H
  H64      1.0000 0.22467  0.75112  0.24169  Biso   1.000  H
  C87      1.0000 0.35039  0.71204  0.22669  Biso   1.000  C
  H65      1.0000 0.48160  0.67262  0.23011  Biso   1.000  H
  H66      1.0000 0.07535  0.73688  0.86160  Biso   1.000  H
  C88      1.0000 0.06745  0.64497  0.77777  Biso   1.000  C
  H67      1.0000 0.04521  0.64510  0.80485  Biso   1.000  H
  H68      1.0000 0.09277  0.55871  0.69899  Biso   1.000  H
  C89      1.0000 0.09494  0.60158  0.72018  Biso   1.000  C
  H69      1.0000 0.17436  0.56918  0.64838  Biso   1.000  H
  H70      1.0000 0.34160  0.71396  0.18198  Biso   1.000  H
  H71      1.0000 0.00034  0.63400  0.76767  Biso   1.000  H
  H72      1.0000 0.03498  0.57921  0.69418  Biso   1.000  H
  C90      1.0000 0.29688  0.47488  0.27532  Biso   1.000  C
  C91      1.0000 0.22057  0.45579  0.30517  Biso   1.000  C
  C92      1.0000 0.33699  0.40765  0.24189  Biso   1.000  C
  H73      1.0000 0.32146  0.53266  0.27740  Biso   1.000  H
  C93      1.0000 0.18444  0.37114  0.30458  Biso   1.000  C
  O18      1.0000 0.18499  0.52204  0.34464  Biso   1.000  O
  C94      1.0000 0.30216  0.32157  0.23828  Biso   1.000  C
  O19      1.0000 0.42156  0.42507  0.21604  Biso   1.000  O
  C95      1.0000 0.22484  0.30393  0.26987  Biso   1.000  C
  H74      1.0000 0.13410  0.35918  0.32691  Biso   1.000  H
  C96      1.0000 0.12127  0.56608  0.31508  Biso   1.000  C
  H75      1.0000 0.32966  0.27647  0.21530  Biso   1.000  H
  C97      1.0000 0.41919  0.46940  0.16697  Biso   1.000  C
  C98      1.0000 0.19075  0.21197  0.26987  Biso   1.000  C
  N17      1.0000 0.09298  0.54173  0.25006  Biso   1.000  N
  N18      1.0000 0.09391  0.62882  0.35638  Biso   1.000  N
  N19      1.0000 0.33472  0.47898  0.13647  Biso   1.000  N
  N20      1.0000 0.50686  0.49669  0.15707  Biso   1.000  N
  O20      1.0000 0.11519  0.20129  0.30121  Biso   1.000  O
  O21      1.0000 0.22846  0.15077  0.24778  Biso   1.000  O
  O22      1.0000 0.10139  0.20424  0.28160  Biso   1.000  O
  C99      1.0000 0.02800  0.58837  0.22857  Biso   1.000  C
  C100     1.0000 0.03081  0.67337  0.32681  Biso   1.000  C
  C101     1.0000 0.34394  0.52659  0.09131  Biso   1.000  C
  C102     1.0000 0.50453  0.54400  0.10948  Biso   1.000  C
  C103     1.0000 0.07825  0.11294  0.30537  Biso   1.000  C
  C104     1.0000 0.06465  0.11505  0.28710  Biso   1.000  C
  O23      1.0000 0.98911  0.56699  0.16341  Biso   1.000  O
  N21      1.0000 0.99247  0.65362  0.26200  Biso   1.000  N
  N22      1.0000 0.00515  0.74325  0.36464  Biso   1.000  N
  O24      1.0000 0.26285  0.54116  0.05452  Biso   1.000  O
  N23      1.0000 0.42378  0.56227  0.07581  Biso   1.000  N
  N24      1.0000 0.58854  0.57449  0.09507  Biso   1.000  N
  H76      1.0000 0.08568  0.07036  0.26670  Biso   1.000  H
  H77      1.0000 0.10927  0.09594  0.31958  Biso   1.000  H
  H78      1.0000 0.11120  0.09738  0.34479  Biso   1.000  H
  H79      1.0000 0.05967  0.07490  0.24481  Biso   1.000  H
  C105     1.0000 0.96984  0.11815  0.30889  Biso   1.000  C
  C106     1.0000 0.97050  0.11484  0.30691  Biso   1.000  C
  C107     1.0000 0.03821  0.51826  0.11968  Biso   1.000  C
  C108     1.0000 0.04725  0.77046  0.43550  Biso   1.000  C
  C109     1.0000 0.93418  0.79289  0.33909  Biso   1.000  C
  C110     1.0000 0.17222  0.50497  0.06596  Biso   1.000  C
  C111     1.0000 0.59088  0.62581  0.04630  Biso   1.000  C
  C112     1.0000 0.68168  0.55447  0.12389  Biso   1.000  C
  C113     1.0000 0.89511  0.12659  0.26011  Biso   1.000  C
  C114     1.0000 0.95194  0.11425  0.37187  Biso   1.000  C
  C115     1.0000 0.90077  0.06469  0.25571  Biso   1.000  C
  C116     1.0000 0.94301  0.16057  0.36351  Biso   1.000  C
  C117     1.0000 0.13050  0.55102  0.11374  Biso   1.000  C
  C118     1.0000 0.98906  0.44276  0.07804  Biso   1.000  C
  H80      1.0000 0.02076  0.82114  0.45496  Biso   1.000  H
  H81      1.0000 0.03231  0.72378  0.45729  Biso   1.000  H
  H82      1.0000 0.11616  0.78434  0.44031  Biso   1.000  H
  H83      1.0000 0.89919  0.75917  0.29671  Biso   1.000  H
  H84      1.0000 0.88821  0.80145  0.36910  Biso   1.000  H
  C119     1.0000 0.97667  0.88105  0.32998  Biso   1.000  C
  C120     1.0000 0.12597  0.42950  0.02397  Biso   1.000  C
  H85      1.0000 0.65683  0.64219  0.04209  Biso   1.000  H
  H86      1.0000 0.55572  0.59241  0.00461  Biso   1.000  H
  H87      1.0000 0.56181  0.67752  0.05922  Biso   1.000  H
  H88      1.0000 0.67072  0.51250  0.15128  Biso   1.000  H
  H89      1.0000 0.71279  0.52707  0.08849  Biso   1.000  H
  C121     1.0000 0.74949  0.63327  0.16549  Biso   1.000  C
  H90      1.0000 0.90705  0.12914  0.21788  Biso   1.000  H
  C122     1.0000 0.80244  0.13103  0.27447  Biso   1.000  C
  C123     1.0000 0.80349  0.06008  0.26130  Biso   1.000  C
  H91      1.0000 0.00193  0.10866  0.40451  Biso   1.000  H
  C124     1.0000 0.85937  0.11884  0.38628  Biso   1.000  C
  C125     1.0000 0.84579  0.15596  0.36910  Biso   1.000  C
  H92      1.0000 0.98964  0.19414  0.39767  Biso   1.000  H
  H93      1.0000 0.91904  0.03409  0.21778  Biso   1.000  H
  H94      1.0000 0.16300  0.60255  0.14137  Biso   1.000  H
  C126     1.0000 0.03248  0.39893  0.03040  Biso   1.000  C
  H95      1.0000 0.92682  0.42197  0.08250  Biso   1.000  H
  N25      1.0000 0.02355  0.87598  0.27185  Biso   1.000  N
  H96      1.0000 0.02369  0.90925  0.36910  Biso   1.000  H
  H97      1.0000 0.92560  0.91733  0.32607  Biso   1.000  H
  H98      1.0000 0.15623  0.39918  0.99178  Biso   1.000  H
  N26      1.0000 0.72208  0.66715  0.22852  Biso   1.000  N
  H99      1.0000 0.75189  0.67920  0.14058  Biso   1.000  H
  H100     1.0000 0.81409  0.61730  0.17341  Biso   1.000  H
  H101     1.0000 0.75247  0.13664  0.24189  Biso   1.000  H
  C127     1.0000 0.78456  0.12715  0.33751  Biso   1.000  C
  C128     1.0000 0.77597  0.10568  0.31790  Biso   1.000  C
  H102     1.0000 0.75680  0.02634  0.22699  Biso   1.000  H
  H103     1.0000 0.84735  0.11627  0.42847  Biso   1.000  H
  H104     1.0000 0.82735  0.18643  0.40698  Biso   1.000  H
  C129     1.0000 0.98425  0.31651  0.98307  Biso   1.000  C
  C130     1.0000 0.11790  0.90507  0.27665  Biso   1.000  C
  C131     1.0000 0.96032  0.84669  0.20718  Biso   1.000  C
  C132     1.0000 0.73520  0.61409  0.27769  Biso   1.000  C
  C133     1.0000 0.68520  0.74247  0.24199  Biso   1.000  C
  H105     1.0000 0.72255  0.13017  0.34707  Biso   1.000  H
  H106     1.0000 0.71097  0.10258  0.32161  Biso   1.000  H
  O25      1.0000 0.89823  0.28912  0.99535  Biso   1.000  O
  O26      1.0000 0.01904  0.27998  0.93865  Biso   1.000  O
  N27      1.0000 0.14989  0.90711  0.21951  Biso   1.000  N
  N28      1.0000 0.17353  0.93091  0.33726  Biso   1.000  N
  H107     1.0000 0.89598  0.82767  0.21337  Biso   1.000  H
  H108     1.0000 0.95900  0.89407  0.18450  Biso   1.000  H
  H109     1.0000 0.98441  0.79887  0.18138  Biso   1.000  H
  H110     1.0000 0.76206  0.56286  0.25992  Biso   1.000  H
  H111     1.0000 0.77833  0.64729  0.31642  Biso   1.000  H
  H112     1.0000 0.67381  0.59686  0.28928  Biso   1.000  H
  N29      1.0000 0.67212  0.77075  0.30488  Biso   1.000  N
  N30      1.0000 0.66320  0.78358  0.19262  Biso   1.000  N
  C134     1.0000 0.84707  0.21066  0.94999  Biso   1.000  C
  C135     1.0000 0.24162  0.93847  0.22758  Biso   1.000  C
  C136     1.0000 0.26391  0.95754  0.33493  Biso   1.000  C
  C137     1.0000 0.63172  0.84255  0.31384  Biso   1.000  C
  C138     1.0000 0.62208  0.85390  0.21010  Biso   1.000  C
  H113     1.0000 0.83455  0.22094  0.90547  Biso   1.000  H
  H114     1.0000 0.88576  0.16328  0.94989  Biso   1.000  H
  C139     1.0000 0.75435  0.18735  0.97217  Biso   1.000  C
  O27      1.0000 0.27182  0.94319  0.17019  Biso   1.000  O
  N31      1.0000 0.30499  0.96482  0.28319  Biso   1.000  N
  O28      1.0000 0.32022  0.98252  0.39589  Biso   1.000  O
  O29      1.0000 0.62017  0.87126  0.37668  Biso   1.000  O
  N32      1.0000 0.60309  0.88858  0.26942  Biso   1.000  N
  O30      1.0000 0.59919  0.89575  0.16083  Biso   1.000  O
  C140     1.0000 0.68340  0.24220  0.97044  Biso   1.000  C
  C141     1.0000 0.73585  0.10747  0.99000  Biso   1.000  C
  C142     1.0000 0.36920  0.97580  0.17207  Biso   1.000  C
  C143     1.0000 0.42110  0.99553  0.40188  Biso   1.000  C
  C144     1.0000 0.56899  0.94165  0.39282  Biso   1.000  C
  C145     1.0000 0.53039  0.95218  0.16742  Biso   1.000  C
  H115     1.0000 0.69577  0.29575  0.95846  Biso   1.000  H
  C146     1.0000 0.59402  0.21715  0.98648  Biso   1.000  C
  H116     1.0000 0.78330  0.07074  0.99119  Biso   1.000  H
  C147     1.0000 0.64663  0.08250  0.00609  Biso   1.000  C
  C148     1.0000 0.43712  0.92085  0.17232  Biso   1.000  C
  C149     1.0000 0.38956  0.06081  0.16648  Biso   1.000  C
  C150     1.0000 0.47047  0.92913  0.37633  Biso   1.000  C
  C151     1.0000 0.46872  0.07246  0.44159  Biso   1.000  C
  C152     1.0000 0.61967  0.01707  0.43214  Biso   1.000  C
  C153     1.0000 0.55385  0.03724  0.16266  Biso   1.000  C
  H117     1.0000 0.54664  0.25388  0.98529  Biso   1.000  H
  C154     1.0000 0.57567  0.13728  0.00436  Biso   1.000  C
  H118     1.0000 0.63417  0.02899  0.01797  Biso   1.000  H
  H119     1.0000 0.42119  0.86327  0.17569  Biso   1.000  H
  C155     1.0000 0.48379  0.09163  0.16202  Biso   1.000  C
  H120     1.0000 0.34157  0.09701  0.16568  Biso   1.000  H
  H121     1.0000 0.43771  0.87756  0.34880  Biso   1.000  H
  C156     1.0000 0.56906  0.08328  0.45635  Biso   1.000  C
  H122     1.0000 0.43457  0.11658  0.45838  Biso   1.000  H
  H123     1.0000 0.68674  0.02374  0.44239  Biso   1.000  H
  H124     1.0000 0.61700  0.05802  0.15979  Biso   1.000  H
  H125     1.0000 0.51593  0.12058  0.01510  Biso   1.000  H
  C157     1.0000 0.50487  0.18322  0.15712  Biso   1.000  C
  C158     1.0000 0.62614  0.16498  0.50047  Biso   1.000  C
  O31      1.0000 0.44500  0.22753  0.14048  Biso   1.000  O
  O32      1.0000 0.59816  0.21361  0.17351  Biso   1.000  O
  O33      1.0000 0.71100  0.17963  0.50978  Biso   1.000  O
  O34      1.0000 0.56922  0.21820  0.52775  Biso   1.000  O
  C159     1.0000 0.62439  0.30370  0.17029  Biso   1.000  C
  C160     1.0000 0.61614  0.30185  0.57069  Biso   1.000  C
  H126     1.0000 0.60660  0.31191  0.12548  Biso   1.000  H
  H127     1.0000 0.59230  0.34219  0.19950  Biso   1.000  H
  C161     1.0000 0.73177  0.32172  0.19198  Biso   1.000  C
  C162     1.0000 0.72539  0.33116  0.20208  Biso   1.000  C
  H128     1.0000 0.67957  0.31666  0.55999  Biso   1.000  H
  H129     1.0000 0.57793  0.34772  0.56316  Biso   1.000  H
  C163     1.0000 0.62627  0.29545  0.64199  Biso   1.000  C
  C164     1.0000 0.78715  0.27658  0.15078  Biso   1.000  C
  C165     1.0000 0.77675  0.38338  0.24818  Biso   1.000  C
  C166     1.0000 0.80898  0.32518  0.17460  Biso   1.000  C
  C167     1.0000 0.73159  0.37070  0.26838  Biso   1.000  C
  C168     1.0000 0.70759  0.26903  0.67329  Biso   1.000  C
  C169     1.0000 0.55425  0.31656  0.67799  Biso   1.000  C
  H130     1.0000 0.75708  0.23540  0.11320  Biso   1.000  H
  C170     1.0000 0.88747  0.29319  0.16588  Biso   1.000  C
  H131     1.0000 0.80475  0.29883  0.13028  Biso   1.000  H
  C171     1.0000 0.87707  0.39999  0.26328  Biso   1.000  C
  H132     1.0000 0.73966  0.41357  0.27581  Biso   1.000  H
  C172     1.0000 0.82138  0.40418  0.30720  Biso   1.000  C
  C173     1.0000 0.89881  0.35881  0.21352  Biso   1.000  C
  H133     1.0000 0.67565  0.37467  0.28670  Biso   1.000  H
  H134     1.0000 0.75576  0.25307  0.64917  Biso   1.000  H
  C174     1.0000 0.71931  0.26597  0.73810  Biso   1.000  C
  C175     1.0000 0.56612  0.31293  0.74509  Biso   1.000  C
  H135     1.0000 0.49805  0.33312  0.65769  Biso   1.000  H
  H136     1.0000 0.92459  0.26298  0.13840  Biso   1.000  H
  C176     1.0000 0.93247  0.35487  0.22218  Biso   1.000  C
  H137     1.0000 0.95465  0.35481  0.19510  Biso   1.000  H
  H138     1.0000 0.90717  0.44121  0.30102  Biso   1.000  H
  C177     1.0000 0.90499  0.39827  0.27977  Biso   1.000  C
  H139     1.0000 0.82556  0.43066  0.35157  Biso   1.000  H
  H140     1.0000 0.77519  0.24873  0.75826  Biso   1.000  H
  C178     1.0000 0.64953  0.28780  0.77326  Biso   1.000  C
  H141     1.0000 0.51833  0.32724  0.76989  Biso   1.000  H
  H142     1.0000 0.99959  0.36591  0.23229  Biso   1.000  H
  H143     1.0000 0.96496  0.42070  0.30577  Biso   1.000  H
  H144     1.0000 0.65833  0.28595  0.81798  Biso   1.000  H
  Ne1      1.0000 0.31202  0.71212  0.25371  Biso   1.000  Ne
  He1      1.0000 0.31722  0.71465  0.31385  Biso   1.000  He
  He2      1.0000 0.22650  0.50579  0.18582  Biso   1.000  He
  He3      1.0000 0.28135  0.74492  0.17433  Biso   1.000  He
  Ar1      1.0000 0.31327  0.71822  0.25397  Biso   1.000  Ar
  Ne2      1.0000 0.68791  0.28776  0.74626  Biso   1.000  Ne
  He4      1.0000 0.68592  0.28305  0.83729  Biso   1.000  He
  He5      1.0000 0.78245  0.51082  0.81861  Biso   1.000  He
  He6      1.0000 0.68424  0.28482  0.68915  Biso   1.000  He
  Ar2      1.0000 0.69081  0.27291  0.75013  Biso   1.000  Ar
