data_image0
_cell_length_a       9.557
_cell_length_b       11.086
_cell_length_c       20.645
_cell_angle_alpha    76.83
_cell_angle_beta     77.41
_cell_angle_gamma    84.17

_symmetry_space_group_name_H-M    "P 1"
_symmetry_int_tables_number       1

loop_
  _symmetry_equiv_pos_as_xyz
  'x, y, z'

loop_
  _atom_site_label
  _atom_site_occupancy
  _atom_site_fract_x
  _atom_site_fract_y
  _atom_site_fract_z
  _atom_site_thermal_displace_type
  _atom_site_B_iso_or_equiv
  _atom_site_type_symbol
  C1       1.0000 0.67090  0.42733  0.56177  Biso   1.000  C
  C2       1.0000 0.60824  0.34706  0.63048  Biso   1.000  C
  H1       1.0000 0.67633  0.38128  0.52709  Biso   1.000  H
  H2       1.0000 0.60603  0.49844  0.55329  Biso   1.000  H
  C3       1.0000 0.81657  0.47213  0.55918  Biso   1.000  C
  C4       1.0000 0.44809  0.31991  0.64206  Biso   1.000  C
  H3       1.0000 0.62073  0.38729  0.66522  Biso   1.000  H
  H4       1.0000 0.66382  0.26943  0.63521  Biso   1.000  H
  H5       1.0000 0.87163  0.40605  0.58280  Biso   1.000  H
  H6       1.0000 0.86646  0.49425  0.51282  Biso   1.000  H
  O1       1.0000 0.80306  0.58068  0.59006  Biso   1.000  O
  C5       1.0000 0.42577  0.25316  0.58752  Biso   1.000  C
  C6       1.0000 0.40606  0.23361  0.71159  Biso   1.000  C
  C7       1.0000 0.35367  0.43906  0.63902  Biso   1.000  C
  C8       1.0000 0.84177  0.68777  0.54837  Biso   1.000  C
  H7       1.0000 0.45268  0.30496  0.54319  Biso   1.000  H
  H8       1.0000 0.32642  0.23553  0.59560  Biso   1.000  H
  H9       1.0000 0.48376  0.17690  0.59011  Biso   1.000  H
  N1       1.0000 0.42602  0.26373  0.77034  Biso   1.000  N
  C9       1.0000 0.34560  0.12036  0.73078  Biso   1.000  C
  N2       1.0000 0.38314  0.53675  0.66375  Biso   1.000  N
  C10      1.0000 0.23164  0.47379  0.61393  Biso   1.000  C
  O2       1.0000 0.88622  0.70037  0.48793  Biso   1.000  O
  C11      1.0000 0.82239  0.79428  0.58310  Biso   1.000  C
  C12      1.0000 0.37948  0.17094  0.82595  Biso   1.000  C
  H10      1.0000 0.47390  0.32795  0.77192  Biso   1.000  H
  H11      1.0000 0.31954  0.07543  0.70092  Biso   1.000  H
  C13      1.0000 0.32971  0.08135  0.80229  Biso   1.000  C
  C14      1.0000 0.28144  0.63359  0.65461  Biso   1.000  C
  H12      1.0000 0.45286  0.53799  0.68091  Biso   1.000  H
  C15      1.0000 0.18597  0.59496  0.62393  Biso   1.000  C
  H13      1.0000 0.18609  0.42469  0.59250  Biso   1.000  H
  C16      1.0000 0.79305  0.78054  0.65374  Biso   1.000  C
  C17      1.0000 0.83362  0.91211  0.54176  Biso   1.000  C
  C18      1.0000 0.40063  0.17290  0.89654  Biso   1.000  C
  H14      1.0000 0.28986  0.00577  0.82961  Biso   1.000  H
  C19      1.0000 0.29165  0.75739  0.67350  Biso   1.000  C
  H15      1.0000 0.10240  0.64257  0.61149  Biso   1.000  H
  H16      1.0000 0.78484  0.69916  0.68244  Biso   1.000  H
  C20      1.0000 0.77551  0.88575  0.68178  Biso   1.000  C
  H17      1.0000 0.85527  0.92107  0.49332  Biso   1.000  H
  C21      1.0000 0.81535  0.01590  0.56949  Biso   1.000  C
  C22      1.0000 0.32429  0.28364  0.92341  Biso   1.000  C
  C23      1.0000 0.34058  0.05540  0.94570  Biso   1.000  C
  C24      1.0000 0.56219  0.17094  0.89436  Biso   1.000  C
  C25      1.0000 0.24577  0.75033  0.74937  Biso   1.000  C
  C26      1.0000 0.19416  0.85511  0.63632  Biso   1.000  C
  C27      1.0000 0.44695  0.79723  0.64927  Biso   1.000  C
  C28      1.0000 0.74511  0.88198  0.75618  Biso   1.000  C
  C29      1.0000 0.78550  0.00235  0.63917  Biso   1.000  C
  H18      1.0000 0.82348  0.09689  0.54039  Biso   1.000  H
  N3       1.0000 0.37467  0.40150  0.90025  Biso   1.000  N
  C30      1.0000 0.20591  0.29236  0.97373  Biso   1.000  C
  H19      1.0000 0.23963  0.05566  0.94692  Biso   1.000  H
  H20      1.0000 0.35574  0.05381  0.99034  Biso   1.000  H
  H21      1.0000 0.38824  0.98330  0.93052  Biso   1.000  H
  H22      1.0000 0.60093  0.24427  0.86374  Biso   1.000  H
  H23      1.0000 0.60942  0.09872  0.87923  Biso   1.000  H
  H24      1.0000 0.57695  0.16925  0.93900  Biso   1.000  H
  N4       1.0000 0.32285  0.67814  0.79508  Biso   1.000  N
  C31      1.0000 0.13485  0.80885  0.78675  Biso   1.000  C
  H25      1.0000 0.09647  0.83145  0.65060  Biso   1.000  H
  H26      1.0000 0.22378  0.86166  0.58823  Biso   1.000  H
  H27      1.0000 0.20138  0.93372  0.64709  Biso   1.000  H
  H28      1.0000 0.50972  0.73695  0.67172  Biso   1.000  H
  H29      1.0000 0.45273  0.87627  0.65989  Biso   1.000  H
  H30      1.0000 0.47524  0.80412  0.60103  Biso   1.000  H
  O3       1.0000 0.73602  0.97493  0.77888  Biso   1.000  O
  O4       1.0000 0.73057  0.76796  0.79447  Biso   1.000  O
  H31      1.0000 0.77036  0.07483  0.65852  Biso   1.000  H
  C32      1.0000 0.29005  0.48346  0.93590  Biso   1.000  C
  H32      1.0000 0.45492  0.42296  0.86800  Biso   1.000  H
  H33      1.0000 0.14843  0.22466  0.99943  Biso   1.000  H
  C33      1.0000 0.18494  0.41731  0.98145  Biso   1.000  C
  C34      1.0000 0.26272  0.69102  0.86044  Biso   1.000  C
  H34      1.0000 0.40195  0.63292  0.78329  Biso   1.000  H
  C35      1.0000 0.14517  0.77216  0.85602  Biso   1.000  C
  H35      1.0000 0.06249  0.86503  0.76882  Biso   1.000  H
  C36      1.0000 0.70375  0.75975  0.86770  Biso   1.000  C
  C37      1.0000 0.32308  0.62012  0.92133  Biso   1.000  C
  H36      1.0000 0.11010  0.45004  0.01309  Biso   1.000  H
  H37      1.0000 0.08116  0.79842  0.89360  Biso   1.000  H
  C38      1.0000 0.54409  0.75723  0.89786  Biso   1.000  C
  H38      1.0000 0.75190  0.68594  0.88903  Biso   1.000  H
  H39      1.0000 0.74184  0.83003  0.87633  Biso   1.000  H
  C39      1.0000 0.48798  0.62880  0.90827  Biso   1.000  C
  C40      1.0000 0.25094  0.67303  0.98374  Biso   1.000  C
  H40      1.0000 0.52505  0.78136  0.94093  Biso   1.000  H
  H41      1.0000 0.49317  0.81585  0.86800  Biso   1.000  H
  H42      1.0000 0.52300  0.57541  0.94570  Biso   1.000  H
  H43      1.0000 0.52978  0.59721  0.86831  Biso   1.000  H
  H44      1.0000 0.14882  0.66715  0.99120  Biso   1.000  H
  H45      1.0000 0.27257  0.75855  0.97551  Biso   1.000  H
  H46      1.0000 0.28558  0.62761  0.02310  Biso   1.000  H
  C41      1.0000 0.32898  0.57252  0.43827  Biso   1.000  C
  C42      1.0000 0.18331  0.52772  0.44086  Biso   1.000  C
  C43      1.0000 0.39165  0.65291  0.36951  Biso   1.000  C
  H47      1.0000 0.32356  0.61869  0.47290  Biso   1.000  H
  H48      1.0000 0.39387  0.50144  0.44670  Biso   1.000  H
  O5       1.0000 0.19681  0.41926  0.40998  Biso   1.000  O
  H49      1.0000 0.12827  0.59383  0.41719  Biso   1.000  H
  H50      1.0000 0.13341  0.50570  0.48722  Biso   1.000  H
  C44      1.0000 0.55178  0.67995  0.35798  Biso   1.000  C
  H51      1.0000 0.37914  0.61265  0.33482  Biso   1.000  H
  H52      1.0000 0.33608  0.73045  0.36478  Biso   1.000  H
  C45      1.0000 0.15812  0.31220  0.45162  Biso   1.000  C
  C46      1.0000 0.59371  0.76625  0.28845  Biso   1.000  C
  C47      1.0000 0.64622  0.56091  0.36097  Biso   1.000  C
  C48      1.0000 0.57400  0.74679  0.41252  Biso   1.000  C
  C49      1.0000 0.17748  0.20566  0.41694  Biso   1.000  C
  O6       1.0000 0.11367  0.29960  0.51206  Biso   1.000  O
  N5       1.0000 0.57386  0.73613  0.22970  Biso   1.000  N
  C50      1.0000 0.65427  0.87958  0.26926  Biso   1.000  C
  N6       1.0000 0.61675  0.46322  0.33624  Biso   1.000  N
  C51      1.0000 0.76823  0.52615  0.38611  Biso   1.000  C
  H53      1.0000 0.54722  0.69492  0.45680  Biso   1.000  H
  H54      1.0000 0.67348  0.76435  0.40439  Biso   1.000  H
  H55      1.0000 0.51611  0.82305  0.40993  Biso   1.000  H
  C52      1.0000 0.20682  0.21941  0.34630  Biso   1.000  C
  C53      1.0000 0.16626  0.08775  0.45828  Biso   1.000  C
  C54      1.0000 0.62042  0.82894  0.17404  Biso   1.000  C
  H56      1.0000 0.52597  0.67199  0.22812  Biso   1.000  H
  C55      1.0000 0.67016  0.91859  0.19775  Biso   1.000  C
  H57      1.0000 0.68034  0.92442  0.29912  Biso   1.000  H
  C56      1.0000 0.71845  0.36638  0.34538  Biso   1.000  C
  H58      1.0000 0.54690  0.46195  0.31913  Biso   1.000  H
  C57      1.0000 0.81390  0.40499  0.37611  Biso   1.000  C
  H59      1.0000 0.81369  0.57528  0.40749  Biso   1.000  H
  C58      1.0000 0.22436  0.11419  0.31826  Biso   1.000  C
  H60      1.0000 0.21503  0.30078  0.31760  Biso   1.000  H
  C59      1.0000 0.18454  0.98407  0.43050  Biso   1.000  C
  H61      1.0000 0.14449  0.07888  0.50672  Biso   1.000  H
  C60      1.0000 0.59925  0.82695  0.10350  Biso   1.000  C
  H62      1.0000 0.70992  0.99420  0.17038  Biso   1.000  H
  C61      1.0000 0.70824  0.24258  0.32649  Biso   1.000  C
  H63      1.0000 0.89749  0.35740  0.38850  Biso   1.000  H
  C62      1.0000 0.25476  0.11797  0.24387  Biso   1.000  C
  C63      1.0000 0.21438  0.99751  0.36087  Biso   1.000  C
  H64      1.0000 0.17642  0.90299  0.45960  Biso   1.000  H
  C64      1.0000 0.67558  0.71630  0.07663  Biso   1.000  C
  C65      1.0000 0.65930  0.94445  0.05434  Biso   1.000  C
  C66      1.0000 0.43768  0.82901  0.10568  Biso   1.000  C
  C67      1.0000 0.75402  0.24955  0.25062  Biso   1.000  C
  C68      1.0000 0.80572  0.14475  0.36372  Biso   1.000  C
  C69      1.0000 0.55292  0.20271  0.35077  Biso   1.000  C
  O7       1.0000 0.26932  0.23200  0.20552  Biso   1.000  O
  O8       1.0000 0.26385  0.02502  0.22116  Biso   1.000  O
  H65      1.0000 0.22951  0.92512  0.34152  Biso   1.000  H
  N7       1.0000 0.62521  0.59835  0.09979  Biso   1.000  N
  C70      1.0000 0.79398  0.70760  0.02626  Biso   1.000  C
  H66      1.0000 0.76024  0.94429  0.05312  Biso   1.000  H
  H67      1.0000 0.64414  0.94604  0.00970  Biso   1.000  H
  H68      1.0000 0.61163  0.01664  0.06952  Biso   1.000  H
  H69      1.0000 0.39883  0.75568  0.13630  Biso   1.000  H
  H70      1.0000 0.39045  0.90113  0.12082  Biso   1.000  H
  H71      1.0000 0.42284  0.83071  0.06099  Biso   1.000  H
  N8       1.0000 0.67691  0.32180  0.20496  Biso   1.000  N
  C71      1.0000 0.86502  0.19109  0.21329  Biso   1.000  C
  H72      1.0000 0.90342  0.16852  0.34939  Biso   1.000  H
  H73      1.0000 0.77599  0.13828  0.41181  Biso   1.000  H
  H74      1.0000 0.79852  0.06615  0.35290  Biso   1.000  H
  H75      1.0000 0.49015  0.26300  0.32832  Biso   1.000  H
  H76      1.0000 0.54716  0.12370  0.34010  Biso   1.000  H
  H77      1.0000 0.52464  0.19574  0.39901  Biso   1.000  H
  C72      1.0000 0.29611  0.24020  0.13234  Biso   1.000  C
  C73      1.0000 0.70974  0.51651  0.06409  Biso   1.000  C
  H78      1.0000 0.54497  0.57700  0.13199  Biso   1.000  H
  C74      1.0000 0.81496  0.58256  0.01854  Biso   1.000  C
  H79      1.0000 0.85144  0.77529  0.00061  Biso   1.000  H
  C75      1.0000 0.73716  0.30884  0.13961  Biso   1.000  C
  H80      1.0000 0.59795  0.36695  0.21670  Biso   1.000  H
  C76      1.0000 0.85470  0.22779  0.14402  Biso   1.000  C
  H81      1.0000 0.93738  0.13492  0.23122  Biso   1.000  H
  H82      1.0000 0.24797  0.31401  0.11101  Biso   1.000  H
  H83      1.0000 0.25792  0.16991  0.12371  Biso   1.000  H
  C77      1.0000 0.45580  0.24274  0.10213  Biso   1.000  C
  C78      1.0000 0.67679  0.37983  0.07872  Biso   1.000  C
  H84      1.0000 0.88977  0.54990  0.98695  Biso   1.000  H
  H85      1.0000 0.91863  0.20146  0.10639  Biso   1.000  H
  H86      1.0000 0.47482  0.21858  0.05911  Biso   1.000  H
  H87      1.0000 0.50672  0.18412  0.13199  Biso   1.000  H
  C79      1.0000 0.51192  0.37108  0.09172  Biso   1.000  C
  C80      1.0000 0.74895  0.32693  0.01625  Biso   1.000  C
  H88      1.0000 0.47690  0.42446  0.05429  Biso   1.000  H
  H89      1.0000 0.47012  0.40267  0.13168  Biso   1.000  H
  H90      1.0000 0.85107  0.33281  0.00879  Biso   1.000  H
  H91      1.0000 0.72732  0.24142  0.02448  Biso   1.000  H
  H92      1.0000 0.71429  0.37234  0.97694  Biso   1.000  H
  Ne1      1.0000 0.51803  0.43286  0.25720  Biso   1.000  Ne
  He1      1.0000 0.50966  0.50947  0.23523  Biso   1.000  He
  He2      1.0000 0.50405  0.50891  0.23552  Biso   1.000  He
  Ar1      1.0000 0.49394  0.45300  0.25553  Biso   1.000  Ar
  Ne2      1.0000 0.48184  0.56707  0.74282  Biso   1.000  Ne
  He3      1.0000 0.90191  0.35957  0.74998  Biso   1.000  He
  He4      1.0000 0.50071  0.48535  0.77703  Biso   1.000  He
  Ar2      1.0000 0.50586  0.54703  0.74443  Biso   1.000  Ar
