data_image0
_cell_length_a       22.276
_cell_length_b       11.269
_cell_length_c       20.535
_cell_angle_alpha    90
_cell_angle_beta     113.81
_cell_angle_gamma    90

_symmetry_space_group_name_H-M    "P 1"
_symmetry_int_tables_number       1

loop_
  _symmetry_equiv_pos_as_xyz
  'x, y, z'

loop_
  _atom_site_label
  _atom_site_occupancy
  _atom_site_fract_x
  _atom_site_fract_y
  _atom_site_fract_z
  _atom_site_thermal_displace_type
  _atom_site_B_iso_or_equiv
  _atom_site_type_symbol
  C1       1.0000 0.54346  0.52959  0.61015  Biso   1.000  C
  C2       1.0000 0.54462  0.46881  0.67008  Biso   1.000  C
  C3       1.0000 0.55951  0.64824  0.61116  Biso   1.000  C
  H1       1.0000 0.53139  0.48806  0.56757  Biso   1.000  H
  C4       1.0000 0.52219  0.33996  0.66119  Biso   1.000  C
  C5       1.0000 0.56644  0.53030  0.73486  Biso   1.000  C
  C6       1.0000 0.57521  0.71142  0.67482  Biso   1.000  C
  O1       1.0000 0.55376  0.69740  0.54723  Biso   1.000  O
  C7       1.0000 0.57574  0.25441  0.66407  Biso   1.000  C
  H2       1.0000 0.48500  0.33100  0.61590  Biso   1.000  H
  H3       1.0000 0.50780  0.31973  0.69851  Biso   1.000  H
  C8       1.0000 0.57582  0.47413  0.80517  Biso   1.000  C
  C9       1.0000 0.58052  0.65081  0.73529  Biso   1.000  C
  O2       1.0000 0.58264  0.83228  0.67248  Biso   1.000  O
  C10      1.0000 0.59566  0.79368  0.54521  Biso   1.000  C
  C11      1.0000 0.57852  0.22318  0.59940  Biso   1.000  C
  C12      1.0000 0.62319  0.20978  0.72751  Biso   1.000  C
  C13      1.0000 0.64477  0.42843  0.84967  Biso   1.000  C
  H4       1.0000 0.56425  0.53208  0.83306  Biso   1.000  H
  H5       1.0000 0.54540  0.40838  0.79581  Biso   1.000  H
  H6       1.0000 0.59397  0.69208  0.77808  Biso   1.000  H
  C14      1.0000 0.60244  0.89582  0.73726  Biso   1.000  C
  H7       1.0000 0.58650  0.81161  0.49587  Biso   1.000  H
  H8       1.0000 0.58478  0.86361  0.56581  Biso   1.000  H
  C15      1.0000 0.66789  0.76937  0.58407  Biso   1.000  C
  C16      1.0000 0.62801  0.15201  0.59668  Biso   1.000  C
  H9       1.0000 0.54616  0.25087  0.55708  Biso   1.000  H
  C17      1.0000 0.67606  0.14748  0.72411  Biso   1.000  C
  C18      1.0000 0.61773  0.21785  0.79911  Biso   1.000  C
  C19      1.0000 0.66190  0.30899  0.84999  Biso   1.000  C
  C20      1.0000 0.69102  0.50732  0.89566  Biso   1.000  C
  H10      1.0000 0.64539  0.87000  0.76909  Biso   1.000  H
  H11      1.0000 0.60348  0.97906  0.72810  Biso   1.000  H
  H12      1.0000 0.57187  0.88127  0.75849  Biso   1.000  H
  H13      1.0000 0.67770  0.74452  0.63250  Biso   1.000  H
  H14      1.0000 0.69298  0.84045  0.58561  Biso   1.000  H
  O3       1.0000 0.68450  0.67761  0.54654  Biso   1.000  O
  O4       1.0000 0.63011  0.10862  0.53526  Biso   1.000  O
  C21      1.0000 0.67986  0.11909  0.66061  Biso   1.000  C
  H15      1.0000 0.71006  0.12423  0.76637  Biso   1.000  H
  H16      1.0000 0.62779  0.14056  0.82178  Biso   1.000  H
  H17      1.0000 0.57260  0.23631  0.79048  Biso   1.000  H
  C22      1.0000 0.72349  0.27154  0.89896  Biso   1.000  C
  C23      1.0000 0.75264  0.46961  0.94208  Biso   1.000  C
  H18      1.0000 0.68007  0.58701  0.89508  Biso   1.000  H
  C24      1.0000 0.74693  0.63102  0.57763  Biso   1.000  C
  C25      1.0000 0.57189  0.12122  0.47170  Biso   1.000  C
  O5       1.0000 0.73173  0.05102  0.66141  Biso   1.000  O
  H19      1.0000 0.73454  0.19168  0.90056  Biso   1.000  H
  C26      1.0000 0.76819  0.34945  0.94490  Biso   1.000  C
  O6       1.0000 0.80020  0.54131  0.98939  Biso   1.000  O
  C27      1.0000 0.75837  0.52835  0.54638  Biso   1.000  C
  C28      1.0000 0.79830  0.68178  0.63447  Biso   1.000  C
  H20      1.0000 0.56349  0.20392  0.46047  Biso   1.000  H
  H21      1.0000 0.57757  0.08146  0.43317  Biso   1.000  H
  H22      1.0000 0.53548  0.08679  0.47868  Biso   1.000  H
  C29      1.0000 0.76813  0.10276  0.62409  Biso   1.000  C
  O7       1.0000 0.82650  0.30606  0.99615  Biso   1.000  O
  C30      1.0000 0.79883  0.66483  0.97257  Biso   1.000  C
  C31      1.0000 0.81939  0.47626  0.57475  Biso   1.000  C
  O8       1.0000 0.70966  0.48176  0.48533  Biso   1.000  O
  C32      1.0000 0.86130  0.63164  0.66215  Biso   1.000  C
  H23      1.0000 0.79078  0.75091  0.65481  Biso   1.000  H
  H24      1.0000 0.74430  0.09255  0.57321  Biso   1.000  H
  H25      1.0000 0.77447  0.18688  0.63426  Biso   1.000  H
  C33      1.0000 0.83315  0.04073  0.64900  Biso   1.000  C
  C34      1.0000 0.88279  0.33233  0.98226  Biso   1.000  C
  H26      1.0000 0.78908  0.67530  0.92249  Biso   1.000  H
  H27      1.0000 0.76546  0.70548  0.98327  Biso   1.000  H
  C35      1.0000 0.86559  0.71382  0.01734  Biso   1.000  C
  C36      1.0000 0.87148  0.52498  0.63330  Biso   1.000  C
  H28      1.0000 0.82639  0.40660  0.55447  Biso   1.000  H
  C37      1.0000 0.65889  0.42116  0.49762  Biso   1.000  C
  C38      1.0000 0.91608  0.69997  0.71996  Biso   1.000  C
  H29      1.0000 0.85656  0.06833  0.62106  Biso   1.000  H
  O9       1.0000 0.87297  0.06025  0.72283  Biso   1.000  O
  H30      1.0000 0.82570  0.95616  0.64081  Biso   1.000  H
  H31      1.0000 0.88879  0.41672  0.98258  Biso   1.000  H
  H32      1.0000 0.87679  0.30118  0.93659  Biso   1.000  H
  H33      1.0000 0.92091  0.29665  0.01835  Biso   1.000  H
  O10      1.0000 0.91672  0.67051  0.99743  Biso   1.000  O
  H34      1.0000 0.87663  0.69350  0.06679  Biso   1.000  H
  H35      1.0000 0.86400  0.79972  0.01356  Biso   1.000  H
  C39      1.0000 0.93526  0.45514  0.66534  Biso   1.000  C
  H36      1.0000 0.63941  0.47422  0.52019  Biso   1.000  H
  H37      1.0000 0.62597  0.39489  0.45297  Biso   1.000  H
  H38      1.0000 0.67712  0.35398  0.52791  Biso   1.000  H
  C40      1.0000 0.91654  0.68986  0.79357  Biso   1.000  C
  H39      1.0000 0.91227  0.78312  0.70670  Biso   1.000  H
  H40      1.0000 0.95787  0.67167  0.72177  Biso   1.000  H
  C41      1.0000 0.89966  0.17180  0.74231  Biso   1.000  C
  C42      1.0000 0.91203  0.68160  0.92840  Biso   1.000  C
  C43      1.0000 0.93384  0.36756  0.72102  Biso   1.000  C
  H41      1.0000 0.97157  0.50972  0.68706  Biso   1.000  H
  H42      1.0000 0.94210  0.41246  0.62787  Biso   1.000  H
  C44      1.0000 0.95011  0.59952  0.84169  Biso   1.000  C
  C45      1.0000 0.88340  0.77585  0.81502  Biso   1.000  C
  C46      1.0000 0.92763  0.19407  0.81566  Biso   1.000  C
  C47      1.0000 0.90364  0.25814  0.69632  Biso   1.000  C
  C48      1.0000 0.94610  0.59792  0.90764  Biso   1.000  C
  C49      1.0000 0.88103  0.77487  0.88140  Biso   1.000  C
  C50      1.0000 0.95986  0.39152  0.79405  Biso   1.000  C
  C51      1.0000 0.99329  0.50741  0.82684  Biso   1.000  C
  H43      1.0000 0.86196  0.83645  0.78346  Biso   1.000  H
  C52      1.0000 0.95685  0.30233  0.84025  Biso   1.000  C
  O11      1.0000 0.92331  0.10249  0.85750  Biso   1.000  O
  H44      1.0000 0.88576  0.24288  0.64767  Biso   1.000  H
  H45      1.0000 0.96748  0.53749  0.93925  Biso   1.000  H
  O12      1.0000 0.85107  0.86157  0.90487  Biso   1.000  O
  H46      1.0000 0.03008  0.48948  0.87128  Biso   1.000  H
  H47      1.0000 0.01095  0.54273  0.79517  Biso   1.000  H
  H48      1.0000 0.97506  0.31671  0.88895  Biso   1.000  H
  C53      1.0000 0.97120  0.09504  0.92802  Biso   1.000  C
  C54      1.0000 0.80278  0.93327  0.85207  Biso   1.000  C
  H49      1.0000 0.98065  0.17313  0.94836  Biso   1.000  H
  H50      1.0000 0.95494  0.04641  0.95575  Biso   1.000  H
  H51      1.0000 0.01055  0.06061  0.92786  Biso   1.000  H
  H52      1.0000 0.77257  0.88322  0.81577  Biso   1.000  H
  H53      1.0000 0.77939  0.97888  0.87378  Biso   1.000  H
  H54      1.0000 0.82397  0.98589  0.83120  Biso   1.000  H
  C55      1.0000 0.45649  0.47041  0.38984  Biso   1.000  C
  C56      1.0000 0.44047  0.35167  0.38877  Biso   1.000  C
  C57      1.0000 0.45538  0.53110  0.32990  Biso   1.000  C
  H55      1.0000 0.46859  0.51185  0.43237  Biso   1.000  H
  O13      1.0000 0.44624  0.30260  0.45275  Biso   1.000  O
  C58      1.0000 0.42473  0.28849  0.32511  Biso   1.000  C
  C59      1.0000 0.43351  0.46970  0.26513  Biso   1.000  C
  C60      1.0000 0.47776  0.66004  0.33879  Biso   1.000  C
  C61      1.0000 0.40432  0.20623  0.45472  Biso   1.000  C
  C62      1.0000 0.41946  0.34919  0.26465  Biso   1.000  C
  O14      1.0000 0.41731  0.16772  0.32751  Biso   1.000  O
  C63      1.0000 0.42418  0.52587  0.19481  Biso   1.000  C
  C64      1.0000 0.42421  0.74559  0.33592  Biso   1.000  C
  H56      1.0000 0.51500  0.66900  0.38409  Biso   1.000  H
  H57      1.0000 0.49220  0.68027  0.30148  Biso   1.000  H
  C65      1.0000 0.33206  0.23063  0.41592  Biso   1.000  C
  H58      1.0000 0.41348  0.18839  0.50407  Biso   1.000  H
  H59      1.0000 0.41517  0.13639  0.43418  Biso   1.000  H
  H60      1.0000 0.40598  0.30792  0.22191  Biso   1.000  H
  C66      1.0000 0.39756  0.10418  0.26273  Biso   1.000  C
  C67      1.0000 0.35521  0.57157  0.15026  Biso   1.000  C
  H61      1.0000 0.43571  0.46792  0.16692  Biso   1.000  H
  H62      1.0000 0.45460  0.59162  0.20418  Biso   1.000  H
  C68      1.0000 0.37681  0.79013  0.27247  Biso   1.000  C
  C69      1.0000 0.42148  0.77682  0.40059  Biso   1.000  C
  O15      1.0000 0.31544  0.32239  0.45339  Biso   1.000  O
  H63      1.0000 0.32230  0.25548  0.36748  Biso   1.000  H
  H64      1.0000 0.30698  0.15946  0.41438  Biso   1.000  H
  H65      1.0000 0.35461  0.13000  0.23090  Biso   1.000  H
  H66      1.0000 0.39648  0.02094  0.27189  Biso   1.000  H
  H67      1.0000 0.42808  0.11873  0.24149  Biso   1.000  H
  C70      1.0000 0.30896  0.49268  0.10427  Biso   1.000  C
  C71      1.0000 0.33810  0.69101  0.15000  Biso   1.000  C
  C72      1.0000 0.38226  0.78215  0.20088  Biso   1.000  C
  C73      1.0000 0.32389  0.85252  0.27588  Biso   1.000  C
  C74      1.0000 0.37194  0.84790  0.40331  Biso   1.000  C
  H68      1.0000 0.45379  0.74905  0.44291  Biso   1.000  H
  C75      1.0000 0.25303  0.36898  0.42236  Biso   1.000  C
  C76      1.0000 0.24731  0.53039  0.05791  Biso   1.000  C
  H69      1.0000 0.31988  0.41299  0.10491  Biso   1.000  H
  C77      1.0000 0.27644  0.72837  0.10097  Biso   1.000  C
  H70      1.0000 0.37221  0.85935  0.17821  Biso   1.000  H
  H71      1.0000 0.42740  0.76369  0.20950  Biso   1.000  H
  C78      1.0000 0.32014  0.88091  0.33938  Biso   1.000  C
  H72      1.0000 0.28989  0.87577  0.23362  Biso   1.000  H
  O16      1.0000 0.36982  0.89129  0.46468  Biso   1.000  O
  C79      1.0000 0.20170  0.31822  0.36551  Biso   1.000  C
  C80      1.0000 0.24162  0.47165  0.45361  Biso   1.000  C
  O17      1.0000 0.19980  0.45869  0.01059  Biso   1.000  O
  C81      1.0000 0.23174  0.65055  0.05504  Biso   1.000  C
  H73      1.0000 0.26539  0.80832  0.09938  Biso   1.000  H
  O18      1.0000 0.26822  0.94898  0.33858  Biso   1.000  O
  C82      1.0000 0.42806  0.87878  0.52828  Biso   1.000  C
  C83      1.0000 0.13866  0.36836  0.33784  Biso   1.000  C
  H74      1.0000 0.20917  0.24909  0.34518  Biso   1.000  H
  C84      1.0000 0.18056  0.52374  0.42524  Biso   1.000  C
  O19      1.0000 0.29034  0.51824  0.51466  Biso   1.000  O
  C85      1.0000 0.20112  0.33517  0.02741  Biso   1.000  C
  O20      1.0000 0.17349  0.69385  0.00383  Biso   1.000  O
  C86      1.0000 0.23181  0.89724  0.37584  Biso   1.000  C
  H75      1.0000 0.43649  0.79608  0.53946  Biso   1.000  H
  H76      1.0000 0.42236  0.91845  0.56677  Biso   1.000  H
  H77      1.0000 0.46448  0.91321  0.52131  Biso   1.000  H
  C87      1.0000 0.08388  0.30003  0.28003  Biso   1.000  C
  C88      1.0000 0.12847  0.47493  0.36668  Biso   1.000  C
  H78      1.0000 0.17361  0.59340  0.44551  Biso   1.000  H
  C89      1.0000 0.34107  0.57876  0.50236  Biso   1.000  C
  C90      1.0000 0.13437  0.28618  0.98265  Biso   1.000  C
  H79      1.0000 0.21092  0.32470  0.07750  Biso   1.000  H
  H80      1.0000 0.23449  0.29452  0.01671  Biso   1.000  H
  C91      1.0000 0.11714  0.66767  0.01767  Biso   1.000  C
  C92      1.0000 0.16685  0.95927  0.35098  Biso   1.000  C
  H81      1.0000 0.25570  0.90736  0.42678  Biso   1.000  H
  H82      1.0000 0.22547  0.81312  0.36567  Biso   1.000  H
  C93      1.0000 0.08342  0.31014  0.20642  Biso   1.000  C
  H83      1.0000 0.08769  0.21688  0.29328  Biso   1.000  H
  H84      1.0000 0.04206  0.32833  0.27817  Biso   1.000  H
  C94      1.0000 0.06474  0.54477  0.33464  Biso   1.000  C
  H85      1.0000 0.36059  0.52578  0.47979  Biso   1.000  H
  H86      1.0000 0.37396  0.60511  0.54697  Biso   1.000  H
  H87      1.0000 0.32288  0.64602  0.47208  Biso   1.000  H
  O21      1.0000 0.08328  0.32949  0.00255  Biso   1.000  O
  H88      1.0000 0.12337  0.30650  0.93320  Biso   1.000  H
  H89      1.0000 0.13593  0.20028  0.98637  Biso   1.000  H
  H90      1.0000 0.11121  0.58328  0.01741  Biso   1.000  H
  H91      1.0000 0.12321  0.69882  0.06339  Biso   1.000  H
  H92      1.0000 0.07907  0.70326  0.98158  Biso   1.000  H
  O22      1.0000 0.12698  0.93966  0.27716  Biso   1.000  O
  H93      1.0000 0.14338  0.93167  0.37887  Biso   1.000  H
  H94      1.0000 0.17430  0.04375  0.35918  Biso   1.000  H
  C95      1.0000 0.11654  0.22415  0.18491  Biso   1.000  C
  C96      1.0000 0.04989  0.40048  0.15830  Biso   1.000  C
  C97      1.0000 0.06611  0.63244  0.27897  Biso   1.000  C
  H95      1.0000 0.02836  0.49028  0.31287  Biso   1.000  H
  H96      1.0000 0.05790  0.58745  0.37211  Biso   1.000  H
  C98      1.0000 0.08790  0.31831  0.07154  Biso   1.000  C
  C99      1.0000 0.10034  0.82820  0.25767  Biso   1.000  C
  C100     1.0000 0.11892  0.22504  0.11859  Biso   1.000  C
  H97      1.0000 0.13798  0.16346  0.21648  Biso   1.000  H
  C101     1.0000 0.05385  0.40199  0.09235  Biso   1.000  C
  C102     1.0000 0.00671  0.49250  0.17315  Biso   1.000  C
  C103     1.0000 0.04010  0.60848  0.20594  Biso   1.000  C
  C104     1.0000 0.09635  0.74186  0.30366  Biso   1.000  C
  C105     1.0000 0.07237  0.80593  0.18433  Biso   1.000  C
  O23      1.0000 0.14893  0.13843  0.09512  Biso   1.000  O
  H98      1.0000 0.03250  0.46251  0.06068  Biso   1.000  H
  H99      1.0000 0.96988  0.51052  0.12870  Biso   1.000  H
  H100     1.0000 0.98900  0.45727  0.20482  Biso   1.000  H
  C106     1.0000 0.04315  0.69767  0.15974  Biso   1.000  C
  H101     1.0000 0.11419  0.75712  0.35231  Biso   1.000  H
  O24      1.0000 0.07669  0.89751  0.14249  Biso   1.000  O
  C107     1.0000 0.19720  0.06673  0.14787  Biso   1.000  C
  H102     1.0000 0.02487  0.68329  0.11098  Biso   1.000  H
  C108     1.0000 0.02874  0.90496  0.07191  Biso   1.000  C
  H103     1.0000 0.22738  0.11678  0.18422  Biso   1.000  H
  H104     1.0000 0.22061  0.02112  0.12620  Biso   1.000  H
  H105     1.0000 0.17598  0.01411  0.16878  Biso   1.000  H
  H106     1.0000 0.01928  0.82687  0.05158  Biso   1.000  H
  H107     1.0000 0.04499  0.95359  0.04418  Biso   1.000  H
  H108     1.0000 0.98940  0.93939  0.07212  Biso   1.000  H
  C109     1.0000 0.61774  0.28210  0.29914  Biso   1.000  C
  C110     1.0000 0.62320  0.29018  0.22755  Biso   1.000  C
  H109     1.0000 0.62780  0.35939  0.32181  Biso   1.000  H
  H110     1.0000 0.57261  0.26373  0.29052  Biso   1.000  H
  C111     1.0000 0.66191  0.19106  0.35002  Biso   1.000  C
  C112     1.0000 0.57573  0.24563  0.16405  Biso   1.000  C
  C113     1.0000 0.67610  0.35256  0.22409  Biso   1.000  C
  C114     1.0000 0.64478  0.07152  0.34971  Biso   1.000  C
  C115     1.0000 0.72350  0.22841  0.39899  Biso   1.000  C
  C116     1.0000 0.52225  0.16009  0.16123  Biso   1.000  C
  C117     1.0000 0.57851  0.27687  0.09938  Biso   1.000  C
  C118     1.0000 0.67987  0.38096  0.16064  Biso   1.000  C
  H111     1.0000 0.71011  0.37581  0.26640  Biso   1.000  H
  C119     1.0000 0.57581  0.02591  0.30515  Biso   1.000  C
  C120     1.0000 0.69103  0.99272  0.39569  Biso   1.000  C
  H112     1.0000 0.73460  0.30828  0.40059  Biso   1.000  H
  C121     1.0000 0.76825  0.15059  0.44493  Biso   1.000  C
  C122     1.0000 0.54463  0.03115  0.17012  Biso   1.000  C
  H113     1.0000 0.48499  0.16896  0.11588  Biso   1.000  H
  H114     1.0000 0.50779  0.18032  0.19849  Biso   1.000  H
  H115     1.0000 0.54621  0.24909  0.05711  Biso   1.000  H
  C123     1.0000 0.62804  0.34795  0.09666  Biso   1.000  C
  O25      1.0000 0.73174  0.44902  0.16144  Biso   1.000  O
  C124     1.0000 0.56648  0.96974  0.23484  Biso   1.000  C
  H116     1.0000 0.54539  0.09158  0.29579  Biso   1.000  H
  H117     1.0000 0.56430  0.96788  0.33310  Biso   1.000  H
  C125     1.0000 0.75263  0.03044  0.44206  Biso   1.000  C
  H118     1.0000 0.68008  0.91304  0.39511  Biso   1.000  H
  O26      1.0000 0.82651  0.19389  0.49619  Biso   1.000  O
  C126     1.0000 0.54347  0.97036  0.11018  Biso   1.000  C
  O27      1.0000 0.63017  0.39134  0.03529  Biso   1.000  O
  C127     1.0000 0.76814  0.39728  0.12413  Biso   1.000  C
  C128     1.0000 0.58053  0.84923  0.23532  Biso   1.000  C
  O28      1.0000 0.80019  0.95874  0.48937  Biso   1.000  O
  C129     1.0000 0.88285  0.16772  0.48230  Biso   1.000  C
  H119     1.0000 0.53140  0.01189  0.06760  Biso   1.000  H
  C130     1.0000 0.55952  0.85172  0.11119  Biso   1.000  C
  C131     1.0000 0.57186  0.37883  0.97174  Biso   1.000  C
  H120     1.0000 0.74429  0.40740  0.07319  Biso   1.000  H
  H121     1.0000 0.77448  0.31307  0.13429  Biso   1.000  H
  C132     1.0000 0.83316  0.45922  0.14904  Biso   1.000  C
  H122     1.0000 0.59398  0.80788  0.27811  Biso   1.000  H
  C133     1.0000 0.57526  0.78853  0.17485  Biso   1.000  C
  C134     1.0000 0.79888  0.83512  0.47261  Biso   1.000  C
  H123     1.0000 0.88878  0.08333  0.48256  Biso   1.000  H
  H124     1.0000 0.92088  0.20330  0.51838  Biso   1.000  H
  H125     1.0000 0.87678  0.19878  0.43657  Biso   1.000  H
  O29      1.0000 0.55375  0.80256  0.04721  Biso   1.000  O
  H126     1.0000 0.56346  0.29612  0.96051  Biso   1.000  H
  H127     1.0000 0.57754  0.41849  0.93320  Biso   1.000  H
  H128     1.0000 0.53544  0.41317  0.97871  Biso   1.000  H
  H129     1.0000 0.85661  0.43172  0.12109  Biso   1.000  H
  H130     1.0000 0.82569  0.54379  0.14079  Biso   1.000  H
  O30      1.0000 0.87301  0.43970  0.22281  Biso   1.000  O
  O31      1.0000 0.58268  0.66767  0.17246  Biso   1.000  O
  H131     1.0000 0.78907  0.82474  0.42247  Biso   1.000  H
  H132     1.0000 0.76547  0.79448  0.48331  Biso   1.000  H
  C135     1.0000 0.86558  0.78623  0.51732  Biso   1.000  C
  C136     1.0000 0.59567  0.70627  0.04524  Biso   1.000  C
  C137     1.0000 0.89965  0.32825  0.24229  Biso   1.000  C
  C138     1.0000 0.60245  0.60422  0.23729  Biso   1.000  C
  H133     1.0000 0.87657  0.80646  0.56677  Biso   1.000  H
  H134     1.0000 0.86397  0.70033  0.51359  Biso   1.000  H
  O32      1.0000 0.91671  0.82944  0.49741  Biso   1.000  O
  H135     1.0000 0.58646  0.68844  0.99590  Biso   1.000  H
  H136     1.0000 0.58482  0.63644  0.06579  Biso   1.000  H
  C139     1.0000 0.66793  0.73068  0.08405  Biso   1.000  C
  C140     1.0000 0.92764  0.30588  0.31569  Biso   1.000  C
  C141     1.0000 0.90365  0.24190  0.19636  Biso   1.000  C
  H137     1.0000 0.64540  0.63005  0.26912  Biso   1.000  H
  H138     1.0000 0.60351  0.52090  0.22808  Biso   1.000  H
  H139     1.0000 0.57191  0.61869  0.25847  Biso   1.000  H
  C142     1.0000 0.91204  0.81835  0.42843  Biso   1.000  C
  H140     1.0000 0.67769  0.75552  0.13248  Biso   1.000  H
  H141     1.0000 0.69301  0.65951  0.08559  Biso   1.000  H
  O33      1.0000 0.68455  0.82243  0.04657  Biso   1.000  O
  C143     1.0000 0.95684  0.19762  0.34023  Biso   1.000  C
  O34      1.0000 0.92330  0.39755  0.35748  Biso   1.000  O
  H142     1.0000 0.88582  0.25708  0.14771  Biso   1.000  H
  C144     1.0000 0.93384  0.13240  0.22100  Biso   1.000  C
  C145     1.0000 0.88109  0.72509  0.38143  Biso   1.000  C
  C146     1.0000 0.94614  0.90203  0.40762  Biso   1.000  C
  C147     1.0000 0.74692  0.86902  0.07761  Biso   1.000  C
  C148     1.0000 0.95987  0.10844  0.29408  Biso   1.000  C
  H143     1.0000 0.97507  0.18333  0.38899  Biso   1.000  H
  C149     1.0000 0.97121  0.40500  0.42806  Biso   1.000  C
  C150     1.0000 0.93525  0.04481  0.16532  Biso   1.000  C
  C151     1.0000 0.88345  0.72411  0.31505  Biso   1.000  C
  O35      1.0000 0.85108  0.63848  0.40490  Biso   1.000  O
  H144     1.0000 0.96749  0.96246  0.43929  Biso   1.000  H
  C152     1.0000 0.95012  0.90043  0.34172  Biso   1.000  C
  C153     1.0000 0.75838  0.97160  0.04641  Biso   1.000  C
  C154     1.0000 0.79829  0.81826  0.13445  Biso   1.000  C
  C155     1.0000 0.99330  0.99255  0.32687  Biso   1.000  C
  H145     1.0000 0.98070  0.32691  0.44839  Biso   1.000  H
  H146     1.0000 0.95500  0.45363  0.45579  Biso   1.000  H
  H147     1.0000 0.01061  0.43944  0.42790  Biso   1.000  H
  C156     1.0000 0.87147  0.97498  0.13328  Biso   1.000  C
  H148     1.0000 0.94211  0.08750  0.12791  Biso   1.000  H
  H149     1.0000 0.97159  0.99033  0.18709  Biso   1.000  H
  C157     1.0000 0.91655  0.81019  0.29360  Biso   1.000  C
  H150     1.0000 0.86201  0.66350  0.28349  Biso   1.000  H
  C158     1.0000 0.80279  0.56678  0.35210  Biso   1.000  C
  C159     1.0000 0.81945  0.02369  0.07478  Biso   1.000  C
  O36      1.0000 0.70963  0.01828  0.98536  Biso   1.000  O
  H151     1.0000 0.79081  0.74913  0.15479  Biso   1.000  H
  C160     1.0000 0.86133  0.86831  0.16213  Biso   1.000  C
  H152     1.0000 0.01101  0.95732  0.29520  Biso   1.000  H
  H153     1.0000 0.03009  0.01047  0.37132  Biso   1.000  H
  C161     1.0000 0.91611  0.80007  0.21994  Biso   1.000  C
  H154     1.0000 0.77258  0.61682  0.31580  Biso   1.000  H
  H155     1.0000 0.77938  0.52108  0.37376  Biso   1.000  H
  H156     1.0000 0.82400  0.51407  0.33118  Biso   1.000  H
  H157     1.0000 0.82640  0.09344  0.05451  Biso   1.000  H
  C162     1.0000 0.65883  0.07880  0.99760  Biso   1.000  C
  H158     1.0000 0.91230  0.71692  0.20668  Biso   1.000  H
  H159     1.0000 0.95788  0.82829  0.22180  Biso   1.000  H
  H160     1.0000 0.63940  0.02582  0.02017  Biso   1.000  H
  H161     1.0000 0.67711  0.14598  0.02789  Biso   1.000  H
  H162     1.0000 0.62594  0.10507  0.95300  Biso   1.000  H
  C163     1.0000 0.38225  0.71781  0.70085  Biso   1.000  C
  C164     1.0000 0.33804  0.80894  0.64996  Biso   1.000  C
  C165     1.0000 0.37675  0.70982  0.77244  Biso   1.000  C
  H163     1.0000 0.37215  0.64061  0.67817  Biso   1.000  H
  H164     1.0000 0.42739  0.73627  0.70947  Biso   1.000  H
  C166     1.0000 0.27645  0.77159  0.60099  Biso   1.000  C
  C167     1.0000 0.35518  0.92848  0.65028  Biso   1.000  C
  C168     1.0000 0.42422  0.75437  0.83594  Biso   1.000  C
  C169     1.0000 0.32388  0.64744  0.77585  Biso   1.000  C
  C170     1.0000 0.23175  0.84941  0.55506  Biso   1.000  C
  H165     1.0000 0.26540  0.69172  0.59940  Biso   1.000  H
  C171     1.0000 0.30897  0.00728  0.60429  Biso   1.000  C
  C172     1.0000 0.42414  0.97409  0.69483  Biso   1.000  C
  C173     1.0000 0.47775  0.83991  0.83876  Biso   1.000  C
  C174     1.0000 0.42143  0.72313  0.90056  Biso   1.000  C
  C175     1.0000 0.32009  0.61904  0.83935  Biso   1.000  C
  H166     1.0000 0.28988  0.62419  0.73358  Biso   1.000  H
  O37      1.0000 0.17344  0.80611  0.50380  Biso   1.000  O
  C176     1.0000 0.24732  0.96956  0.55793  Biso   1.000  C
  H167     1.0000 0.31987  0.08696  0.60488  Biso   1.000  H
  H168     1.0000 0.45456  0.90842  0.70420  Biso   1.000  H
  H169     1.0000 0.43570  0.03212  0.66689  Biso   1.000  H
  C177     1.0000 0.43352  0.03026  0.76515  Biso   1.000  C
  C178     1.0000 0.45532  0.96885  0.82987  Biso   1.000  C
  H170     1.0000 0.51494  0.83095  0.88406  Biso   1.000  H
  H171     1.0000 0.49217  0.81968  0.80150  Biso   1.000  H
  H172     1.0000 0.45378  0.75091  0.94287  Biso   1.000  H
  C179     1.0000 0.37193  0.65205  0.90327  Biso   1.000  C
  O38      1.0000 0.26821  0.55098  0.83855  Biso   1.000  O
  C180     1.0000 0.11715  0.83228  0.51769  Biso   1.000  C
  O39      1.0000 0.19977  0.04126  0.51061  Biso   1.000  O
  C181     1.0000 0.41947  0.15077  0.76467  Biso   1.000  C
  C182     1.0000 0.45648  0.02964  0.88981  Biso   1.000  C
  O40      1.0000 0.36983  0.60866  0.96470  Biso   1.000  O
  C183     1.0000 0.23182  0.60272  0.87586  Biso   1.000  C
  H173     1.0000 0.11120  0.91667  0.51737  Biso   1.000  H
  H174     1.0000 0.07908  0.79670  0.48160  Biso   1.000  H
  H175     1.0000 0.12315  0.80122  0.56336  Biso   1.000  H
  C184     1.0000 0.20111  0.16488  0.52738  Biso   1.000  C
  H176     1.0000 0.40597  0.19212  0.72187  Biso   1.000  H
  C185     1.0000 0.42474  0.21147  0.82513  Biso   1.000  C
  H177     1.0000 0.46856  0.98811  0.93239  Biso   1.000  H
  C186     1.0000 0.44044  0.14828  0.88879  Biso   1.000  C
  C187     1.0000 0.42810  0.62117  0.02825  Biso   1.000  C
  H178     1.0000 0.25567  0.59260  0.92680  Biso   1.000  H
  H179     1.0000 0.22547  0.68693  0.86569  Biso   1.000  H
  C188     1.0000 0.16684  0.54069  0.85095  Biso   1.000  C
  H180     1.0000 0.21087  0.17526  0.57747  Biso   1.000  H
  H181     1.0000 0.23448  0.20552  0.51668  Biso   1.000  H
  C189     1.0000 0.13440  0.21377  0.48261  Biso   1.000  C
  O41      1.0000 0.41732  0.33224  0.82753  Biso   1.000  O
  O42      1.0000 0.44625  0.19744  0.95277  Biso   1.000  O
  H182     1.0000 0.43650  0.70388  0.03948  Biso   1.000  H
  H183     1.0000 0.42242  0.58151  0.06679  Biso   1.000  H
  H184     1.0000 0.46451  0.58683  0.02128  Biso   1.000  H
  H185     1.0000 0.14339  0.56828  0.87889  Biso   1.000  H
  H186     1.0000 0.17426  0.45621  0.85920  Biso   1.000  H
  O43      1.0000 0.12699  0.56030  0.77718  Biso   1.000  O
  H187     1.0000 0.12336  0.19345  0.43317  Biso   1.000  H
  H188     1.0000 0.13599  0.29967  0.48639  Biso   1.000  H
  O44      1.0000 0.08323  0.17047  0.50252  Biso   1.000  O
  C190     1.0000 0.39751  0.39578  0.76270  Biso   1.000  C
  C191     1.0000 0.40429  0.29373  0.95474  Biso   1.000  C
  C192     1.0000 0.10030  0.67175  0.75769  Biso   1.000  C
  C193     1.0000 0.08791  0.18165  0.57156  Biso   1.000  C
  H189     1.0000 0.35455  0.36995  0.73087  Biso   1.000  H
  H190     1.0000 0.39649  0.47910  0.77191  Biso   1.000  H
  H191     1.0000 0.42807  0.38131  0.74146  Biso   1.000  H
  H192     1.0000 0.41518  0.36356  0.93420  Biso   1.000  H
  C194     1.0000 0.33207  0.26932  0.91594  Biso   1.000  C
  H193     1.0000 0.41354  0.31156  0.00409  Biso   1.000  H
  C195     1.0000 0.07231  0.69403  0.68429  Biso   1.000  C
  C196     1.0000 0.09630  0.75810  0.80363  Biso   1.000  C
  C197     1.0000 0.11891  0.27491  0.61856  Biso   1.000  C
  C198     1.0000 0.05384  0.09797  0.59232  Biso   1.000  C
  H194     1.0000 0.32226  0.24448  0.86750  Biso   1.000  H
  H195     1.0000 0.30699  0.34049  0.91440  Biso   1.000  H
  O45      1.0000 0.31545  0.17757  0.95341  Biso   1.000  O
  C199     1.0000 0.04312  0.80238  0.65976  Biso   1.000  C
  O46      1.0000 0.07670  0.60245  0.64251  Biso   1.000  O
  C200     1.0000 0.06612  0.86760  0.77899  Biso   1.000  C
  H196     1.0000 0.11418  0.74292  0.85228  Biso   1.000  H
  C201     1.0000 0.11654  0.27580  0.68493  Biso   1.000  C
  O47      1.0000 0.14892  0.36152  0.59508  Biso   1.000  O
  H197     1.0000 0.03247  0.03745  0.56070  Biso   1.000  H
  C202     1.0000 0.04983  0.09948  0.65827  Biso   1.000  C
  C203     1.0000 0.25302  0.13098  0.92233  Biso   1.000  C
  C204     1.0000 0.04009  0.89147  0.70590  Biso   1.000  C
  H198     1.0000 0.02488  0.81667  0.61100  Biso   1.000  H
  C205     1.0000 0.02875  0.59500  0.57193  Biso   1.000  C
  C206     1.0000 0.06469  0.95519  0.83461  Biso   1.000  C
  C207     1.0000 0.08341  0.18981  0.70638  Biso   1.000  C
  H199     1.0000 0.13799  0.33650  0.71650  Biso   1.000  H
  C208     1.0000 0.19716  0.43322  0.64789  Biso   1.000  C
  C209     1.0000 0.00665  0.00745  0.67312  Biso   1.000  C
  C210     1.0000 0.20169  0.18174  0.86548  Biso   1.000  C
  C211     1.0000 0.24157  0.02831  0.95357  Biso   1.000  C
  H200     1.0000 0.01929  0.67309  0.55160  Biso   1.000  H
  H201     1.0000 0.04500  0.54637  0.54420  Biso   1.000  H
  H202     1.0000 0.98939  0.56056  0.57209  Biso   1.000  H
  C212     1.0000 0.12846  0.02502  0.86665  Biso   1.000  C
  H203     1.0000 0.05789  0.91250  0.87208  Biso   1.000  H
  H204     1.0000 0.02837  0.00967  0.81289  Biso   1.000  H
  C213     1.0000 0.08387  0.19993  0.78000  Biso   1.000  C
  H205     1.0000 0.22737  0.38318  0.68419  Biso   1.000  H
  H206     1.0000 0.22055  0.47884  0.62617  Biso   1.000  H
  H207     1.0000 0.17599  0.48585  0.66880  Biso   1.000  H
  H208     1.0000 0.96987  0.98944  0.62867  Biso   1.000  H
  H209     1.0000 0.98899  0.04268  0.70479  Biso   1.000  H
  C214     1.0000 0.13864  0.13160  0.83780  Biso   1.000  C
  H210     1.0000 0.20918  0.25087  0.84520  Biso   1.000  H
  C215     1.0000 0.18055  0.97622  0.92520  Biso   1.000  C
  O48      1.0000 0.29033  0.98172  0.01462  Biso   1.000  O
  H211     1.0000 0.08770  0.28308  0.79330  Biso   1.000  H
  H212     1.0000 0.04207  0.17171  0.77819  Biso   1.000  H
  H213     1.0000 0.17356  0.90656  0.94548  Biso   1.000  H
  C216     1.0000 0.34110  0.92120  0.00233  Biso   1.000  C
  H214     1.0000 0.36058  0.97418  0.97976  Biso   1.000  H
  H215     1.0000 0.32289  0.85402  0.97210  Biso   1.000  H
  H216     1.0000 0.37402  0.89484  0.04699  Biso   1.000  H
  Ne1      1.0000 0.24315  0.54133  0.25687  Biso   1.000  Ne
  He1      1.0000 0.42971  0.60677  0.46977  Biso   1.000  He
  He2      1.0000 0.24476  0.67584  0.40786  Biso   1.000  He
  He3      1.0000 0.24810  0.21348  0.27372  Biso   1.000  He
  He4      1.0000 0.19265  0.82681  0.15674  Biso   1.000  He
  He5      1.0000 0.28648  0.28271  0.18589  Biso   1.000  He
  He6      1.0000 0.04425  0.60287  0.05768  Biso   1.000  He
  Ar1      1.0000 0.22374  0.55516  0.23680  Biso   1.000  Ar
  Ne2      1.0000 0.75682  0.45864  0.74310  Biso   1.000  Ne
  He7      1.0000 0.95439  0.39768  0.94083  Biso   1.000  He
  He8      1.0000 0.80628  0.20947  0.82957  Biso   1.000  He
  He9      1.0000 0.71193  0.71812  0.81642  Biso   1.000  He
  He10     1.0000 0.75149  0.86260  0.70812  Biso   1.000  He
  He11     1.0000 0.75546  0.32271  0.59072  Biso   1.000  He
  He12     1.0000 0.59543  0.40584  0.56129  Biso   1.000  He
  Ar2      1.0000 0.77162  0.44874  0.76188  Biso   1.000  Ar
  Ne3      1.0000 0.75683  0.04135  0.24311  Biso   1.000  Ne
  He13     1.0000 0.95372  0.10198  0.44007  Biso   1.000  He
  He14     1.0000 0.80766  0.31224  0.33805  Biso   1.000  He
  He15     1.0000 0.75341  0.73322  0.23174  Biso   1.000  He
  He16     1.0000 0.75604  0.18078  0.08731  Biso   1.000  He
  He17     1.0000 0.59221  0.09476  0.05780  Biso   1.000  He
  Ar3      1.0000 0.75498  0.04481  0.24765  Biso   1.000  Ar
  Ne4      1.0000 0.24314  0.95863  0.75686  Biso   1.000  Ne
  He18     1.0000 0.24101  0.79594  0.93420  Biso   1.000  He
  He19     1.0000 0.40851  0.90507  0.94301  Biso   1.000  He
  He20     1.0000 0.31767  0.28543  0.62152  Biso   1.000  He
  He21     1.0000 0.19502  0.60159  0.63716  Biso   1.000  He
  He22     1.0000 0.05498  0.90178  0.56971  Biso   1.000  He
  Ar4      1.0000 0.22371  0.94493  0.73675  Biso   1.000  Ar
