data_image0
_cell_length_a       15.333
_cell_length_b       31.7
_cell_length_c       15.54
_cell_angle_alpha    90
_cell_angle_beta     102.46
_cell_angle_gamma    90

_symmetry_space_group_name_H-M    "P 1"
_symmetry_int_tables_number       1

loop_
  _symmetry_equiv_pos_as_xyz
  'x, y, z'

loop_
  _atom_site_label
  _atom_site_occupancy
  _atom_site_fract_x
  _atom_site_fract_y
  _atom_site_fract_z
  _atom_site_thermal_displace_type
  _atom_site_B_iso_or_equiv
  _atom_site_type_symbol
  O1       1.0000 0.47979  0.59350  0.42309  Biso   1.000  O
  C1       1.0000 0.45393  0.63180  0.46171  Biso   1.000  C
  C2       1.0000 0.48144  0.67079  0.41782  Biso   1.000  C
  H1       1.0000 0.48264  0.63230  0.52590  Biso   1.000  H
  C3       1.0000 0.35213  0.63319  0.45071  Biso   1.000  C
  O2       1.0000 0.45823  0.70760  0.45993  Biso   1.000  O
  O3       1.0000 0.44492  0.67060  0.32628  Biso   1.000  O
  H2       1.0000 0.54790  0.67032  0.42619  Biso   1.000  H
  O4       1.0000 0.32264  0.59681  0.49690  Biso   1.000  O
  H3       1.0000 0.32230  0.63259  0.38678  Biso   1.000  H
  C4       1.0000 0.33044  0.67401  0.49203  Biso   1.000  C
  C5       1.0000 0.36222  0.71170  0.44972  Biso   1.000  C
  C6       1.0000 0.50125  0.67479  0.26532  Biso   1.000  C
  O5       1.0000 0.23250  0.67681  0.47509  Biso   1.000  O
  H4       1.0000 0.35641  0.67391  0.55681  Biso   1.000  H
  H5       1.0000 0.33252  0.71281  0.38579  Biso   1.000  H
  C7       1.0000 0.34693  0.75211  0.49433  Biso   1.000  C
  C8       1.0000 0.48194  0.63811  0.19909  Biso   1.000  C
  H6       1.0000 0.56511  0.67350  0.29761  Biso   1.000  H
  C9       1.0000 0.48371  0.71631  0.22090  Biso   1.000  C
  C10      1.0000 0.19182  0.68069  0.55450  Biso   1.000  C
  O6       1.0000 0.38221  0.75259  0.58561  Biso   1.000  O
  H7       1.0000 0.37401  0.77549  0.46698  Biso   1.000  H
  H8       1.0000 0.28182  0.75741  0.48379  Biso   1.000  H
  O7       1.0000 0.50850  0.59950  0.24839  Biso   1.000  O
  C11      1.0000 0.52780  0.64451  0.12521  Biso   1.000  C
  H9       1.0000 0.41607  0.63691  0.17438  Biso   1.000  H
  O8       1.0000 0.52452  0.71981  0.14419  Biso   1.000  O
  H10      1.0000 0.41774  0.71729  0.19692  Biso   1.000  H
  C12      1.0000 0.50491  0.75429  0.27613  Biso   1.000  C
  O9       1.0000 0.15062  0.72120  0.55101  Biso   1.000  O
  H11      1.0000 0.23893  0.67779  0.60979  Biso   1.000  H
  C13      1.0000 0.12321  0.64379  0.54673  Biso   1.000  C
  O10      1.0000 0.51203  0.61240  0.06261  Biso   1.000  O
  C14      1.0000 0.50632  0.68621  0.08719  Biso   1.000  C
  H12      1.0000 0.59338  0.64438  0.15131  Biso   1.000  H
  O11      1.0000 0.60121  0.75779  0.30908  Biso   1.000  O
  H13      1.0000 0.48272  0.77968  0.24087  Biso   1.000  H
  H14      1.0000 0.47479  0.75281  0.32628  Biso   1.000  H
  C15      1.0000 0.08002  0.72890  0.47061  Biso   1.000  C
  O12      1.0000 0.16462  0.60470  0.55061  Biso   1.000  O
  H15      1.0000 0.09258  0.64590  0.59727  Biso   1.000  H
  C16      1.0000 0.05378  0.65189  0.46158  Biso   1.000  C
  O13      1.0000 0.41502  0.68719  0.04251  Biso   1.000  O
  H16      1.0000 0.54258  0.69032  0.04158  Biso   1.000  H
  C17      1.0000 0.01289  0.69410  0.45921  Biso   1.000  C
  H17      1.0000 0.10771  0.73000  0.41802  Biso   1.000  H
  C18      1.0000 0.04288  0.77120  0.48511  Biso   1.000  C
  H18      1.0000 0.08411  0.64950  0.41090  Biso   1.000  H
  O14      1.0000 0.98494  0.61789  0.45308  Biso   1.000  O
  C19      1.0000 0.38724  0.69940  0.95183  Biso   1.000  C
  O15      1.0000 0.95512  0.69940  0.37189  Biso   1.000  O
  H19      1.0000 0.97682  0.69621  0.50540  Biso   1.000  H
  H20      1.0000 0.09211  0.79199  0.49789  Biso   1.000  H
  H21      1.0000 0.00083  0.78019  0.43061  Biso   1.000  H
  O16      1.0000 0.99690  0.77069  0.55727  Biso   1.000  O
  C20      1.0000 0.33562  0.66300  0.90009  Biso   1.000  C
  H22      1.0000 0.44192  0.70461  0.92810  Biso   1.000  H
  C21      1.0000 0.33341  0.73909  0.94187  Biso   1.000  C
  C22      1.0000 0.86359  0.71259  0.36490  Biso   1.000  C
  O17      1.0000 0.38771  0.62571  0.90747  Biso   1.000  O
  C23      1.0000 0.30032  0.67729  0.80697  Biso   1.000  C
  H23      1.0000 0.28304  0.65700  0.92658  Biso   1.000  H
  O18      1.0000 0.30415  0.74968  0.85343  Biso   1.000  O
  H24      1.0000 0.27989  0.73451  0.96797  Biso   1.000  H
  C24      1.0000 0.38651  0.77521  0.98939  Biso   1.000  C
  O19      1.0000 0.85081  0.75199  0.32582  Biso   1.000  O
  H25      1.0000 0.85252  0.71498  0.42579  Biso   1.000  H
  C25      1.0000 0.80309  0.67741  0.31640  Biso   1.000  C
  O20      1.0000 0.24871  0.64498  0.75379  Biso   1.000  O
  C26      1.0000 0.25380  0.71871  0.80032  Biso   1.000  C
  H26      1.0000 0.35405  0.68180  0.78127  Biso   1.000  H
  H27      1.0000 0.41392  0.76631  0.05028  Biso   1.000  H
  O21      1.0000 0.44903  0.78811  0.95077  Biso   1.000  O
  H28      1.0000 0.34571  0.79899  0.99308  Biso   1.000  H
  O22      1.0000 0.33575  0.81221  0.99077  Biso   1.000  O
  C27      1.0000 0.85865  0.75230  0.23521  Biso   1.000  C
  O23      1.0000 0.81883  0.63950  0.36062  Biso   1.000  O
  H29      1.0000 0.74059  0.68562  0.31837  Biso   1.000  H
  C28      1.0000 0.80721  0.67729  0.22130  Biso   1.000  C
  O24      1.0000 0.17155  0.71091  0.83103  Biso   1.000  O
  H30      1.0000 0.23915  0.72830  0.73751  Biso   1.000  H
  C29      1.0000 0.79672  0.72161  0.18018  Biso   1.000  C
  H31      1.0000 0.92079  0.74319  0.23428  Biso   1.000  H
  C30      1.0000 0.84900  0.79571  0.20272  Biso   1.000  C
  O25      1.0000 0.74942  0.64770  0.17207  Biso   1.000  O
  H32      1.0000 0.86900  0.66789  0.21932  Biso   1.000  H
  C31      1.0000 0.08903  0.72230  0.77040  Biso   1.000  C
  O26      1.0000 0.80590  0.71940  0.09239  Biso   1.000  O
  H33      1.0000 0.73431  0.73110  0.17932  Biso   1.000  H
  O27      1.0000 0.91871  0.82350  0.25188  Biso   1.000  O
  H34      1.0000 0.78982  0.80669  0.20739  Biso   1.000  H
  H35      1.0000 0.85182  0.79599  0.13958  Biso   1.000  H
  C32      1.0000 0.02802  0.68461  0.77382  Biso   1.000  C
  H36      1.0000 0.09894  0.72659  0.70950  Biso   1.000  H
  C33      1.0000 0.05871  0.76259  0.80618  Biso   1.000  C
  C34      1.0000 0.73602  0.73429  0.02340  Biso   1.000  C
  C35      1.0000 0.93323  0.69631  0.72031  Biso   1.000  C
  O28      1.0000 0.05925  0.64950  0.73323  Biso   1.000  O
  H37      1.0000 0.02602  0.67779  0.83623  Biso   1.000  H
  O29      1.0000 0.96321  0.77120  0.75570  Biso   1.000  O
  H38      1.0000 0.06021  0.75950  0.87063  Biso   1.000  H
  C36      1.0000 0.11144  0.79981  0.79083  Biso   1.000  C
  O30      1.0000 0.75772  0.77180  0.98721  Biso   1.000  O
  C37      1.0000 0.71112  0.69921  0.95367  Biso   1.000  C
  H39      1.0000 0.68262  0.73968  0.04910  Biso   1.000  H
  O31      1.0000 0.86911  0.66369  0.71431  Biso   1.000  O
  C38      1.0000 0.90606  0.73621  0.76097  Biso   1.000  C
  H40      1.0000 0.93871  0.70331  0.65889  Biso   1.000  H
  O32      1.0000 0.11881  0.80271  0.69869  Biso   1.000  O
  H41      1.0000 0.08254  0.82571  0.80691  Biso   1.000  H
  H42      1.0000 0.17189  0.79801  0.82898  Biso   1.000  H
  C39      1.0000 0.83212  0.76691  0.94570  Biso   1.000  C
  O33      1.0000 0.68276  0.66161  0.99130  Biso   1.000  O
  H43      1.0000 0.66115  0.70940  0.90589  Biso   1.000  H
  C40      1.0000 0.79426  0.69101  0.91360  Biso   1.000  C
  O34      1.0000 0.90085  0.72659  0.84691  Biso   1.000  O
  H44      1.0000 0.84460  0.74391  0.72809  Biso   1.000  H
  C41      1.0000 0.81881  0.73189  0.87828  Biso   1.000  C
  H45      1.0000 0.88662  0.76050  0.99209  Biso   1.000  H
  C42      1.0000 0.84294  0.80968  0.90780  Biso   1.000  C
  O35      1.0000 0.77536  0.66139  0.84539  Biso   1.000  O
  H46      1.0000 0.84490  0.68069  0.96059  Biso   1.000  H
  H47      1.0000 0.77012  0.74032  0.82740  Biso   1.000  H
  O36      1.0000 0.77445  0.82069  0.83498  Biso   1.000  O
  H48      1.0000 0.84502  0.83110  0.95459  Biso   1.000  H
  H49      1.0000 0.90083  0.81060  0.88948  Biso   1.000  H
  O37      1.0000 0.36909  0.51498  0.43851  Biso   1.000  O
  C43      1.0000 0.29508  0.48470  0.41980  Biso   1.000  C
  C44      1.0000 0.32933  0.44259  0.38823  Biso   1.000  C
  C45      1.0000 0.25371  0.47681  0.50198  Biso   1.000  C
  H50      1.0000 0.24748  0.49621  0.37123  Biso   1.000  H
  C46      1.0000 0.25360  0.41050  0.37472  Biso   1.000  C
  O38      1.0000 0.34978  0.45079  0.30308  Biso   1.000  O
  H51      1.0000 0.38301  0.43199  0.43120  Biso   1.000  H
  C47      1.0000 0.18582  0.44341  0.48142  Biso   1.000  C
  O39      1.0000 0.22670  0.51479  0.53150  Biso   1.000  O
  H52      1.0000 0.30271  0.46571  0.54982  Biso   1.000  H
  C48      1.0000 0.28399  0.36839  0.35383  Biso   1.000  C
  O40      1.0000 0.21774  0.40631  0.45321  Biso   1.000  O
  H53      1.0000 0.20481  0.42009  0.32490  Biso   1.000  H
  C49      1.0000 0.43991  0.44110  0.29261  Biso   1.000  C
  O41      1.0000 0.11538  0.45968  0.41729  Biso   1.000  O
  H54      1.0000 0.16300  0.43729  0.53572  Biso   1.000  H
  O42      1.0000 0.20850  0.33909  0.32569  Biso   1.000  O
  H55      1.0000 0.32511  0.35681  0.40649  Biso   1.000  H
  H56      1.0000 0.31752  0.37101  0.30618  Biso   1.000  H
  O43      1.0000 0.43589  0.40830  0.23132  Biso   1.000  O
  H57      1.0000 0.47731  0.43211  0.35060  Biso   1.000  H
  C50      1.0000 0.47782  0.48000  0.26288  Biso   1.000  C
  C51      1.0000 0.02668  0.46221  0.43608  Biso   1.000  C
  C52      1.0000 0.39220  0.41770  0.14393  Biso   1.000  C
  O44      1.0000 0.48122  0.51429  0.32437  Biso   1.000  O
  H58      1.0000 0.54080  0.47350  0.25952  Biso   1.000  H
  C53      1.0000 0.43003  0.49319  0.17319  Biso   1.000  C
  H59      1.0000 0.03138  0.45830  0.50079  Biso   1.000  H
  C54      1.0000 0.99239  0.50640  0.40991  Biso   1.000  C
  C55      1.0000 0.96782  0.42681  0.38579  Biso   1.000  C
  C56      1.0000 0.42639  0.45609  0.11058  Biso   1.000  C
  H60      1.0000 0.32710  0.42161  0.14209  Biso   1.000  H
  C57      1.0000 0.40358  0.37820  0.08890  Biso   1.000  C
  O45      1.0000 0.46952  0.52931  0.14380  Biso   1.000  O
  H61      1.0000 0.36727  0.50060  0.17609  Biso   1.000  H
  O46      1.0000 0.04294  0.53609  0.46211  Biso   1.000  O
  C58      1.0000 0.89190  0.50640  0.41828  Biso   1.000  C
  H62      1.0000 0.99510  0.51161  0.34711  Biso   1.000  H
  O47      1.0000 0.87341  0.43379  0.38711  Biso   1.000  O
  H63      1.0000 0.97391  0.42760  0.32299  Biso   1.000  H
  C59      1.0000 0.99182  0.38271  0.42072  Biso   1.000  C
  O48      1.0000 0.37750  0.46760  0.02392  Biso   1.000  O
  H64      1.0000 0.48910  0.45009  0.10571  Biso   1.000  H
  O49      1.0000 0.49582  0.37331  0.08093  Biso   1.000  O
  H65      1.0000 0.38481  0.35290  0.11731  Biso   1.000  H
  H66      1.0000 0.36461  0.38079  0.02939  Biso   1.000  H
  O50      1.0000 0.36101  0.33700  0.12001  Biso   1.000  O
  O51      1.0000 0.85704  0.54779  0.39818  Biso   1.000  O
  C60      1.0000 0.84259  0.47360  0.36339  Biso   1.000  C
  H67      1.0000 0.89035  0.50019  0.48102  Biso   1.000  H
  H68      1.0000 0.05373  0.37590  0.41630  Biso   1.000  H
  O52      1.0000 0.98435  0.38060  0.50883  Biso   1.000  O
  H69      1.0000 0.95125  0.36189  0.38520  Biso   1.000  H
  C61      1.0000 0.41272  0.46060  0.94879  Biso   1.000  C
  O53      1.0000 0.84054  0.48259  0.27172  Biso   1.000  O
  H70      1.0000 0.77960  0.47489  0.37123  Biso   1.000  H
  O54      1.0000 0.36964  0.42909  0.89192  Biso   1.000  O
  H71      1.0000 0.47653  0.45189  0.96949  Biso   1.000  H
  C62      1.0000 0.41175  0.50221  0.89693  Biso   1.000  C
  C63      1.0000 0.75484  0.48779  0.21293  Biso   1.000  C
  C64      1.0000 0.27690  0.43931  0.85587  Biso   1.000  C
  O55      1.0000 0.45906  0.53539  0.95578  Biso   1.000  O
  H72      1.0000 0.44064  0.49801  0.84559  Biso   1.000  H
  C65      1.0000 0.31003  0.51609  0.86332  Biso   1.000  C
  C66      1.0000 0.75585  0.53041  0.17161  Biso   1.000  C
  H73      1.0000 0.70629  0.48640  0.24680  Biso   1.000  H
  C67      1.0000 0.74175  0.45401  0.14472  Biso   1.000  C
  C68      1.0000 0.26330  0.48032  0.80948  Biso   1.000  C
  H74      1.0000 0.24599  0.44079  0.90629  Biso   1.000  H
  C69      1.0000 0.24145  0.40120  0.80170  Biso   1.000  C
  O56      1.0000 0.30451  0.55391  0.81837  Biso   1.000  O
  H75      1.0000 0.28289  0.52000  0.91578  Biso   1.000  H
  O57      1.0000 0.75829  0.56391  0.23053  Biso   1.000  O
  C70      1.0000 0.67329  0.53549  0.09648  Biso   1.000  C
  H76      1.0000 0.81010  0.53221  0.14591  Biso   1.000  H
  O58      1.0000 0.66463  0.46009  0.07269  Biso   1.000  O
  H77      1.0000 0.79632  0.45281  0.11928  Biso   1.000  H
  C71      1.0000 0.72900  0.41139  0.18367  Biso   1.000  C
  O59      1.0000 0.16843  0.49019  0.78898  Biso   1.000  O
  H78      1.0000 0.28502  0.47820  0.75339  Biso   1.000  H
  O60      1.0000 0.26720  0.40009  0.71992  Biso   1.000  O
  H79      1.0000 0.26345  0.37539  0.83551  Biso   1.000  H
  H80      1.0000 0.17544  0.40120  0.79122  Biso   1.000  H
  O61      1.0000 0.67188  0.57562  0.05219  Biso   1.000  O
  C72      1.0000 0.66653  0.49801  0.03368  Biso   1.000  C
  H81      1.0000 0.61969  0.53461  0.12337  Biso   1.000  H
  O62      1.0000 0.65179  0.40940  0.21978  Biso   1.000  O
  H82      1.0000 0.72453  0.38959  0.13727  Biso   1.000  H
  H83      1.0000 0.78211  0.40479  0.23059  Biso   1.000  H
  C73      1.0000 0.12262  0.49319  0.69883  Biso   1.000  C
  O63      1.0000 0.74242  0.50230  0.99031  Biso   1.000  O
  H84      1.0000 0.61010  0.50110  0.98768  Biso   1.000  H
  O64      1.0000 0.06231  0.45899  0.67800  Biso   1.000  O
  H85      1.0000 0.16834  0.49000  0.66212  Biso   1.000  H
  C74      1.0000 0.08339  0.53319  0.68018  Biso   1.000  C
  C75      1.0000 0.72286  0.50470  0.89429  Biso   1.000  C
  C76      1.0000 0.98662  0.46019  0.72347  Biso   1.000  C
  O65      1.0000 0.14482  0.56789  0.70100  Biso   1.000  O
  H86      1.0000 0.05645  0.53438  0.61572  Biso   1.000  H
  C77      1.0000 0.00391  0.53751  0.73217  Biso   1.000  C
  C78      1.0000 0.76122  0.54410  0.86483  Biso   1.000  C
  H87      1.0000 0.65655  0.50498  0.87202  Biso   1.000  H
  C79      1.0000 0.76124  0.46470  0.85923  Biso   1.000  C
  C80      1.0000 0.94631  0.50240  0.71240  Biso   1.000  C
  C81      1.0000 0.93086  0.42300  0.68861  Biso   1.000  C
  H88      1.0000 0.01115  0.45549  0.78793  Biso   1.000  H
  O66      1.0000 0.95891  0.57779  0.70858  Biso   1.000  O
  H89      1.0000 0.03033  0.53751  0.79689  Biso   1.000  H
  O67      1.0000 0.72175  0.58180  0.89581  Biso   1.000  O
  C82      1.0000 0.75204  0.54511  0.76618  Biso   1.000  C
  H90      1.0000 0.82653  0.54429  0.89238  Biso   1.000  H
  O68      1.0000 0.75163  0.46681  0.76730  Biso   1.000  O
  H91      1.0000 0.82600  0.46211  0.88757  Biso   1.000  H
  C83      1.0000 0.71735  0.42760  0.87360  Biso   1.000  C
  O69      1.0000 0.88434  0.50511  0.77231  Biso   1.000  O
  H92      1.0000 0.91142  0.50521  0.65039  Biso   1.000  H
  O70      1.0000 0.88735  0.42760  0.59760  Biso   1.000  O
  H93      1.0000 0.96913  0.39751  0.69540  Biso   1.000  H
  H94      1.0000 0.88506  0.41880  0.72400  Biso   1.000  H
  O71      1.0000 0.78914  0.58230  0.73870  Biso   1.000  O
  C84      1.0000 0.78775  0.50290  0.73771  Biso   1.000  C
  H95      1.0000 0.68666  0.54580  0.73949  Biso   1.000  H
  O72      1.0000 0.61964  0.42871  0.84342  Biso   1.000  O
  H96      1.0000 0.73185  0.42129  0.93752  Biso   1.000  H
  H97      1.0000 0.74084  0.40410  0.84322  Biso   1.000  H
  H98      1.0000 0.77614  0.50211  0.67181  Biso   1.000  H
  O73      1.0000 0.79155  0.83909  0.67431  Biso   1.000  O
  C85      1.0000 0.71601  0.86839  0.64617  Biso   1.000  C
  C86      1.0000 0.74640  0.91050  0.62528  Biso   1.000  C
  H99      1.0000 0.67495  0.85681  0.59352  Biso   1.000  H
  H100     1.0000 0.68253  0.87101  0.69382  Biso   1.000  H
  O74      1.0000 0.78232  0.90631  0.54679  Biso   1.000  O
  C87      1.0000 0.67072  0.94259  0.61177  Biso   1.000  C
  H101     1.0000 0.79525  0.92009  0.67510  Biso   1.000  H
  C88      1.0000 0.81424  0.94341  0.51858  Biso   1.000  C
  O75      1.0000 0.65021  0.95079  0.69692  Biso   1.000  O
  C89      1.0000 0.70491  0.98470  0.58020  Biso   1.000  C
  H102     1.0000 0.61704  0.93199  0.56880  Biso   1.000  H
  O76      1.0000 0.88461  0.95968  0.58271  Biso   1.000  O
  H103     1.0000 0.83700  0.93729  0.46428  Biso   1.000  H
  C90      1.0000 0.74635  0.97681  0.49802  Biso   1.000  C
  C91      1.0000 0.56009  0.94110  0.70739  Biso   1.000  C
  H104     1.0000 0.75251  0.99621  0.62877  Biso   1.000  H
  O77      1.0000 0.63090  0.01502  0.56149  Biso   1.000  O
  C92      1.0000 0.97331  0.96221  0.56393  Biso   1.000  C
  H105     1.0000 0.69728  0.96571  0.45018  Biso   1.000  H
  O78      1.0000 0.77329  0.01479  0.46850  Biso   1.000  O
  O79      1.0000 0.56410  0.90830  0.76868  Biso   1.000  O
  H106     1.0000 0.52269  0.93211  0.64940  Biso   1.000  H
  C93      1.0000 0.52224  0.98000  0.73712  Biso   1.000  C
  H107     1.0000 0.96862  0.95830  0.49921  Biso   1.000  H
  C94      1.0000 0.03224  0.92681  0.61421  Biso   1.000  C
  C95      1.0000 0.00760  0.00640  0.59009  Biso   1.000  C
  C96      1.0000 0.60779  0.91770  0.85607  Biso   1.000  C
  H108     1.0000 0.45919  0.97350  0.74048  Biso   1.000  H
  C97      1.0000 0.57003  0.99319  0.82681  Biso   1.000  C
  O80      1.0000 0.51884  0.01429  0.67563  Biso   1.000  O
  O81      1.0000 0.12659  0.93379  0.61289  Biso   1.000  O
  H109     1.0000 0.02608  0.92760  0.67701  Biso   1.000  H
  C98      1.0000 0.00823  0.88271  0.57928  Biso   1.000  C
  O82      1.0000 0.95712  0.03609  0.53789  Biso   1.000  O
  C99      1.0000 0.10810  0.00640  0.58172  Biso   1.000  C
  H110     1.0000 0.00490  0.01161  0.65289  Biso   1.000  H
  C100     1.0000 0.57361  0.95609  0.88942  Biso   1.000  C
  H111     1.0000 0.67296  0.92161  0.85792  Biso   1.000  H
  C101     1.0000 0.59641  0.87820  0.91110  Biso   1.000  C
  O83      1.0000 0.53054  0.02931  0.85620  Biso   1.000  O
  H112     1.0000 0.63272  0.00060  0.82391  Biso   1.000  H
  C102     1.0000 0.15741  0.97360  0.63662  Biso   1.000  C
  H113     1.0000 0.94633  0.87590  0.58370  Biso   1.000  H
  O84      1.0000 0.01571  0.88060  0.49117  Biso   1.000  O
  H114     1.0000 0.04881  0.86189  0.61480  Biso   1.000  H
  O85      1.0000 0.14301  0.04779  0.60182  Biso   1.000  O
  H115     1.0000 0.10970  0.00019  0.51898  Biso   1.000  H
  O86      1.0000 0.62249  0.96760  0.97608  Biso   1.000  O
  H116     1.0000 0.51089  0.95009  0.89429  Biso   1.000  H
  O87      1.0000 0.50424  0.87331  0.91907  Biso   1.000  O
  H117     1.0000 0.61525  0.85290  0.88269  Biso   1.000  H
  H118     1.0000 0.63545  0.88079  0.97061  Biso   1.000  H
  O88      1.0000 0.63905  0.83700  0.87999  Biso   1.000  O
  O89      1.0000 0.15952  0.98259  0.72829  Biso   1.000  O
  H119     1.0000 0.22039  0.97489  0.62877  Biso   1.000  H
  C103     1.0000 0.58733  0.96060  0.05121  Biso   1.000  C
  C104     1.0000 0.24522  0.98779  0.78707  Biso   1.000  C
  O90      1.0000 0.63042  0.92909  0.10808  Biso   1.000  O
  H120     1.0000 0.52352  0.95189  0.03051  Biso   1.000  H
  C105     1.0000 0.58830  0.00221  0.10307  Biso   1.000  C
  H121     1.0000 0.29370  0.98640  0.75320  Biso   1.000  H
  C106     1.0000 0.25831  0.95401  0.85528  Biso   1.000  C
  C107     1.0000 0.24421  0.03041  0.82839  Biso   1.000  C
  C108     1.0000 0.72309  0.93931  0.14413  Biso   1.000  C
  H122     1.0000 0.55942  0.99801  0.15441  Biso   1.000  H
  O91      1.0000 0.54100  0.03539  0.04422  Biso   1.000  O
  C109     1.0000 0.69003  0.01609  0.13668  Biso   1.000  C
  O92      1.0000 0.33543  0.96009  0.92731  Biso   1.000  O
  H123     1.0000 0.20374  0.95281  0.88072  Biso   1.000  H
  C110     1.0000 0.27105  0.91139  0.81633  Biso   1.000  C
  O93      1.0000 0.24170  0.06391  0.76947  Biso   1.000  O
  C111     1.0000 0.32671  0.03549  0.90352  Biso   1.000  C
  H124     1.0000 0.18990  0.03221  0.85409  Biso   1.000  H
  C112     1.0000 0.73669  0.98032  0.19052  Biso   1.000  C
  H125     1.0000 0.75400  0.94079  0.09371  Biso   1.000  H
  C113     1.0000 0.75861  0.90120  0.19830  Biso   1.000  C
  O94      1.0000 0.69548  0.05391  0.18163  Biso   1.000  O
  H126     1.0000 0.71710  0.02000  0.08422  Biso   1.000  H
  C114     1.0000 0.33353  0.99801  0.96632  Biso   1.000  C
  O95      1.0000 0.34820  0.90940  0.78022  Biso   1.000  O
  H127     1.0000 0.27552  0.88959  0.86273  Biso   1.000  H
  H128     1.0000 0.21794  0.90479  0.76941  Biso   1.000  H
  O96      1.0000 0.32811  0.07562  0.94781  Biso   1.000  O
  H129     1.0000 0.38031  0.03461  0.87663  Biso   1.000  H
  O97      1.0000 0.83163  0.99019  0.21102  Biso   1.000  O
  H130     1.0000 0.71498  0.97820  0.24661  Biso   1.000  H
  O98      1.0000 0.73280  0.90009  0.28009  Biso   1.000  O
  H131     1.0000 0.73661  0.87539  0.16449  Biso   1.000  H
  H132     1.0000 0.82462  0.90120  0.20878  Biso   1.000  H
  O99      1.0000 0.25757  0.00230  0.00969  Biso   1.000  O
  H133     1.0000 0.38989  0.00110  0.01232  Biso   1.000  H
  C115     1.0000 0.87743  0.99319  0.30117  Biso   1.000  C
  C116     1.0000 0.27720  0.00470  0.10571  Biso   1.000  C
  O100     1.0000 0.93768  0.95899  0.32200  Biso   1.000  O
  H134     1.0000 0.83172  0.99000  0.33788  Biso   1.000  H
  C117     1.0000 0.91660  0.03319  0.31982  Biso   1.000  C
  C118     1.0000 0.23884  0.96470  0.14083  Biso   1.000  C
  C119     1.0000 0.23879  0.04410  0.13523  Biso   1.000  C
  H135     1.0000 0.34351  0.00498  0.12798  Biso   1.000  H
  C120     1.0000 0.01337  0.96019  0.27653  Biso   1.000  C
  O101     1.0000 0.85524  0.06789  0.29900  Biso   1.000  O
  H136     1.0000 0.94361  0.03438  0.38428  Biso   1.000  H
  C121     1.0000 0.99614  0.03751  0.26783  Biso   1.000  C
  O102     1.0000 0.24842  0.96681  0.23270  Biso   1.000  O
  H137     1.0000 0.17399  0.96211  0.11243  Biso   1.000  H
  C122     1.0000 0.28270  0.92760  0.12640  Biso   1.000  C
  O103     1.0000 0.27830  0.08180  0.10419  Biso   1.000  O
  C123     1.0000 0.24802  0.04511  0.23382  Biso   1.000  C
  H138     1.0000 0.17353  0.04429  0.10762  Biso   1.000  H
  H139     1.0000 0.98891  0.95549  0.21207  Biso   1.000  H
  C124     1.0000 0.06919  0.92300  0.31139  Biso   1.000  C
  C125     1.0000 0.05369  0.00240  0.28760  Biso   1.000  C
  H140     1.0000 0.96973  0.03751  0.20311  Biso   1.000  H
  O104     1.0000 0.04109  0.07779  0.29142  Biso   1.000  O
  C126     1.0000 0.21231  0.00290  0.26229  Biso   1.000  C
  O105     1.0000 0.38041  0.92871  0.15658  Biso   1.000  O
  H141     1.0000 0.26820  0.92129  0.06248  Biso   1.000  H
  H142     1.0000 0.25922  0.90410  0.15678  Biso   1.000  H
  O106     1.0000 0.21092  0.08230  0.26130  Biso   1.000  O
  H143     1.0000 0.31340  0.04580  0.26051  Biso   1.000  H
  O107     1.0000 0.11270  0.92760  0.40240  Biso   1.000  O
  H144     1.0000 0.03092  0.89751  0.30460  Biso   1.000  H
  H145     1.0000 0.11500  0.91880  0.27600  Biso   1.000  H
  O108     1.0000 0.11572  0.00511  0.22769  Biso   1.000  O
  H146     1.0000 0.08857  0.00521  0.34961  Biso   1.000  H
  H147     1.0000 0.22391  0.00211  0.32819  Biso   1.000  H
  C127     1.0000 0.65314  0.25211  0.50573  Biso   1.000  C
  O109     1.0000 0.61784  0.25259  0.41439  Biso   1.000  O
  C128     1.0000 0.63784  0.21170  0.55028  Biso   1.000  C
  H148     1.0000 0.62604  0.27549  0.53302  Biso   1.000  H
  H149     1.0000 0.71824  0.25741  0.51621  Biso   1.000  H
  O110     1.0000 0.54184  0.20760  0.54013  Biso   1.000  O
  C129     1.0000 0.66961  0.17401  0.50797  Biso   1.000  C
  H150     1.0000 0.66754  0.21281  0.61421  Biso   1.000  H
  C130     1.0000 0.51862  0.17079  0.58218  Biso   1.000  C
  O111     1.0000 0.76749  0.17681  0.52491  Biso   1.000  O
  C131     1.0000 0.64793  0.13319  0.54930  Biso   1.000  C
  H151     1.0000 0.64364  0.17391  0.44319  Biso   1.000  H
  O112     1.0000 0.55514  0.17060  0.67372  Biso   1.000  O
  H152     1.0000 0.45209  0.17032  0.57381  Biso   1.000  H
  C132     1.0000 0.54613  0.13180  0.53829  Biso   1.000  C
  C133     1.0000 0.80824  0.18069  0.44550  Biso   1.000  C
  O113     1.0000 0.67742  0.09681  0.50310  Biso   1.000  O
  H153     1.0000 0.67769  0.13259  0.61322  Biso   1.000  H
  C134     1.0000 0.49881  0.17479  0.73468  Biso   1.000  C
  O114     1.0000 0.52021  0.09350  0.57691  Biso   1.000  O
  H154     1.0000 0.51742  0.13230  0.47410  Biso   1.000  H
  O115     1.0000 0.84944  0.22120  0.44899  Biso   1.000  O
  H155     1.0000 0.76112  0.17779  0.39021  Biso   1.000  H
  C135     1.0000 0.87679  0.14379  0.45328  Biso   1.000  C
  C136     1.0000 0.51812  0.13811  0.80091  Biso   1.000  C
  H156     1.0000 0.43495  0.17350  0.70239  Biso   1.000  H
  C137     1.0000 0.51635  0.21631  0.77910  Biso   1.000  C
  C138     1.0000 0.92004  0.22890  0.52939  Biso   1.000  C
  O116     1.0000 0.83544  0.10470  0.44939  Biso   1.000  O
  H157     1.0000 0.90741  0.14590  0.40273  Biso   1.000  H
  C139     1.0000 0.94621  0.15189  0.53842  Biso   1.000  C
  O117     1.0000 0.49149  0.09950  0.75162  Biso   1.000  O
  C140     1.0000 0.47219  0.14451  0.87479  Biso   1.000  C
  H158     1.0000 0.58392  0.13691  0.82562  Biso   1.000  H
  O118     1.0000 0.47554  0.21981  0.85581  Biso   1.000  O
  H159     1.0000 0.58232  0.21729  0.80309  Biso   1.000  H
  C141     1.0000 0.49514  0.25429  0.72387  Biso   1.000  C
  C142     1.0000 0.98710  0.19410  0.54079  Biso   1.000  C
  H160     1.0000 0.89234  0.23000  0.58198  Biso   1.000  H
  C143     1.0000 0.95711  0.27120  0.51489  Biso   1.000  C
  H161     1.0000 0.91594  0.14950  0.58910  Biso   1.000  H
  O119     1.0000 0.01512  0.11789  0.54692  Biso   1.000  O
  O120     1.0000 0.48803  0.11240  0.93739  Biso   1.000  O
  C144     1.0000 0.49374  0.18621  0.91281  Biso   1.000  C
  H162     1.0000 0.40661  0.14438  0.84869  Biso   1.000  H
  O121     1.0000 0.39885  0.25779  0.69092  Biso   1.000  O
  H163     1.0000 0.51733  0.27968  0.75913  Biso   1.000  H
  H164     1.0000 0.52520  0.25281  0.67372  Biso   1.000  H
  O122     1.0000 0.04494  0.19940  0.62811  Biso   1.000  O
  H165     1.0000 0.02324  0.19621  0.49460  Biso   1.000  H
  H166     1.0000 0.90794  0.29199  0.50211  Biso   1.000  H
  H167     1.0000 0.99922  0.28019  0.56940  Biso   1.000  H
  O123     1.0000 0.00309  0.27069  0.44273  Biso   1.000  O
  O124     1.0000 0.58504  0.18719  0.95749  Biso   1.000  O
  H168     1.0000 0.45741  0.19032  0.95842  Biso   1.000  H
  C145     1.0000 0.13640  0.21259  0.63510  Biso   1.000  C
  C146     1.0000 0.61282  0.19940  0.04818  Biso   1.000  C
  O125     1.0000 0.14918  0.25199  0.67418  Biso   1.000  O
  H169     1.0000 0.14754  0.21498  0.57421  Biso   1.000  H
  C147     1.0000 0.19690  0.17741  0.68360  Biso   1.000  C
  C148     1.0000 0.66437  0.16300  0.09991  Biso   1.000  C
  H170     1.0000 0.55807  0.20461  0.07190  Biso   1.000  H
  C149     1.0000 0.66659  0.23909  0.05813  Biso   1.000  C
  C150     1.0000 0.14141  0.25230  0.76480  Biso   1.000  C
  O126     1.0000 0.18123  0.13950  0.63938  Biso   1.000  O
  H171     1.0000 0.25940  0.18562  0.68163  Biso   1.000  H
  C151     1.0000 0.19284  0.17729  0.77870  Biso   1.000  C
  O127     1.0000 0.61228  0.12571  0.09253  Biso   1.000  O
  C152     1.0000 0.69974  0.17729  0.19303  Biso   1.000  C
  H172     1.0000 0.71702  0.15700  0.07342  Biso   1.000  H
  O128     1.0000 0.69592  0.24968  0.14663  Biso   1.000  O
  H173     1.0000 0.72010  0.23451  0.03203  Biso   1.000  H
  C153     1.0000 0.61348  0.27521  0.01061  Biso   1.000  C
  C154     1.0000 0.20334  0.22161  0.81982  Biso   1.000  C
  H174     1.0000 0.07920  0.24319  0.76572  Biso   1.000  H
  C155     1.0000 0.15099  0.29571  0.79729  Biso   1.000  C
  O129     1.0000 0.25063  0.14770  0.82793  Biso   1.000  O
  H175     1.0000 0.13099  0.16789  0.78068  Biso   1.000  H
  O130     1.0000 0.75128  0.14498  0.24621  Biso   1.000  O
  C156     1.0000 0.74619  0.21871  0.19968  Biso   1.000  C
  H176     1.0000 0.64601  0.18180  0.21873  Biso   1.000  H
  H177     1.0000 0.58614  0.26631  0.94972  Biso   1.000  H
  O131     1.0000 0.55103  0.28811  0.04923  Biso   1.000  O
  H178     1.0000 0.65428  0.29899  0.00692  Biso   1.000  H
  O132     1.0000 0.66431  0.31221  0.00923  Biso   1.000  O
  O133     1.0000 0.19410  0.21940  0.90761  Biso   1.000  O
  H179     1.0000 0.26574  0.23110  0.82068  Biso   1.000  H
  O134     1.0000 0.08129  0.32350  0.74812  Biso   1.000  O
  H180     1.0000 0.21023  0.30669  0.79261  Biso   1.000  H
  H181     1.0000 0.14823  0.29599  0.86042  Biso   1.000  H
  O135     1.0000 0.82850  0.21091  0.16897  Biso   1.000  O
  H182     1.0000 0.76091  0.22830  0.26249  Biso   1.000  H
  C157     1.0000 0.26403  0.23429  0.97661  Biso   1.000  C
  C158     1.0000 0.91102  0.22230  0.22960  Biso   1.000  C
  H183     1.0000 0.31744  0.23968  0.95090  Biso   1.000  H
  O136     1.0000 0.24227  0.27180  0.01279  Biso   1.000  O
  C159     1.0000 0.28893  0.19921  0.04633  Biso   1.000  C
  C160     1.0000 0.97204  0.18461  0.22618  Biso   1.000  C
  H184     1.0000 0.90112  0.22659  0.29050  Biso   1.000  H
  C161     1.0000 0.94129  0.26259  0.19382  Biso   1.000  C
  C162     1.0000 0.16787  0.26691  0.05430  Biso   1.000  C
  O137     1.0000 0.31729  0.16161  0.00870  Biso   1.000  O
  H185     1.0000 0.33890  0.20940  0.09411  Biso   1.000  H
  C163     1.0000 0.20580  0.19101  0.08640  Biso   1.000  C
  O138     1.0000 0.94080  0.14950  0.26677  Biso   1.000  O
  H186     1.0000 0.97399  0.17779  0.16383  Biso   1.000  H
  C164     1.0000 0.06683  0.19631  0.27969  Biso   1.000  C
  H187     1.0000 0.93979  0.25950  0.12943  Biso   1.000  H
  C165     1.0000 0.88862  0.29981  0.20917  Biso   1.000  C
  O139     1.0000 0.03678  0.27120  0.24430  Biso   1.000  O
  C166     1.0000 0.18118  0.23189  0.12172  Biso   1.000  C
  H188     1.0000 0.11338  0.26050  0.00791  Biso   1.000  H
  C167     1.0000 0.15711  0.30968  0.09220  Biso   1.000  C
  O140     1.0000 0.22470  0.16139  0.15461  Biso   1.000  O
  H189     1.0000 0.15509  0.18069  0.03941  Biso   1.000  H
  O141     1.0000 0.13088  0.16369  0.28569  Biso   1.000  O
  C168     1.0000 0.09400  0.23621  0.23903  Biso   1.000  C
  H190     1.0000 0.06128  0.20331  0.34111  Biso   1.000  H
  O142     1.0000 0.88118  0.30271  0.30131  Biso   1.000  O
  H191     1.0000 0.91752  0.32571  0.19309  Biso   1.000  H
  H192     1.0000 0.82810  0.29801  0.17102  Biso   1.000  H
  O143     1.0000 0.09921  0.22659  0.15309  Biso   1.000  O
  H193     1.0000 0.22987  0.24032  0.17260  Biso   1.000  H
  O144     1.0000 0.22560  0.32069  0.16502  Biso   1.000  O
  H194     1.0000 0.15497  0.33110  0.04541  Biso   1.000  H
  H195     1.0000 0.09923  0.31060  0.11052  Biso   1.000  H
  H196     1.0000 0.15539  0.24391  0.27191  Biso   1.000  H
