data_image0
_cell_length_a       15.262
_cell_length_b       15.728
_cell_length_c       16.35
_cell_angle_alpha    92.67
_cell_angle_beta     96.94
_cell_angle_gamma    103.31

_symmetry_space_group_name_H-M    "P 1"
_symmetry_int_tables_number       1

loop_
  _symmetry_equiv_pos_as_xyz
  'x, y, z'

loop_
  _atom_site_label
  _atom_site_occupancy
  _atom_site_fract_x
  _atom_site_fract_y
  _atom_site_fract_z
  _atom_site_thermal_displace_type
  _atom_site_B_iso_or_equiv
  _atom_site_type_symbol
  C1       1.0000 0.42147  0.32772  0.54153  Biso   1.000  C
  C2       1.0000 0.33418  0.25646  0.53133  Biso   1.000  C
  H1       1.0000 0.47295  0.30084  0.53801  Biso   1.000  H
  C3       1.0000 0.43312  0.37637  0.62440  Biso   1.000  C
  O1       1.0000 0.41758  0.38463  0.47751  Biso   1.000  O
  O2       1.0000 0.31888  0.20961  0.45291  Biso   1.000  O
  C4       1.0000 0.33779  0.19593  0.59980  Biso   1.000  C
  H2       1.0000 0.28355  0.28414  0.53590  Biso   1.000  H
  C5       1.0000 0.42932  0.31237  0.69361  Biso   1.000  C
  H3       1.0000 0.38537  0.40842  0.62650  Biso   1.000  H
  O3       1.0000 0.52030  0.43638  0.63762  Biso   1.000  O
  H4       1.0000 0.41128  0.35686  0.43270  Biso   1.000  H
  H5       1.0000 0.31453  0.15743  0.45878  Biso   1.000  H
  O4       1.0000 0.41036  0.15472  0.59208  Biso   1.000  O
  H6       1.0000 0.28056  0.15092  0.59350  Biso   1.000  H
  O5       1.0000 0.34878  0.24323  0.67742  Biso   1.000  O
  H7       1.0000 0.48252  0.28717  0.69621  Biso   1.000  H
  C6       1.0000 0.42770  0.35719  0.77759  Biso   1.000  C
  C7       1.0000 0.52348  0.52605  0.65882  Biso   1.000  C
  C8       1.0000 0.38969  0.06117  0.58818  Biso   1.000  C
  H8       1.0000 0.42191  0.31378  0.81801  Biso   1.000  H
  H9       1.0000 0.48514  0.39967  0.79372  Biso   1.000  H
  O6       1.0000 0.35618  0.40013  0.77858  Biso   1.000  O
  H10      1.0000 0.46150  0.53375  0.65789  Biso   1.000  H
  C9       1.0000 0.57033  0.58125  0.59461  Biso   1.000  C
  O7       1.0000 0.57208  0.55293  0.73749  Biso   1.000  O
  C10      1.0000 0.41754  0.02824  0.50983  Biso   1.000  C
  H11      1.0000 0.32436  0.03807  0.58849  Biso   1.000  H
  C11      1.0000 0.44274  0.03256  0.66271  Biso   1.000  C
  H12      1.0000 0.30743  0.36437  0.76622  Biso   1.000  H
  H13      1.0000 0.57074  0.64274  0.60759  Biso   1.000  H
  C12      1.0000 0.66659  0.57296  0.59721  Biso   1.000  C
  O8       1.0000 0.52039  0.55377  0.51582  Biso   1.000  O
  C13      1.0000 0.66551  0.54966  0.74700  Biso   1.000  C
  H14      1.0000 0.48191  0.05491  0.50828  Biso   1.000  H
  O9       1.0000 0.36476  0.04973  0.43932  Biso   1.000  O
  C14      1.0000 0.40351  0.92922  0.50853  Biso   1.000  C
  H15      1.0000 0.50764  0.05856  0.66339  Biso   1.000  H
  C15      1.0000 0.41378  0.05948  0.74348  Biso   1.000  C
  O10      1.0000 0.42754  0.93917  0.65672  Biso   1.000  O
  H16      1.0000 0.66678  0.51167  0.58349  Biso   1.000  H
  C16      1.0000 0.71685  0.60155  0.68403  Biso   1.000  C
  O11      1.0000 0.71109  0.62628  0.53961  Biso   1.000  O
  H17      1.0000 0.46819  0.55907  0.51588  Biso   1.000  H
  H18      1.0000 0.66869  0.48838  0.73909  Biso   1.000  H
  C17      1.0000 0.70422  0.58286  0.83438  Biso   1.000  C
  H19      1.0000 0.38088  0.03153  0.39723  Biso   1.000  H
  C18      1.0000 0.45404  0.90385  0.58503  Biso   1.000  C
  H20      1.0000 0.33852  0.90302  0.50698  Biso   1.000  H
  O12      1.0000 0.43302  0.89670  0.43672  Biso   1.000  O
  H21      1.0000 0.44097  0.03068  0.78760  Biso   1.000  H
  H22      1.0000 0.43670  0.12214  0.75553  Biso   1.000  H
  O13      1.0000 0.31866  0.03808  0.74231  Biso   1.000  O
  H23      1.0000 0.41837  0.12205  0.74880  Biso   1.000  H
  H24      1.0000 0.35169  0.02876  0.74731  Biso   1.000  H
  O14      1.0000 0.47510  0.03503  0.80491  Biso   1.000  O
  H25      1.0000 0.72261  0.66448  0.69621  Biso   1.000  H
  O15      1.0000 0.80410  0.58415  0.68539  Biso   1.000  O
  H26      1.0000 0.76362  0.62127  0.54153  Biso   1.000  H
  H27      1.0000 0.67025  0.54679  0.87189  Biso   1.000  H
  H28      1.0000 0.76684  0.57807  0.84452  Biso   1.000  H
  O16      1.0000 0.70114  0.67025  0.85082  Biso   1.000  O
  H29      1.0000 0.43960  0.83974  0.58491  Biso   1.000  H
  O17      1.0000 0.54921  0.93535  0.58522  Biso   1.000  O
  H30      1.0000 0.42489  0.84335  0.43629  Biso   1.000  H
  H31      1.0000 0.29925  0.98487  0.73390  Biso   1.000  H
  H32      1.0000 0.47007  0.98246  0.79959  Biso   1.000  H
  C19      1.0000 0.88152  0.64874  0.72018  Biso   1.000  C
  H33      1.0000 0.64821  0.67435  0.84341  Biso   1.000  H
  C20      1.0000 0.60489  0.87563  0.59078  Biso   1.000  C
  H34      1.0000 0.86252  0.70216  0.73514  Biso   1.000  H
  C21      1.0000 0.94519  0.66835  0.65628  Biso   1.000  C
  O18      1.0000 0.92434  0.62145  0.79168  Biso   1.000  O
  C22      1.0000 0.66258  0.88961  0.52033  Biso   1.000  C
  H35      1.0000 0.56718  0.81553  0.58528  Biso   1.000  H
  C23      1.0000 0.66593  0.89337  0.67600  Biso   1.000  C
  H36      1.0000 0.99741  0.71568  0.67983  Biso   1.000  H
  C24      1.0000 0.97960  0.58776  0.63602  Biso   1.000  C
  O19      1.0000 0.90239  0.69654  0.58472  Biso   1.000  O
  C25      1.0000 0.95519  0.54307  0.77840  Biso   1.000  C
  C26      1.0000 0.73501  0.83836  0.53201  Biso   1.000  C
  H37      1.0000 0.69172  0.95215  0.52052  Biso   1.000  H
  O20      1.0000 0.60629  0.86166  0.44451  Biso   1.000  O
  H38      1.0000 0.69365  0.95636  0.68564  Biso   1.000  H
  C27      1.0000 0.61278  0.86432  0.74589  Biso   1.000  C
  O21      1.0000 0.73572  0.84756  0.67909  Biso   1.000  O
  H39      1.0000 0.92782  0.54083  0.61099  Biso   1.000  H
  C28      1.0000 0.02213  0.55727  0.71468  Biso   1.000  C
  O22      1.0000 0.04321  0.60505  0.57891  Biso   1.000  O
  H40      1.0000 0.85002  0.69724  0.59090  Biso   1.000  H
  H41      1.0000 0.90272  0.49547  0.75633  Biso   1.000  H
  C29      1.0000 0.99422  0.52115  0.86040  Biso   1.000  C
  C30      1.0000 0.79170  0.86403  0.61513  Biso   1.000  C
  H42      1.0000 0.70460  0.77602  0.53028  Biso   1.000  H
  O23      1.0000 0.79147  0.84944  0.46848  Biso   1.000  O
  H43      1.0000 0.56729  0.88981  0.43882  Biso   1.000  H
  H44      1.0000 0.65363  0.87626  0.79761  Biso   1.000  H
  H45      1.0000 0.56734  0.89804  0.74910  Biso   1.000  H
  O24      1.0000 0.56932  0.77362  0.73532  Biso   1.000  O
  H46      1.0000 0.07774  0.60065  0.73780  Biso   1.000  H
  O25      1.0000 0.04321  0.47459  0.69503  Biso   1.000  O
  H47      1.0000 0.06082  0.56063  0.56859  Biso   1.000  H
  H48      1.0000 0.94774  0.51256  0.89674  Biso   1.000  H
  H49      1.0000 0.01262  0.46644  0.85373  Biso   1.000  H
  O26      1.0000 0.06971  0.58667  0.89779  Biso   1.000  O
  O27      1.0000 0.83401  0.95553  0.61791  Biso   1.000  O
  H50      1.0000 0.83843  0.83034  0.62180  Biso   1.000  H
  H51      1.0000 0.76010  0.83512  0.42350  Biso   1.000  H
  H52      1.0000 0.54134  0.76008  0.77432  Biso   1.000  H
  C31      1.0000 0.13393  0.46808  0.70974  Biso   1.000  C
  H53      1.0000 0.05442  0.63294  0.90440  Biso   1.000  H
  C32      1.0000 0.92851  0.98295  0.64164  Biso   1.000  C
  H54      1.0000 0.17320  0.52706  0.72228  Biso   1.000  H
  C33      1.0000 0.15802  0.42804  0.63311  Biso   1.000  C
  O28      1.0000 0.14769  0.41730  0.77753  Biso   1.000  O
  C34      1.0000 0.97158  0.03225  0.57323  Biso   1.000  C
  C35      1.0000 0.94896  0.04125  0.72111  Biso   1.000  C
  H55      1.0000 0.95344  0.93145  0.65023  Biso   1.000  H
  H56      1.0000 0.22182  0.42525  0.64368  Biso   1.000  H
  C36      1.0000 0.10097  0.33637  0.61303  Biso   1.000  C
  O29      1.0000 0.14841  0.48078  0.56600  Biso   1.000  O
  C37      1.0000 0.09820  0.32689  0.76492  Biso   1.000  C
  H57      1.0000 0.94353  0.08144  0.56198  Biso   1.000  H
  O30      1.0000 0.95680  0.97531  0.50012  Biso   1.000  O
  C38      1.0000 0.07147  0.06712  0.60023  Biso   1.000  C
  H58      1.0000 0.92135  0.09103  0.71221  Biso   1.000  H
  C39      1.0000 0.91223  0.99608  0.79354  Biso   1.000  C
  O31      1.0000 0.04535  0.07492  0.74299  Biso   1.000  O
  H59      1.0000 0.03680  0.33775  0.60271  Biso   1.000  H
  C40      1.0000 0.11552  0.28274  0.68601  Biso   1.000  C
  O32      1.0000 0.12565  0.29765  0.54208  Biso   1.000  O
  H60      1.0000 0.18002  0.53046  0.57842  Biso   1.000  H
  H61      1.0000 0.03310  0.32468  0.76109  Biso   1.000  H
  C41      1.0000 0.12608  0.28496  0.84199  Biso   1.000  C
  H62      1.0000 0.00579  0.97203  0.48628  Biso   1.000  H
  C42      1.0000 0.08814  0.12315  0.68150  Biso   1.000  C
  H63      1.0000 0.09887  0.01713  0.60889  Biso   1.000  H
  O33      1.0000 0.11506  0.11674  0.53980  Biso   1.000  O
  H64      1.0000 0.93518  0.03395  0.84372  Biso   1.000  H
  H65      1.0000 0.84651  0.98544  0.78569  Biso   1.000  H
  O34      1.0000 0.93735  0.91609  0.80213  Biso   1.000  O
  O35      1.0000 0.05395  0.19884  0.66988  Biso   1.000  O
  H66      1.0000 0.17806  0.27576  0.69250  Biso   1.000  H
  H67      1.0000 0.09410  0.24767  0.53170  Biso   1.000  H
  H68      1.0000 0.11171  0.31540  0.88982  Biso   1.000  H
  H69      1.0000 0.09191  0.22446  0.83871  Biso   1.000  H
  O36      1.0000 0.22078  0.28808  0.85212  Biso   1.000  O
  H70      1.0000 0.15377  0.14124  0.69979  Biso   1.000  H
  H71      1.0000 0.07743  0.11825  0.49988  Biso   1.000  H
  H72      1.0000 0.91661  0.89293  0.84180  Biso   1.000  H
  H73      1.0000 0.23278  0.26156  0.81220  Biso   1.000  H
  O37      1.0000 0.38815  0.31573  0.31473  Biso   1.000  O
  C43      1.0000 0.43606  0.36449  0.25578  Biso   1.000  C
  H74      1.0000 0.40875  0.33842  0.36139  Biso   1.000  H
  C44      1.0000 0.39815  0.32273  0.17161  Biso   1.000  C
  C45      1.0000 0.42530  0.45864  0.25979  Biso   1.000  C
  H75      1.0000 0.50067  0.36461  0.26678  Biso   1.000  H
  O38      1.0000 0.41711  0.23711  0.16568  Biso   1.000  O
  H76      1.0000 0.33226  0.31673  0.16302  Biso   1.000  H
  C46      1.0000 0.44128  0.37684  0.10543  Biso   1.000  C
  C47      1.0000 0.47407  0.50742  0.19540  Biso   1.000  C
  H77      1.0000 0.36048  0.45710  0.24731  Biso   1.000  H
  O39      1.0000 0.45750  0.50141  0.33951  Biso   1.000  O
  C48      1.0000 0.34490  0.16398  0.13670  Biso   1.000  C
  H78      1.0000 0.50517  0.37409  0.10852  Biso   1.000  H
  C49      1.0000 0.39356  0.34503  0.01829  Biso   1.000  C
  O40      1.0000 0.43708  0.46693  0.11643  Biso   1.000  O
  O41      1.0000 0.56756  0.51043  0.21153  Biso   1.000  O
  H79      1.0000 0.46606  0.56742  0.19812  Biso   1.000  H
  H80      1.0000 0.43007  0.47376  0.37369  Biso   1.000  H
  C50      1.0000 0.33155  0.09984  0.20331  Biso   1.000  C
  H81      1.0000 0.28916  0.18430  0.12390  Biso   1.000  H
  O42      1.0000 0.36293  0.12333  0.06452  Biso   1.000  O
  H82      1.0000 0.40104  0.28683  0.00408  Biso   1.000  H
  O43      1.0000 0.30113  0.34331  0.01403  Biso   1.000  O
  H83      1.0000 0.42077  0.38396  0.97899  Biso   1.000  H
  C51      1.0000 0.63174  0.59481  0.22469  Biso   1.000  C
  O44      1.0000 0.31075  0.13894  0.27568  Biso   1.000  O
  H84      1.0000 0.27934  0.05158  0.18199  Biso   1.000  H
  C52      1.0000 0.41401  0.06123  0.22012  Biso   1.000  C
  C53      1.0000 0.43958  0.08418  0.07391  Biso   1.000  C
  H85      1.0000 0.27575  0.32596  0.96719  Biso   1.000  H
  C54      1.0000 0.68656  0.60003  0.30861  Biso   1.000  C
  H86      1.0000 0.59906  0.64161  0.22253  Biso   1.000  H
  C55      1.0000 0.69270  0.60246  0.15672  Biso   1.000  C
  H87      1.0000 0.30394  0.10305  0.31059  Biso   1.000  H
  H88      1.0000 0.46704  0.10828  0.24187  Biso   1.000  H
  C56      1.0000 0.43172  0.02014  0.14022  Biso   1.000  C
  O45      1.0000 0.39959  0.99833  0.27870  Biso   1.000  O
  H89      1.0000 0.49455  0.13094  0.09047  Biso   1.000  H
  C57      1.0000 0.44594  0.04467  0.99098  Biso   1.000  C
  C58      1.0000 0.76181  0.68304  0.31863  Biso   1.000  C
  H90      1.0000 0.71325  0.54901  0.31269  Biso   1.000  H
  O46      1.0000 0.63032  0.60136  0.37128  Biso   1.000  O
  H91      1.0000 0.71734  0.55030  0.15412  Biso   1.000  H
  C59      1.0000 0.64308  0.61025  0.07292  Biso   1.000  C
  O47      1.0000 0.76631  0.67796  0.17241  Biso   1.000  O
  H92      1.0000 0.38156  0.96932  0.12118  Biso   1.000  H
  O48      1.0000 0.51355  0.99148  0.15573  Biso   1.000  O
  H93      1.0000 0.38976  0.02130  0.32159  Biso   1.000  H
  O49      1.0000 0.37025  0.97515  0.96292  Biso   1.000  O
  H94      1.0000 0.45003  0.08936  0.95180  Biso   1.000  H
  H95      1.0000 0.50082  0.02326  0.99357  Biso   1.000  H
  C60      1.0000 0.81978  0.68271  0.24978  Biso   1.000  C
  H96      1.0000 0.73360  0.73293  0.31350  Biso   1.000  H
  O50      1.0000 0.81480  0.69312  0.39723  Biso   1.000  O
  H97      1.0000 0.58967  0.55621  0.36572  Biso   1.000  H
  H98      1.0000 0.68555  0.61671  0.03281  Biso   1.000  H
  H99      1.0000 0.59674  0.55665  0.05661  Biso   1.000  H
  O51      1.0000 0.60127  0.68273  0.07162  Biso   1.000  O
  C61      1.0000 0.51177  0.90269  0.13410  Biso   1.000  C
  H100     1.0000 0.32379  0.99335  0.95940  Biso   1.000  H
  O52      1.0000 0.86089  0.61121  0.25751  Biso   1.000  O
  H101     1.0000 0.86748  0.73720  0.25621  Biso   1.000  H
  H102     1.0000 0.85482  0.73856  0.40088  Biso   1.000  H
  H103     1.0000 0.57505  0.68435  0.02503  Biso   1.000  H
  H104     1.0000 0.44884  0.87010  0.11667  Biso   1.000  H
  C62      1.0000 0.55129  0.86389  0.20782  Biso   1.000  C
  O53      1.0000 0.56428  0.89728  0.06779  Biso   1.000  O
  C63      1.0000 0.95670  0.62676  0.26153  Biso   1.000  C
  H105     1.0000 0.54883  0.80232  0.19237  Biso   1.000  H
  C64      1.0000 0.64899  0.91094  0.23508  Biso   1.000  C
  O54      1.0000 0.49798  0.86735  0.27413  Biso   1.000  O
  C65      1.0000 0.65837  0.93953  0.08602  Biso   1.000  C
  C66      1.0000 0.99358  0.59181  0.33920  Biso   1.000  C
  H106     1.0000 0.98328  0.68975  0.26233  Biso   1.000  H
  C67      1.0000 0.97841  0.57925  0.18533  Biso   1.000  C
  H107     1.0000 0.65240  0.97239  0.25151  Biso   1.000  H
  C68      1.0000 0.70297  0.90590  0.16222  Biso   1.000  C
  O55      1.0000 0.68849  0.87223  0.30188  Biso   1.000  O
  H108     1.0000 0.51968  0.84600  0.31430  Biso   1.000  H
  H109     1.0000 0.66444  0.00263  0.09622  Biso   1.000  H
  C69      1.0000 0.70014  0.92411  0.01081  Biso   1.000  C
  H110     1.0000 0.96098  0.53076  0.34198  Biso   1.000  H
  O56      1.0000 0.98150  0.64462  0.40978  Biso   1.000  O
  C70      1.0000 0.09315  0.59703  0.33908  Biso   1.000  C
  H111     1.0000 0.94388  0.51805  0.18001  Biso   1.000  H
  C71      1.0000 0.95585  0.62189  0.10753  Biso   1.000  C
  O57      1.0000 0.07329  0.58232  0.19182  Biso   1.000  O
  H112     1.0000 0.70589  0.84512  0.14992  Biso   1.000  H
  O58      1.0000 0.79200  0.95884  0.18558  Biso   1.000  O
  H113     1.0000 0.74151  0.89914  0.31541  Biso   1.000  H
  H114     1.0000 0.66656  0.94224  0.96317  Biso   1.000  H
  O59      1.0000 0.70035  0.83502  0.99753  Biso   1.000  O
  H115     1.0000 0.76219  0.95932  0.01712  Biso   1.000  H
  H116     1.0000 0.00167  0.62602  0.45242  Biso   1.000  H
  C72      1.0000 0.10841  0.54775  0.26282  Biso   1.000  C
  H117     1.0000 0.12507  0.65876  0.33890  Biso   1.000  H
  O60      1.0000 0.12842  0.56275  0.41219  Biso   1.000  O
  H118     1.0000 0.97238  0.59162  0.06087  Biso   1.000  H
  H119     1.0000 0.89083  0.61750  0.09770  Biso   1.000  H
  O61      1.0000 0.00285  0.71089  0.11408  Biso   1.000  O
  C73      1.0000 0.86566  0.92161  0.17693  Biso   1.000  C
  H120     1.0000 0.72345  0.82782  0.95582  Biso   1.000  H
  O62      1.0000 0.06627  0.45763  0.26338  Biso   1.000  O
  H121     1.0000 0.17379  0.55434  0.26282  Biso   1.000  H
  H122     1.0000 0.18267  0.56561  0.41200  Biso   1.000  H
  H123     1.0000 0.05776  0.71452  0.12168  Biso   1.000  H
  H124     1.0000 0.84326  0.85838  0.16277  Biso   1.000  H
  C74      1.0000 0.92720  0.93722  0.25930  Biso   1.000  C
  O63      1.0000 0.91509  0.95930  0.11519  Biso   1.000  O
  C75      1.0000 0.11984  0.39433  0.25473  Biso   1.000  C
  C76      1.0000 0.96235  0.03420  0.28118  Biso   1.000  C
  H125     1.0000 0.97926  0.91190  0.25331  Biso   1.000  H
  O64      1.0000 0.88049  0.89462  0.32172  Biso   1.000  O
  C77      1.0000 0.95348  0.05219  0.12860  Biso   1.000  C
  C78      1.0000 0.10724  0.33652  0.32610  Biso   1.000  C
  C79      1.0000 0.08952  0.34173  0.17309  Biso   1.000  C
  H126     1.0000 0.18409  0.42472  0.25800  Biso   1.000  H
  H127     1.0000 0.91091  0.06044  0.28723  Biso   1.000  H
  C80      1.0000 0.01225  0.07609  0.21332  Biso   1.000  C
  O65      1.0000 0.02206  0.04954  0.35700  Biso   1.000  O
  H128     1.0000 0.88051  0.93071  0.35954  Biso   1.000  H
  H129     1.0000 0.90429  0.08291  0.12557  Biso   1.000  H
  C81      1.0000 0.00728  0.07558  0.05741  Biso   1.000  C
  C82      1.0000 0.15874  0.26621  0.31473  Biso   1.000  C
  H130     1.0000 0.04260  0.30926  0.32511  Biso   1.000  H
  O66      1.0000 0.14099  0.38682  0.40199  Biso   1.000  O
  O67      1.0000 0.13645  0.27204  0.16778  Biso   1.000  O
  H131     1.0000 0.02397  0.31650  0.16741  Biso   1.000  H
  C83      1.0000 0.11165  0.39504  0.09949  Biso   1.000  C
  H132     1.0000 0.06843  0.05608  0.21227  Biso   1.000  H
  O68      1.0000 0.03435  0.16869  0.22951  Biso   1.000  O
  H133     1.0000 0.04074  0.10242  0.36843  Biso   1.000  H
  H134     1.0000 0.96770  0.05658  0.00562  Biso   1.000  H
  H135     1.0000 0.02934  0.13879  0.05939  Biso   1.000  H
  O69      1.0000 0.08032  0.03688  0.06038  Biso   1.000  O
  C84      1.0000 0.12596  0.21419  0.23223  Biso   1.000  C
  H136     1.0000 0.22336  0.29441  0.31683  Biso   1.000  H
  O70      1.0000 0.14835  0.20856  0.38011  Biso   1.000  O
  H137     1.0000 0.13374  0.35505  0.44018  Biso   1.000  H
  H138     1.0000 0.09454  0.35644  0.04919  Biso   1.000  H
  H139     1.0000 0.07595  0.43863  0.09560  Biso   1.000  H
  O71      1.0000 0.20457  0.43730  0.10567  Biso   1.000  O
  H140     1.0000 0.06187  0.98348  0.05772  Biso   1.000  H
  H141     1.0000 0.16295  0.17163  0.22550  Biso   1.000  H
  H142     1.0000 0.12617  0.15815  0.36040  Biso   1.000  H
  H143     1.0000 0.21354  0.46521  0.06507  Biso   1.000  H
  Ne1      1.0000 0.75033  0.27718  0.20198  Biso   1.000  Ne
  He1      1.0000 0.74698  0.26606  0.27363  Biso   1.000  He
  He2      1.0000 0.74995  0.28991  0.12477  Biso   1.000  He
  Ar1      1.0000 0.74955  0.28287  0.23284  Biso   1.000  Ar
  Ne2      1.0000 0.73932  0.24424  0.65192  Biso   1.000  Ne
  He3      1.0000 0.74298  0.24723  0.71964  Biso   1.000  He
  He4      1.0000 0.74181  0.24639  0.56188  Biso   1.000  He
  Ar2      1.0000 0.74369  0.25646  0.61153  Biso   1.000  Ar
