data_image0
_cell_length_a       11.962
_cell_length_b       12.445
_cell_length_c       40.296
_cell_angle_alpha    90
_cell_angle_beta     92.47
_cell_angle_gamma    90

_symmetry_space_group_name_H-M    "P 1"
_symmetry_int_tables_number       1

loop_
  _symmetry_equiv_pos_as_xyz
  'x, y, z'

loop_
  _atom_site_label
  _atom_site_occupancy
  _atom_site_fract_x
  _atom_site_fract_y
  _atom_site_fract_z
  _atom_site_thermal_displace_type
  _atom_site_B_iso_or_equiv
  _atom_site_type_symbol
  C1       1.0000 0.51737  0.55653  0.55442  Biso   1.000  C
  O1       1.0000 0.55270  0.46002  0.57146  Biso   1.000  O
  C2       1.0000 0.58797  0.64942  0.56505  Biso   1.000  C
  H1       1.0000 0.52204  0.54616  0.53069  Biso   1.000  H
  H2       1.0000 0.43995  0.57139  0.55899  Biso   1.000  H
  C3       1.0000 0.48569  0.37123  0.56594  Biso   1.000  C
  C4       1.0000 0.54930  0.75259  0.54803  Biso   1.000  C
  H3       1.0000 0.58516  0.65810  0.58889  Biso   1.000  H
  H4       1.0000 0.66505  0.63519  0.55991  Biso   1.000  H
  C5       1.0000 0.39447  0.36987  0.54341  Biso   1.000  C
  C6       1.0000 0.51262  0.27987  0.58442  Biso   1.000  C
  C7       1.0000 0.61804  0.84805  0.55680  Biso   1.000  C
  H5       1.0000 0.47264  0.76665  0.55380  Biso   1.000  H
  H6       1.0000 0.54935  0.74198  0.52419  Biso   1.000  H
  C8       1.0000 0.32756  0.27931  0.53914  Biso   1.000  C
  H7       1.0000 0.37786  0.43102  0.53089  Biso   1.000  H
  C9       1.0000 0.44592  0.18883  0.57993  Biso   1.000  C
  C10      1.0000 0.61259  0.27851  0.60909  Biso   1.000  C
  H8       1.0000 0.58857  0.90960  0.54500  Biso   1.000  H
  H9       1.0000 0.61667  0.86091  0.58020  Biso   1.000  H
  H10      1.0000 0.69389  0.83576  0.55069  Biso   1.000  H
  C11      1.0000 0.22370  0.28461  0.51592  Biso   1.000  C
  C12      1.0000 0.35420  0.18859  0.55794  Biso   1.000  C
  H11      1.0000 0.46356  0.12696  0.59200  Biso   1.000  H
  H12      1.0000 0.67115  0.32382  0.60079  Biso   1.000  H
  H13      1.0000 0.64152  0.20579  0.61090  Biso   1.000  H
  C13      1.0000 0.58293  0.31756  0.64322  Biso   1.000  C
  H14      1.0000 0.20247  0.21254  0.50901  Biso   1.000  H
  H15      1.0000 0.24025  0.32559  0.49629  Biso   1.000  H
  C14      1.0000 0.12706  0.33700  0.53313  Biso   1.000  C
  O2       1.0000 0.28345  0.10076  0.55315  Biso   1.000  O
  C15      1.0000 0.59644  0.42443  0.65218  Biso   1.000  C
  C16      1.0000 0.54124  0.24652  0.66642  Biso   1.000  C
  C17      1.0000 0.11118  0.44781  0.53149  Biso   1.000  C
  C18      1.0000 0.05705  0.27577  0.55191  Biso   1.000  C
  C19      1.0000 0.31266  0.00627  0.57069  Biso   1.000  C
  H16      1.0000 0.62433  0.47272  0.63701  Biso   1.000  H
  C20      1.0000 0.56920  0.46099  0.68341  Biso   1.000  C
  O3       1.0000 0.53025  0.14070  0.65636  Biso   1.000  O
  C21      1.0000 0.51198  0.28349  0.69754  Biso   1.000  C
  O4       1.0000 0.18344  0.50566  0.51269  Biso   1.000  O
  C22      1.0000 0.02587  0.49538  0.54905  Biso   1.000  C
  H17      1.0000 0.06664  0.20169  0.55290  Biso   1.000  H
  C23      1.0000 0.97214  0.32366  0.56937  Biso   1.000  C
  H18      1.0000 0.31422  0.02057  0.59411  Biso   1.000  H
  H19      1.0000 0.25847  0.95139  0.56540  Biso   1.000  H
  H20      1.0000 0.38525  0.98272  0.56450  Biso   1.000  H
  O5       1.0000 0.58214  0.56593  0.69364  Biso   1.000  O
  C24      1.0000 0.52471  0.39028  0.70631  Biso   1.000  C
  C25      1.0000 0.52276  0.06067  0.68135  Biso   1.000  C
  H21      1.0000 0.48350  0.23544  0.71269  Biso   1.000  H
  C26      1.0000 0.17165  0.61993  0.51323  Biso   1.000  C
  H22      1.0000 0.01569  0.56947  0.54801  Biso   1.000  H
  C27      1.0000 0.95558  0.43327  0.56818  Biso   1.000  C
  O6       1.0000 0.89805  0.26645  0.58822  Biso   1.000  O
  C28      1.0000 0.63813  0.63777  0.67218  Biso   1.000  C
  C29      1.0000 0.48663  0.43070  0.73945  Biso   1.000  C
  H23      1.0000 0.57761  0.07409  0.69930  Biso   1.000  H
  H24      1.0000 0.44883  0.06139  0.69039  Biso   1.000  H
  C30      1.0000 0.54451  0.95412  0.66535  Biso   1.000  C
  C31      1.0000 0.25865  0.67135  0.49291  Biso   1.000  C
  H25      1.0000 0.09789  0.63961  0.50439  Biso   1.000  H
  H26      1.0000 0.17947  0.64548  0.53601  Biso   1.000  H
  C32      1.0000 0.86525  0.48783  0.58740  Biso   1.000  C
  C33      1.0000 0.91912  0.15637  0.59339  Biso   1.000  C
  H27      1.0000 0.64164  0.70808  0.68199  Biso   1.000  H
  H28      1.0000 0.71275  0.61221  0.66910  Biso   1.000  H
  H29      1.0000 0.59787  0.64138  0.65109  Biso   1.000  H
  H30      1.0000 0.49538  0.37397  0.75589  Biso   1.000  H
  H31      1.0000 0.53343  0.49056  0.74680  Biso   1.000  H
  C34      1.0000 0.36531  0.46637  0.73699  Biso   1.000  C
  H32      1.0000 0.48233  0.93821  0.64990  Biso   1.000  H
  H33      1.0000 0.54566  0.89932  0.68249  Biso   1.000  H
  C35      1.0000 0.64964  0.94552  0.64727  Biso   1.000  C
  C36      1.0000 0.24679  0.79325  0.49530  Biso   1.000  C
  H34      1.0000 0.33274  0.64966  0.50111  Biso   1.000  H
  H35      1.0000 0.24904  0.64869  0.46989  Biso   1.000  H
  H36      1.0000 0.84564  0.55548  0.57670  Biso   1.000  H
  H37      1.0000 0.79894  0.44291  0.58671  Biso   1.000  H
  C37      1.0000 0.90148  0.50880  0.62332  Biso   1.000  C
  H38      1.0000 0.86211  0.12648  0.60670  Biso   1.000  H
  H39      1.0000 0.91866  0.12021  0.57240  Biso   1.000  H
  H40      1.0000 0.99097  0.14753  0.60459  Biso   1.000  H
  C38      1.0000 0.33772  0.57188  0.72946  Biso   1.000  C
  C39      1.0000 0.27923  0.39333  0.74178  Biso   1.000  C
  H41      1.0000 0.64615  0.99397  0.62839  Biso   1.000  H
  H42      1.0000 0.65704  0.87288  0.63890  Biso   1.000  H
  C40      1.0000 0.74900  0.97188  0.66888  Biso   1.000  C
  H43      1.0000 0.25526  0.81406  0.51850  Biso   1.000  H
  H44      1.0000 0.17176  0.81310  0.48750  Biso   1.000  H
  C41      1.0000 0.32966  0.85552  0.47585  Biso   1.000  C
  C42      1.0000 0.88846  0.43142  0.64769  Biso   1.000  C
  C43      1.0000 0.95134  0.60611  0.63283  Biso   1.000  C
  C44      1.0000 0.22676  0.60530  0.72581  Biso   1.000  C
  H45      1.0000 0.39460  0.62162  0.72680  Biso   1.000  H
  C45      1.0000 0.16810  0.42628  0.73813  Biso   1.000  C
  O7       1.0000 0.31146  0.29000  0.75013  Biso   1.000  O
  H46      1.0000 0.74303  0.04444  0.67670  Biso   1.000  H
  H47      1.0000 0.81534  0.96481  0.65651  Biso   1.000  H
  H48      1.0000 0.75313  0.92358  0.68751  Biso   1.000  H
  H49      1.0000 0.31692  0.93098  0.47851  Biso   1.000  H
  H50      1.0000 0.40429  0.83809  0.48380  Biso   1.000  H
  H51      1.0000 0.32079  0.83688  0.45280  Biso   1.000  H
  H52      1.0000 0.85452  0.36641  0.64190  Biso   1.000  H
  C46      1.0000 0.92447  0.44829  0.68035  Biso   1.000  C
  O8       1.0000 0.96396  0.68051  0.60799  Biso   1.000  O
  C47      1.0000 0.98655  0.62362  0.66575  Biso   1.000  C
  C48      1.0000 0.14078  0.53178  0.73016  Biso   1.000  C
  O9       1.0000 0.19491  0.70808  0.71779  Biso   1.000  O
  H53      1.0000 0.11119  0.37670  0.74111  Biso   1.000  H
  C49      1.0000 0.22517  0.21237  0.75234  Biso   1.000  C
  O10      1.0000 0.91506  0.37292  0.70537  Biso   1.000  O
  C50      1.0000 0.97469  0.54520  0.68999  Biso   1.000  C
  C51      1.0000 0.01632  0.77847  0.61453  Biso   1.000  C
  H54      1.0000 0.01852  0.68927  0.67171  Biso   1.000  H
  C52      1.0000 0.01943  0.56472  0.72519  Biso   1.000  C
  C53      1.0000 0.27773  0.79132  0.71992  Biso   1.000  C
  H55      1.0000 0.25754  0.14399  0.75820  Biso   1.000  H
  H56      1.0000 0.17493  0.23399  0.76900  Biso   1.000  H
  H57      1.0000 0.18500  0.20667  0.73130  Biso   1.000  H
  C54      1.0000 0.86380  0.27376  0.69662  Biso   1.000  C
  C55      1.0000 0.03626  0.83616  0.58261  Biso   1.000  C
  H58      1.0000 0.08712  0.76649  0.62660  Biso   1.000  H
  H59      1.0000 0.96983  0.82242  0.62829  Biso   1.000  H
  H60      1.0000 0.01216  0.64042  0.73040  Biso   1.000  H
  H61      1.0000 0.97473  0.52439  0.74039  Biso   1.000  H
  C56      1.0000 0.22044  0.89835  0.71741  Biso   1.000  C
  H62      1.0000 0.32032  0.78610  0.74089  Biso   1.000  H
  H63      1.0000 0.32890  0.78361  0.70209  Biso   1.000  H
  H64      1.0000 0.86208  0.22861  0.71590  Biso   1.000  H
  H65      1.0000 0.78883  0.28646  0.68810  Biso   1.000  H
  H66      1.0000 0.90585  0.23897  0.67991  Biso   1.000  H
  H67      1.0000 0.09025  0.79542  0.57039  Biso   1.000  H
  H68      1.0000 0.06954  0.90550  0.58780  Biso   1.000  H
  C57      1.0000 0.93989  0.85287  0.56145  Biso   1.000  C
  C58      1.0000 0.15976  0.91330  0.68530  Biso   1.000  C
  H69      1.0000 0.27572  0.95492  0.72049  Biso   1.000  H
  H70      1.0000 0.16825  0.90462  0.73510  Biso   1.000  H
  H71      1.0000 0.91058  0.78369  0.55419  Biso   1.000  H
  H72      1.0000 0.88288  0.88791  0.57409  Biso   1.000  H
  C59      1.0000 0.96133  0.91916  0.53176  Biso   1.000  C
  H73      1.0000 0.21395  0.91691  0.66811  Biso   1.000  H
  H74      1.0000 0.11356  0.85046  0.68090  Biso   1.000  H
  C60      1.0000 0.08495  0.01350  0.68249  Biso   1.000  C
  H75      1.0000 0.02828  0.89442  0.52190  Biso   1.000  H
  H76      1.0000 0.89927  0.91298  0.51599  Biso   1.000  H
  H77      1.0000 0.97054  0.99301  0.53820  Biso   1.000  H
  H78      1.0000 0.05009  0.01687  0.66060  Biso   1.000  H
  H79      1.0000 0.02819  0.00948  0.69861  Biso   1.000  H
  H80      1.0000 0.12949  0.07658  0.68639  Biso   1.000  H
  C61      1.0000 0.48243  0.44347  0.44557  Biso   1.000  C
  O11      1.0000 0.44710  0.53998  0.42855  Biso   1.000  O
  C62      1.0000 0.41183  0.35058  0.43494  Biso   1.000  C
  H81      1.0000 0.47768  0.45376  0.46929  Biso   1.000  H
  H82      1.0000 0.55976  0.42861  0.44100  Biso   1.000  H
  C63      1.0000 0.51411  0.62877  0.43407  Biso   1.000  C
  C64      1.0000 0.45050  0.24741  0.45195  Biso   1.000  C
  H83      1.0000 0.41455  0.34190  0.41109  Biso   1.000  H
  H84      1.0000 0.33467  0.36481  0.44011  Biso   1.000  H
  C65      1.0000 0.48710  0.72013  0.41556  Biso   1.000  C
  C66      1.0000 0.60533  0.63005  0.45660  Biso   1.000  C
  C67      1.0000 0.38168  0.15187  0.44321  Biso   1.000  C
  H85      1.0000 0.52707  0.23327  0.44619  Biso   1.000  H
  H86      1.0000 0.45037  0.25802  0.47580  Biso   1.000  H
  C68      1.0000 0.38722  0.72149  0.39092  Biso   1.000  C
  C69      1.0000 0.55380  0.81117  0.42008  Biso   1.000  C
  C70      1.0000 0.67216  0.72069  0.46087  Biso   1.000  C
  H87      1.0000 0.62186  0.56898  0.46909  Biso   1.000  H
  H88      1.0000 0.41115  0.09040  0.45501  Biso   1.000  H
  H89      1.0000 0.38313  0.13909  0.41979  Biso   1.000  H
  H90      1.0000 0.30591  0.16416  0.44930  Biso   1.000  H
  C71      1.0000 0.41678  0.68236  0.35677  Biso   1.000  C
  H91      1.0000 0.32856  0.67618  0.39919  Biso   1.000  H
  H92      1.0000 0.35820  0.79421  0.38911  Biso   1.000  H
  C72      1.0000 0.64560  0.81141  0.44204  Biso   1.000  C
  H93      1.0000 0.53616  0.87296  0.40799  Biso   1.000  H
  C73      1.0000 0.77610  0.71539  0.48410  Biso   1.000  C
  C74      1.0000 0.40328  0.57557  0.34780  Biso   1.000  C
  C75      1.0000 0.45848  0.75348  0.33357  Biso   1.000  C
  O12      1.0000 0.71627  0.89916  0.44684  Biso   1.000  O
  H94      1.0000 0.79725  0.78746  0.49100  Biso   1.000  H
  H95      1.0000 0.75946  0.67441  0.50369  Biso   1.000  H
  C76      1.0000 0.87266  0.66300  0.46686  Biso   1.000  C
  C77      1.0000 0.43051  0.53901  0.31658  Biso   1.000  C
  H96      1.0000 0.37539  0.52728  0.36300  Biso   1.000  H
  C78      1.0000 0.48773  0.71651  0.30247  Biso   1.000  C
  O13      1.0000 0.46955  0.85922  0.34363  Biso   1.000  O
  C79      1.0000 0.68705  0.99365  0.42930  Biso   1.000  C
  C80      1.0000 0.88861  0.55219  0.46850  Biso   1.000  C
  C81      1.0000 0.94266  0.72423  0.44808  Biso   1.000  C
  O14      1.0000 0.41757  0.43407  0.30634  Biso   1.000  O
  C82      1.0000 0.47501  0.60972  0.29370  Biso   1.000  C
  H97      1.0000 0.51621  0.76456  0.28729  Biso   1.000  H
  C83      1.0000 0.47704  0.93925  0.31864  Biso   1.000  C
  H98      1.0000 0.68550  0.97935  0.40590  Biso   1.000  H
  H99      1.0000 0.74132  0.04861  0.43459  Biso   1.000  H
  H100     1.0000 0.61447  0.01728  0.43551  Biso   1.000  H
  O15      1.0000 0.81627  0.49434  0.48730  Biso   1.000  O
  C84      1.0000 0.97393  0.50462  0.45094  Biso   1.000  C
  H101     1.0000 0.93308  0.79831  0.44711  Biso   1.000  H
  C85      1.0000 0.02758  0.67626  0.43064  Biso   1.000  C
  C86      1.0000 0.36158  0.36223  0.32781  Biso   1.000  C
  C87      1.0000 0.51316  0.56930  0.26054  Biso   1.000  C
  H102     1.0000 0.42210  0.92591  0.30071  Biso   1.000  H
  H103     1.0000 0.55088  0.93861  0.30960  Biso   1.000  H
  C88      1.0000 0.45521  0.04588  0.33466  Biso   1.000  C
  C89      1.0000 0.82807  0.38007  0.48678  Biso   1.000  C
  H104     1.0000 0.98411  0.43045  0.45200  Biso   1.000  H
  C90      1.0000 0.04421  0.56665  0.43181  Biso   1.000  C
  O16      1.0000 0.10166  0.73355  0.41176  Biso   1.000  O
  H105     1.0000 0.35815  0.29192  0.31799  Biso   1.000  H
  H106     1.0000 0.28705  0.38779  0.33091  Biso   1.000  H
  H107     1.0000 0.40193  0.35862  0.34889  Biso   1.000  H
  H108     1.0000 0.50434  0.62595  0.24410  Biso   1.000  H
  H109     1.0000 0.46637  0.50936  0.25319  Biso   1.000  H
  C91      1.0000 0.63440  0.53363  0.26300  Biso   1.000  C
  H110     1.0000 0.51739  0.06179  0.35009  Biso   1.000  H
  H111     1.0000 0.45414  0.10068  0.31750  Biso   1.000  H
  C92      1.0000 0.35007  0.05448  0.35272  Biso   1.000  C
  C93      1.0000 0.74106  0.32857  0.50707  Biso   1.000  C
  H112     1.0000 0.90191  0.36039  0.49560  Biso   1.000  H
  H113     1.0000 0.82025  0.35452  0.46400  Biso   1.000  H
  C94      1.0000 0.13447  0.51217  0.41261  Biso   1.000  C
  C95      1.0000 0.08060  0.84355  0.40660  Biso   1.000  C
  C96      1.0000 0.66200  0.42812  0.27055  Biso   1.000  C
  C97      1.0000 0.72057  0.60667  0.25821  Biso   1.000  C
  H114     1.0000 0.35365  0.00595  0.37160  Biso   1.000  H
  H115     1.0000 0.34267  0.12712  0.36109  Biso   1.000  H
  C98      1.0000 0.25071  0.02812  0.33111  Biso   1.000  C
  C99      1.0000 0.75300  0.20667  0.50469  Biso   1.000  C
  H116     1.0000 0.66698  0.35026  0.49890  Biso   1.000  H
  H117     1.0000 0.75067  0.35131  0.53010  Biso   1.000  H
  C100     1.0000 0.09832  0.49120  0.37667  Biso   1.000  C
  H118     1.0000 0.15408  0.44452  0.42329  Biso   1.000  H
  H119     1.0000 0.20078  0.55709  0.41330  Biso   1.000  H
  H120     1.0000 0.13760  0.87352  0.39331  Biso   1.000  H
  H121     1.0000 0.08106  0.87979  0.42761  Biso   1.000  H
  H122     1.0000 0.00883  0.85247  0.39539  Biso   1.000  H
  H123     1.0000 0.60512  0.37838  0.27321  Biso   1.000  H
  C101     1.0000 0.77305  0.39470  0.27420  Biso   1.000  C
  O17      1.0000 0.68834  0.71000  0.24986  Biso   1.000  O
  C102     1.0000 0.83161  0.57372  0.26186  Biso   1.000  C
  H124     1.0000 0.25668  0.95556  0.32331  Biso   1.000  H
  H125     1.0000 0.18438  0.03519  0.34350  Biso   1.000  H
  H126     1.0000 0.24659  0.07642  0.31250  Biso   1.000  H
  H127     1.0000 0.74445  0.18586  0.48149  Biso   1.000  H
  H128     1.0000 0.82795  0.18690  0.51249  Biso   1.000  H
  C103     1.0000 0.67006  0.14448  0.52416  Biso   1.000  C
  C104     1.0000 0.04837  0.39389  0.36718  Biso   1.000  C
  C105     1.0000 0.11134  0.56858  0.35230  Biso   1.000  C
  O18      1.0000 0.80489  0.29192  0.28220  Biso   1.000  O
  C106     1.0000 0.85894  0.46822  0.26983  Biso   1.000  C
  C107     1.0000 0.77454  0.78763  0.24765  Biso   1.000  C
  H129     1.0000 0.88853  0.62330  0.25890  Biso   1.000  H
  H130     1.0000 0.68288  0.06902  0.52150  Biso   1.000  H
  H131     1.0000 0.59550  0.16191  0.51619  Biso   1.000  H
  H132     1.0000 0.67892  0.16312  0.54719  Biso   1.000  H
  C108     1.0000 0.01325  0.37638  0.33426  Biso   1.000  C
  O19      1.0000 0.03584  0.31949  0.39199  Biso   1.000  O
  C109     1.0000 0.07533  0.55171  0.31966  Biso   1.000  C
  H133     1.0000 0.14520  0.63359  0.35811  Biso   1.000  H
  C110     1.0000 0.72207  0.20868  0.28006  Biso   1.000  C
  C111     1.0000 0.98029  0.43528  0.27482  Biso   1.000  C
  H134     1.0000 0.74226  0.85601  0.24179  Biso   1.000  H
  H135     1.0000 0.82488  0.76601  0.23101  Biso   1.000  H
  H136     1.0000 0.81471  0.79325  0.26869  Biso   1.000  H
  C112     1.0000 0.02503  0.45480  0.31002  Biso   1.000  C
  H137     1.0000 0.98120  0.31073  0.32830  Biso   1.000  H
  C113     1.0000 0.98340  0.22153  0.38548  Biso   1.000  C
  O20      1.0000 0.08474  0.62708  0.29465  Biso   1.000  O
  C114     1.0000 0.77936  0.10157  0.28257  Biso   1.000  C
  H138     1.0000 0.67940  0.21390  0.25910  Biso   1.000  H
  H139     1.0000 0.67082  0.21639  0.29790  Biso   1.000  H
  H140     1.0000 0.98764  0.35958  0.26961  Biso   1.000  H
  H141     1.0000 0.02506  0.47561  0.25960  Biso   1.000  H
  C115     1.0000 0.96354  0.16376  0.41740  Biso   1.000  C
  H142     1.0000 0.91259  0.23351  0.37339  Biso   1.000  H
  H143     1.0000 0.02989  0.17758  0.37170  Biso   1.000  H
  C116     1.0000 0.13592  0.72616  0.30336  Biso   1.000  C
  C117     1.0000 0.84003  0.08670  0.31469  Biso   1.000  C
  H144     1.0000 0.72399  0.04508  0.27949  Biso   1.000  H
  H145     1.0000 0.83155  0.09538  0.26489  Biso   1.000  H
  H146     1.0000 0.90947  0.20458  0.42960  Biso   1.000  H
  H147     1.0000 0.93018  0.09450  0.41221  Biso   1.000  H
  C118     1.0000 0.05990  0.14713  0.43854  Biso   1.000  C
  H148     1.0000 0.13763  0.77139  0.28409  Biso   1.000  H
  H149     1.0000 0.21089  0.71346  0.31191  Biso   1.000  H
  H150     1.0000 0.09396  0.76103  0.32011  Biso   1.000  H
  H151     1.0000 0.78585  0.08309  0.33190  Biso   1.000  H
  H152     1.0000 0.88623  0.14954  0.31909  Biso   1.000  H
  C119     1.0000 0.91484  0.98650  0.31750  Biso   1.000  C
  H153     1.0000 0.08921  0.21631  0.44579  Biso   1.000  H
  H154     1.0000 0.11692  0.11209  0.42590  Biso   1.000  H
  C120     1.0000 0.03839  0.08084  0.46825  Biso   1.000  C
  H155     1.0000 0.94963  0.98313  0.33941  Biso   1.000  H
  H156     1.0000 0.97153  0.99052  0.30140  Biso   1.000  H
  H157     1.0000 0.87022  0.92342  0.31360  Biso   1.000  H
  H158     1.0000 0.97152  0.10558  0.47811  Biso   1.000  H
  H159     1.0000 0.10044  0.08702  0.48400  Biso   1.000  H
  H160     1.0000 0.02917  0.00699  0.46179  Biso   1.000  H
  C121     1.0000 0.77440  0.71241  0.74767  Biso   1.000  C
  O21      1.0000 0.68820  0.78996  0.74988  Biso   1.000  O
  H161     1.0000 0.74212  0.64395  0.74180  Biso   1.000  H
  H162     1.0000 0.82473  0.73403  0.73100  Biso   1.000  H
  H163     1.0000 0.81457  0.70671  0.76871  Biso   1.000  H
  C122     1.0000 0.72042  0.89329  0.75820  Biso   1.000  C
  C123     1.0000 0.83147  0.92632  0.76188  Biso   1.000  C
  C124     1.0000 0.63434  0.96641  0.76299  Biso   1.000  C
  H164     1.0000 0.88839  0.87666  0.75889  Biso   1.000  H
  C125     1.0000 0.85880  0.03182  0.76985  Biso   1.000  C
  C126     1.0000 0.51302  0.93065  0.76056  Biso   1.000  C
  C127     1.0000 0.66194  0.07192  0.77054  Biso   1.000  C
  C128     1.0000 0.98023  0.06468  0.77482  Biso   1.000  C
  C129     1.0000 0.77290  0.10526  0.77420  Biso   1.000  C
  H165     1.0000 0.50420  0.87401  0.74409  Biso   1.000  H
  H166     1.0000 0.46623  0.99060  0.75321  Biso   1.000  H
  C130     1.0000 0.47487  0.89032  0.79369  Biso   1.000  C
  H167     1.0000 0.60498  0.12157  0.77320  Biso   1.000  H
  H168     1.0000 0.98750  0.14038  0.76960  Biso   1.000  H
  H169     1.0000 0.02492  0.02435  0.75959  Biso   1.000  H
  C131     1.0000 0.02489  0.04516  0.81001  Biso   1.000  C
  O22      1.0000 0.80475  0.20812  0.78222  Biso   1.000  O
  C132     1.0000 0.48759  0.78353  0.80246  Biso   1.000  C
  C133     1.0000 0.43037  0.96095  0.81657  Biso   1.000  C
  C134     1.0000 0.07519  0.94825  0.81965  Biso   1.000  C
  C135     1.0000 0.01311  0.12358  0.83426  Biso   1.000  C
  C136     1.0000 0.72192  0.29128  0.78006  Biso   1.000  C
  H170     1.0000 0.51607  0.73540  0.78729  Biso   1.000  H
  C137     1.0000 0.45842  0.74648  0.83359  Biso   1.000  C
  C138     1.0000 0.40322  0.92439  0.84782  Biso   1.000  C
  O23      1.0000 0.41751  0.06597  0.80634  Biso   1.000  O
  O24      1.0000 0.08460  0.87288  0.79464  Biso   1.000  O
  C139     1.0000 0.11120  0.93138  0.85232  Biso   1.000  C
  H171     1.0000 0.98106  0.18931  0.82830  Biso   1.000  H
  C140     1.0000 0.04831  0.10607  0.86717  Biso   1.000  C
  C141     1.0000 0.77922  0.39839  0.78257  Biso   1.000  C
  H172     1.0000 0.67934  0.28606  0.75909  Biso   1.000  H
  H173     1.0000 0.67068  0.28357  0.79789  Biso   1.000  H
  O25      1.0000 0.46941  0.64074  0.84362  Biso   1.000  O
  C142     1.0000 0.41672  0.81760  0.85676  Biso   1.000  C
  H174     1.0000 0.37525  0.97268  0.86300  Biso   1.000  H
  C143     1.0000 0.36153  0.13781  0.82780  Biso   1.000  C
  C144     1.0000 0.13577  0.77380  0.80336  Biso   1.000  C
  H175     1.0000 0.14506  0.86637  0.85810  Biso   1.000  H
  C145     1.0000 0.09818  0.00876  0.87666  Biso   1.000  C
  O26      1.0000 0.03570  0.18047  0.89201  Biso   1.000  O
  C146     1.0000 0.83990  0.41326  0.81471  Biso   1.000  C
  H176     1.0000 0.72393  0.45488  0.77949  Biso   1.000  H
  H177     1.0000 0.83141  0.40458  0.76491  Biso   1.000  H
  C147     1.0000 0.47690  0.56071  0.81866  Biso   1.000  C
  C148     1.0000 0.38707  0.77847  0.89092  Biso   1.000  C
  H178     1.0000 0.35801  0.20812  0.81799  Biso   1.000  H
  H179     1.0000 0.28690  0.11217  0.83090  Biso   1.000  H
  H180     1.0000 0.40179  0.14142  0.84889  Biso   1.000  H
  H181     1.0000 0.13749  0.72857  0.78411  Biso   1.000  H
  H182     1.0000 0.21083  0.78650  0.81190  Biso   1.000  H
  H183     1.0000 0.09381  0.73901  0.82010  Biso   1.000  H
  C149     1.0000 0.13441  0.98779  0.91260  Biso   1.000  C
  C150     1.0000 0.98326  0.27851  0.88548  Biso   1.000  C
  C151     1.0000 0.91470  0.51346  0.81749  Biso   1.000  C
  H184     1.0000 0.78571  0.41687  0.83190  Biso   1.000  H
  H185     1.0000 0.88609  0.35050  0.81911  Biso   1.000  H
  C152     1.0000 0.45506  0.45408  0.83465  Biso   1.000  C
  H186     1.0000 0.42196  0.57413  0.80070  Biso   1.000  H
  H187     1.0000 0.55082  0.56143  0.80959  Biso   1.000  H
  H188     1.0000 0.32850  0.82378  0.89919  Biso   1.000  H
  H189     1.0000 0.35805  0.70583  0.88910  Biso   1.000  H
  C153     1.0000 0.48696  0.77991  0.91556  Biso   1.000  C
  H190     1.0000 0.20064  0.94287  0.91330  Biso   1.000  H
  C154     1.0000 0.04407  0.93331  0.93180  Biso   1.000  C
  H191     1.0000 0.15394  0.05552  0.92331  Biso   1.000  H
  C155     1.0000 0.96340  0.33620  0.91739  Biso   1.000  C
  H192     1.0000 0.91245  0.26645  0.87340  Biso   1.000  H
  H193     1.0000 0.02974  0.32238  0.87169  Biso   1.000  H
  H194     1.0000 0.94948  0.51691  0.83940  Biso   1.000  H
  H195     1.0000 0.97139  0.50944  0.80139  Biso   1.000  H
  H196     1.0000 0.87008  0.57662  0.81359  Biso   1.000  H
  H197     1.0000 0.51725  0.43817  0.85010  Biso   1.000  H
  H198     1.0000 0.45399  0.39928  0.81749  Biso   1.000  H
  C156     1.0000 0.35001  0.44548  0.85274  Biso   1.000  C
  C157     1.0000 0.55365  0.68879  0.92008  Biso   1.000  C
  C158     1.0000 0.51397  0.87119  0.93406  Biso   1.000  C
  C159     1.0000 0.97378  0.99542  0.95093  Biso   1.000  C
  C160     1.0000 0.02743  0.82370  0.93063  Biso   1.000  C
  H199     1.0000 0.90941  0.29538  0.92959  Biso   1.000  H
  H200     1.0000 0.93004  0.40546  0.91220  Biso   1.000  H
  C161     1.0000 0.05976  0.35291  0.93853  Biso   1.000  C
  H201     1.0000 0.35350  0.49401  0.87159  Biso   1.000  H
  H202     1.0000 0.34262  0.37292  0.86111  Biso   1.000  H
  C162     1.0000 0.25057  0.47192  0.83113  Biso   1.000  C
  C163     1.0000 0.64546  0.68863  0.94204  Biso   1.000  C
  H203     1.0000 0.53610  0.62700  0.90801  Biso   1.000  H
  O27      1.0000 0.44696  0.95998  0.92855  Biso   1.000  O
  C164     1.0000 0.60519  0.86991  0.95659  Biso   1.000  C
  C165     1.0000 0.88847  0.94777  0.96849  Biso   1.000  C
  H204     1.0000 0.98397  0.06951  0.95200  Biso   1.000  H
  C166     1.0000 0.94252  0.77581  0.94810  Biso   1.000  C
  O28      1.0000 0.10160  0.76641  0.91176  Biso   1.000  O
  H205     1.0000 0.08907  0.28365  0.94579  Biso   1.000  H
  H206     1.0000 0.11678  0.38787  0.92589  Biso   1.000  H
  C167     1.0000 0.03824  0.41920  0.96824  Biso   1.000  C
  H207     1.0000 0.18432  0.46476  0.84350  Biso   1.000  H
  H208     1.0000 0.25663  0.54440  0.82330  Biso   1.000  H
  H209     1.0000 0.24653  0.42362  0.81250  Biso   1.000  H
  O29      1.0000 0.71612  0.60080  0.94683  Biso   1.000  O
  C168     1.0000 0.67210  0.77927  0.96086  Biso   1.000  C
  C169     1.0000 0.48229  0.05649  0.94559  Biso   1.000  C
  H210     1.0000 0.62180  0.93098  0.96909  Biso   1.000  H
  C170     1.0000 0.87252  0.83696  0.96688  Biso   1.000  C
  O30      1.0000 0.81621  0.00562  0.98729  Biso   1.000  O
  H211     1.0000 0.93293  0.70173  0.94710  Biso   1.000  H
  C171     1.0000 0.08046  0.65641  0.90661  Biso   1.000  C
  H212     1.0000 0.97137  0.39438  0.97810  Biso   1.000  H
  H213     1.0000 0.10038  0.41302  0.98399  Biso   1.000  H
  H214     1.0000 0.02903  0.49297  0.96181  Biso   1.000  H
  C172     1.0000 0.68699  0.50631  0.92929  Biso   1.000  C
  C173     1.0000 0.77596  0.78457  0.98409  Biso   1.000  C
  C174     1.0000 0.41169  0.14938  0.93493  Biso   1.000  C
  H215     1.0000 0.47753  0.04620  0.96928  Biso   1.000  H
  H216     1.0000 0.55970  0.07135  0.94099  Biso   1.000  H
  C175     1.0000 0.82792  0.11989  0.98677  Biso   1.000  C
  H217     1.0000 0.13746  0.62652  0.89330  Biso   1.000  H
  H218     1.0000 0.08100  0.62017  0.92760  Biso   1.000  H
  H219     1.0000 0.00869  0.64749  0.89539  Biso   1.000  H
  H220     1.0000 0.74118  0.45143  0.93461  Biso   1.000  H
  H221     1.0000 0.61433  0.48268  0.93550  Biso   1.000  H
  H222     1.0000 0.68535  0.52061  0.90589  Biso   1.000  H
  H223     1.0000 0.79719  0.71249  0.99099  Biso   1.000  H
  H224     1.0000 0.75958  0.82555  0.00371  Biso   1.000  H
  C176     1.0000 0.45036  0.25255  0.95195  Biso   1.000  C
  H225     1.0000 0.41450  0.15806  0.91109  Biso   1.000  H
  H226     1.0000 0.33452  0.13515  0.94010  Biso   1.000  H
  H227     1.0000 0.90177  0.13957  0.99559  Biso   1.000  H
  H228     1.0000 0.82019  0.14552  0.96399  Biso   1.000  H
  C177     1.0000 0.74117  0.17139  0.00709  Biso   1.000  C
  C178     1.0000 0.38154  0.34809  0.94320  Biso   1.000  C
  H229     1.0000 0.52693  0.26669  0.94621  Biso   1.000  H
  H230     1.0000 0.45022  0.24194  0.97579  Biso   1.000  H
  H231     1.0000 0.66684  0.14970  0.99889  Biso   1.000  H
  C179     1.0000 0.75312  0.29329  0.00471  Biso   1.000  C
  H232     1.0000 0.75079  0.14865  0.03012  Biso   1.000  H
  H233     1.0000 0.41109  0.40956  0.95500  Biso   1.000  H
  H234     1.0000 0.38299  0.36087  0.91980  Biso   1.000  H
  H235     1.0000 0.30576  0.33580  0.94929  Biso   1.000  H
  H236     1.0000 0.74431  0.31410  0.98151  Biso   1.000  H
  H237     1.0000 0.82807  0.31306  0.01253  Biso   1.000  H
  C180     1.0000 0.67017  0.35548  0.02418  Biso   1.000  C
  H238     1.0000 0.68299  0.43102  0.02152  Biso   1.000  H
  H239     1.0000 0.59562  0.33805  0.01623  Biso   1.000  H
  H240     1.0000 0.67912  0.33684  0.04723  Biso   1.000  H
  C181     1.0000 0.22532  0.28759  0.25234  Biso   1.000  C
  O31      1.0000 0.31160  0.20996  0.25013  Biso   1.000  O
  H241     1.0000 0.25760  0.35597  0.25821  Biso   1.000  H
  H242     1.0000 0.17507  0.26597  0.26901  Biso   1.000  H
  H243     1.0000 0.18514  0.29329  0.23130  Biso   1.000  H
  C182     1.0000 0.27938  0.10671  0.24179  Biso   1.000  C
  C183     1.0000 0.16825  0.07368  0.23814  Biso   1.000  C
  C184     1.0000 0.36545  0.03359  0.23699  Biso   1.000  C
  H244     1.0000 0.11133  0.12326  0.24109  Biso   1.000  H
  C185     1.0000 0.14092  0.96818  0.23016  Biso   1.000  C
  C186     1.0000 0.48678  0.06926  0.23945  Biso   1.000  C
  C187     1.0000 0.33786  0.92808  0.22944  Biso   1.000  C
  C188     1.0000 0.01956  0.93532  0.22517  Biso   1.000  C
  C189     1.0000 0.22681  0.89474  0.22579  Biso   1.000  C
  H245     1.0000 0.49552  0.12599  0.25590  Biso   1.000  H
  H246     1.0000 0.53357  0.00940  0.24680  Biso   1.000  H
  C190     1.0000 0.52485  0.10968  0.20629  Biso   1.000  C
  H247     1.0000 0.39474  0.87843  0.22681  Biso   1.000  H
  H248     1.0000 0.97488  0.97557  0.24040  Biso   1.000  H
  C191     1.0000 0.97483  0.95476  0.19000  Biso   1.000  C
  H249     1.0000 0.01222  0.85962  0.23041  Biso   1.000  H
  O32      1.0000 0.19505  0.79188  0.21779  Biso   1.000  O
  C192     1.0000 0.51213  0.21647  0.19755  Biso   1.000  C
  C193     1.0000 0.56935  0.03897  0.18341  Biso   1.000  C
  C194     1.0000 0.98669  0.87642  0.16573  Biso   1.000  C
  C195     1.0000 0.92453  0.05167  0.18036  Biso   1.000  C
  C196     1.0000 0.27787  0.70872  0.21993  Biso   1.000  C
  H250     1.0000 0.48365  0.26460  0.21270  Biso   1.000  H
  C197     1.0000 0.54138  0.25352  0.16642  Biso   1.000  C
  C198     1.0000 0.59658  0.07561  0.15219  Biso   1.000  C
  O33      1.0000 0.58228  0.93403  0.19365  Biso   1.000  O
  C199     1.0000 0.95149  0.89393  0.13284  Biso   1.000  C
  H251     1.0000 0.01866  0.81069  0.17169  Biso   1.000  H
  O34      1.0000 0.91512  0.12712  0.20535  Biso   1.000  O
  C200     1.0000 0.88860  0.06862  0.14770  Biso   1.000  C
  C201     1.0000 0.22058  0.60161  0.21742  Biso   1.000  C
  H252     1.0000 0.32046  0.71394  0.24089  Biso   1.000  H
  H253     1.0000 0.32904  0.71643  0.20209  Biso   1.000  H
  O35      1.0000 0.53039  0.35926  0.15636  Biso   1.000  O
  C202     1.0000 0.58307  0.18240  0.14322  Biso   1.000  C
  H254     1.0000 0.62447  0.02732  0.13699  Biso   1.000  H
  C203     1.0000 0.63827  0.86219  0.17219  Biso   1.000  C
  O36      1.0000 0.96410  0.81953  0.10800  Biso   1.000  O
  C204     1.0000 0.90154  0.99116  0.12333  Biso   1.000  C
  C205     1.0000 0.86394  0.22620  0.19663  Biso   1.000  C
  H255     1.0000 0.85466  0.13363  0.14191  Biso   1.000  H
  C206     1.0000 0.15982  0.58674  0.18530  Biso   1.000  C
  H256     1.0000 0.27587  0.54512  0.22050  Biso   1.000  H
  H257     1.0000 0.16831  0.59542  0.23511  Biso   1.000  H
  C207     1.0000 0.52282  0.43929  0.18135  Biso   1.000  C
  C208     1.0000 0.61264  0.22153  0.10907  Biso   1.000  C
  H258     1.0000 0.64179  0.79188  0.18200  Biso   1.000  H
  H259     1.0000 0.71290  0.88783  0.16911  Biso   1.000  H
  H260     1.0000 0.59793  0.85858  0.15110  Biso   1.000  H
  C209     1.0000 0.01646  0.72149  0.11451  Biso   1.000  C
  C210     1.0000 0.86539  0.01221  0.08741  Biso   1.000  C
  H261     1.0000 0.86223  0.27143  0.21590  Biso   1.000  H
  H262     1.0000 0.78897  0.21350  0.18811  Biso   1.000  H
  H263     1.0000 0.90599  0.26099  0.17989  Biso   1.000  H
  C211     1.0000 0.08501  0.48654  0.18250  Biso   1.000  C
  H264     1.0000 0.21409  0.58313  0.16809  Biso   1.000  H
  H265     1.0000 0.11362  0.64950  0.18091  Biso   1.000  H
  C212     1.0000 0.54465  0.54592  0.16533  Biso   1.000  C
  H266     1.0000 0.57776  0.42587  0.19931  Biso   1.000  H
  H267     1.0000 0.44898  0.43857  0.19039  Biso   1.000  H
  H268     1.0000 0.67130  0.17622  0.10080  Biso   1.000  H
  H269     1.0000 0.64167  0.29417  0.11091  Biso   1.000  H
  C213     1.0000 0.51276  0.22009  0.08443  Biso   1.000  C
  H270     1.0000 0.96997  0.67762  0.12830  Biso   1.000  H
  C214     1.0000 0.03640  0.66380  0.08259  Biso   1.000  C
  H271     1.0000 0.08727  0.73347  0.12661  Biso   1.000  H
  H272     1.0000 0.84578  0.94448  0.07670  Biso   1.000  H
  H273     1.0000 0.79908  0.05713  0.08669  Biso   1.000  H
  C215     1.0000 0.95564  0.06669  0.06818  Biso   1.000  C
  H274     1.0000 0.05024  0.48309  0.16061  Biso   1.000  H
  H275     1.0000 0.02833  0.49048  0.19859  Biso   1.000  H
  H276     1.0000 0.12964  0.42338  0.18640  Biso   1.000  H
  H277     1.0000 0.48247  0.56183  0.14991  Biso   1.000  H
  H278     1.0000 0.54572  0.60072  0.18250  Biso   1.000  H
  C216     1.0000 0.64979  0.55452  0.14727  Biso   1.000  C
  C217     1.0000 0.44606  0.31121  0.07991  Biso   1.000  C
  C218     1.0000 0.48575  0.12881  0.06595  Biso   1.000  C
  C219     1.0000 0.93995  0.64709  0.06145  Biso   1.000  C
  H279     1.0000 0.09039  0.70462  0.07039  Biso   1.000  H
  H280     1.0000 0.06968  0.59454  0.08781  Biso   1.000  H
  C220     1.0000 0.02602  0.00458  0.04906  Biso   1.000  C
  C221     1.0000 0.97228  0.17630  0.06935  Biso   1.000  C
  H281     1.0000 0.64629  0.50599  0.12840  Biso   1.000  H
  H282     1.0000 0.65718  0.62708  0.13890  Biso   1.000  H
  C222     1.0000 0.74915  0.52808  0.16888  Biso   1.000  C
  C223     1.0000 0.35426  0.31137  0.05795  Biso   1.000  C
  H283     1.0000 0.46370  0.37300  0.09201  Biso   1.000  H
  O37      1.0000 0.55276  0.04002  0.07144  Biso   1.000  O
  C224     1.0000 0.39462  0.13009  0.04342  Biso   1.000  C
  H284     1.0000 0.91073  0.71627  0.05420  Biso   1.000  H
  H285     1.0000 0.88302  0.61213  0.07410  Biso   1.000  H
  C225     1.0000 0.96148  0.58080  0.03177  Biso   1.000  C
  C226     1.0000 0.11133  0.05223  0.03150  Biso   1.000  C
  H286     1.0000 0.01574  0.93049  0.04799  Biso   1.000  H
  C227     1.0000 0.05719  0.22419  0.05191  Biso   1.000  C
  O38      1.0000 0.89820  0.23359  0.08823  Biso   1.000  O
  H287     1.0000 0.81548  0.53515  0.15649  Biso   1.000  H
  H288     1.0000 0.74318  0.45560  0.17671  Biso   1.000  H
  H289     1.0000 0.75327  0.57638  0.18749  Biso   1.000  H
  O39      1.0000 0.28359  0.39920  0.05316  Biso   1.000  O
  C228     1.0000 0.32770  0.22073  0.03915  Biso   1.000  C
  C229     1.0000 0.51751  0.94351  0.05442  Biso   1.000  C
  H290     1.0000 0.37800  0.06902  0.03090  Biso   1.000  H
  H291     1.0000 0.89941  0.58698  0.01600  Biso   1.000  H
  H292     1.0000 0.97069  0.50703  0.03820  Biso   1.000  H
  H293     1.0000 0.02843  0.60562  0.02191  Biso   1.000  H
  C230     1.0000 0.12720  0.16304  0.03314  Biso   1.000  C
  O40      1.0000 0.18358  0.99429  0.01269  Biso   1.000  O
  H294     1.0000 0.06678  0.29827  0.05291  Biso   1.000  H
  C231     1.0000 0.91926  0.34359  0.09340  Biso   1.000  C
  C232     1.0000 0.31280  0.49369  0.07069  Biso   1.000  C
  C233     1.0000 0.22376  0.21543  0.01592  Biso   1.000  C
  C234     1.0000 0.58811  0.85062  0.06505  Biso   1.000  C
  H295     1.0000 0.52218  0.95380  0.03070  Biso   1.000  H
  H296     1.0000 0.44010  0.92857  0.05899  Biso   1.000  H
  C235     1.0000 0.17179  0.88011  0.01324  Biso   1.000  C
  H297     1.0000 0.86226  0.37348  0.10671  Biso   1.000  H
  H298     1.0000 0.91880  0.37983  0.07241  Biso   1.000  H
  H299     1.0000 0.99111  0.35251  0.10460  Biso   1.000  H
  H300     1.0000 0.25862  0.54857  0.06540  Biso   1.000  H
  H301     1.0000 0.38539  0.51732  0.06451  Biso   1.000  H
  H302     1.0000 0.31436  0.47939  0.09409  Biso   1.000  H
  H303     1.0000 0.20261  0.28751  0.00899  Biso   1.000  H
  H304     1.0000 0.24014  0.17437  0.99627  Biso   1.000  H
  C236     1.0000 0.54936  0.74737  0.04804  Biso   1.000  C
  H305     1.0000 0.58530  0.84186  0.08890  Biso   1.000  H
  H306     1.0000 0.66519  0.86476  0.05989  Biso   1.000  H
  C237     1.0000 0.25854  0.82861  0.99290  Biso   1.000  C
  H307     1.0000 0.09803  0.86043  0.00440  Biso   1.000  H
  H308     1.0000 0.17961  0.85448  0.03599  Biso   1.000  H
  C238     1.0000 0.61818  0.65191  0.05681  Biso   1.000  C
  H309     1.0000 0.47278  0.73331  0.05380  Biso   1.000  H
  H310     1.0000 0.54949  0.75798  0.02419  Biso   1.000  H
  C239     1.0000 0.24668  0.70671  0.99528  Biso   1.000  C
  H311     1.0000 0.24893  0.85127  0.96987  Biso   1.000  H
  H312     1.0000 0.33288  0.85030  0.00109  Biso   1.000  H
  H313     1.0000 0.58871  0.59044  0.04501  Biso   1.000  H
  H314     1.0000 0.61681  0.63913  0.08021  Biso   1.000  H
  H315     1.0000 0.69395  0.66420  0.05070  Biso   1.000  H
  H316     1.0000 0.17165  0.68694  0.98748  Biso   1.000  H
  C240     1.0000 0.32954  0.64452  0.97581  Biso   1.000  C
  H317     1.0000 0.25540  0.68590  0.01851  Biso   1.000  H
  H318     1.0000 0.31672  0.56898  0.97846  Biso   1.000  H
  H319     1.0000 0.40418  0.66187  0.98378  Biso   1.000  H
  H320     1.0000 0.32068  0.66308  0.95278  Biso   1.000  H
