data_image0
_cell_length_a       12.054
_cell_length_b       14.051
_cell_length_c       18.524
_cell_angle_alpha    88.66
_cell_angle_beta     80.29
_cell_angle_gamma    64.91

_symmetry_space_group_name_H-M    "P 1"
_symmetry_int_tables_number       1

loop_
  _symmetry_equiv_pos_as_xyz
  'x, y, z'

loop_
  _atom_site_label
  _atom_site_occupancy
  _atom_site_fract_x
  _atom_site_fract_y
  _atom_site_fract_z
  _atom_site_thermal_displace_type
  _atom_site_B_iso_or_equiv
  _atom_site_type_symbol
  C1       1.0000 0.64180  0.34116  0.65138  Biso   1.000  C
  C2       1.0000 0.68064  0.23711  0.63306  Biso   1.000  C
  C3       1.0000 0.57039  0.38650  0.72038  Biso   1.000  C
  H1       1.0000 0.66308  0.38317  0.61748  Biso   1.000  H
  C4       1.0000 0.76085  0.18875  0.56050  Biso   1.000  C
  C5       1.0000 0.64192  0.17718  0.68325  Biso   1.000  C
  C6       1.0000 0.53409  0.32725  0.77018  Biso   1.000  C
  O1       1.0000 0.52990  0.48895  0.74139  Biso   1.000  O
  H2       1.0000 0.74012  0.24091  0.52369  Biso   1.000  H
  H3       1.0000 0.74455  0.13085  0.54558  Biso   1.000  H
  C7       1.0000 0.90044  0.14809  0.56516  Biso   1.000  C
  O2       1.0000 0.68310  0.07271  0.66246  Biso   1.000  O
  C8       1.0000 0.57017  0.22298  0.75109  Biso   1.000  C
  C9       1.0000 0.46003  0.37297  0.84615  Biso   1.000  C
  C10      1.0000 0.54995  0.55516  0.68917  Biso   1.000  C
  C11      1.0000 0.96348  0.21110  0.54876  Biso   1.000  C
  C12      1.0000 0.96202  0.04812  0.58737  Biso   1.000  C
  C13      1.0000 0.64245  0.01035  0.70870  Biso   1.000  C
  H4       1.0000 0.54590  0.18194  0.78439  Biso   1.000  H
  C14      1.0000 0.54602  0.36189  0.90006  Biso   1.000  C
  H5       1.0000 0.40543  0.44662  0.84335  Biso   1.000  H
  H6       1.0000 0.40863  0.33650  0.86337  Biso   1.000  H
  H7       1.0000 0.55415  0.52803  0.64118  Biso   1.000  H
  H8       1.0000 0.62672  0.55883  0.69197  Biso   1.000  H
  H9       1.0000 0.48262  0.62415  0.69828  Biso   1.000  H
  O3       1.0000 0.89748  0.31006  0.52665  Biso   1.000  O
  C15      1.0000 0.08868  0.17106  0.55337  Biso   1.000  C
  H10      1.0000 0.91981  0.00595  0.59796  Biso   1.000  H
  C16      1.0000 0.08755  0.00850  0.59439  Biso   1.000  C
  H11      1.0000 0.55226  0.04039  0.71709  Biso   1.000  H
  H12      1.0000 0.66846  0.00919  0.75559  Biso   1.000  H
  C17      1.0000 0.69173  0.90541  0.67776  Biso   1.000  C
  C18      1.0000 0.59073  0.27389  0.93988  Biso   1.000  C
  C19      1.0000 0.58478  0.43892  0.90834  Biso   1.000  C
  C20      1.0000 0.95240  0.37826  0.51947  Biso   1.000  C
  C21      1.0000 0.15238  0.07046  0.57657  Biso   1.000  C
  H13      1.0000 0.13119  0.21259  0.54059  Biso   1.000  H
  O4       1.0000 0.15341  0.91123  0.61798  Biso   1.000  O
  H14      1.0000 0.78169  0.87651  0.66586  Biso   1.000  H
  H15      1.0000 0.66939  0.86136  0.71287  Biso   1.000  H
  C22      1.0000 0.64519  0.90748  0.61715  Biso   1.000  C
  C23      1.0000 0.66925  0.81037  0.69257  Biso   1.000  C
  H16      1.0000 0.68317  0.91608  0.62675  Biso   1.000  H
  H17      1.0000 0.78022  0.87972  0.67787  Biso   1.000  H
  O5       1.0000 0.54833  0.19898  0.92946  Biso   1.000  O
  C24      1.0000 0.67364  0.26373  0.98826  Biso   1.000  C
  H18      1.0000 0.55576  0.49867  0.88136  Biso   1.000  H
  C25      1.0000 0.66576  0.43103  0.95568  Biso   1.000  C
  H19      1.0000 0.97975  0.38346  0.56439  Biso   1.000  H
  H20      1.0000 0.89325  0.44637  0.50899  Biso   1.000  H
  H21      1.0000 0.02248  0.35259  0.48020  Biso   1.000  H
  C26      1.0000 0.28840  0.02936  0.58468  Biso   1.000  C
  C27      1.0000 0.09198  0.84826  0.63898  Biso   1.000  C
  H22      1.0000 0.68917  0.93065  0.57739  Biso   1.000  H
  H23      1.0000 0.55818  0.95817  0.62538  Biso   1.000  H
  C28      1.0000 0.65315  0.79908  0.59439  Biso   1.000  C
  C29      1.0000 0.76115  0.70648  0.65198  Biso   1.000  C
  H24      1.0000 0.58763  0.82533  0.68188  Biso   1.000  H
  H25      1.0000 0.66576  0.79995  0.74479  Biso   1.000  H
  C30      1.0000 0.59172  0.10865  0.96857  Biso   1.000  C
  C31      1.0000 0.71131  0.34309  0.99627  Biso   1.000  C
  H26      1.0000 0.70297  0.20386  0.01486  Biso   1.000  H
  O6       1.0000 0.70769  0.50684  0.96555  Biso   1.000  O
  H27      1.0000 0.32957  0.95390  0.57328  Biso   1.000  H
  H28      1.0000 0.32915  0.06219  0.54986  Biso   1.000  H
  C32      1.0000 0.30129  0.05196  0.66147  Biso   1.000  C
  H29      1.0000 0.06351  0.83143  0.59719  Biso   1.000  H
  H30      1.0000 0.01995  0.88567  0.67656  Biso   1.000  H
  C33      1.0000 0.17776  0.74981  0.66767  Biso   1.000  C
  H31      1.0000 0.64283  0.79865  0.54415  Biso   1.000  H
  H32      1.0000 0.58936  0.78606  0.62527  Biso   1.000  H
  H33      1.0000 0.73335  0.74518  0.59966  Biso   1.000  H
  H34      1.0000 0.75128  0.70862  0.60147  Biso   1.000  H
  H35      1.0000 0.74511  0.64996  0.67409  Biso   1.000  H
  H36      1.0000 0.84436  0.69539  0.65489  Biso   1.000  H
  H37      1.0000 0.68013  0.07088  0.95365  Biso   1.000  H
  H38      1.0000 0.55210  0.06476  0.95897  Biso   1.000  H
  H39      1.0000 0.57266  0.12795  0.02002  Biso   1.000  H
  C34      1.0000 0.80157  0.33002  0.04876  Biso   1.000  C
  C35      1.0000 0.67246  0.59331  0.92025  Biso   1.000  C
  C36      1.0000 0.32152  0.97550  0.71226  Biso   1.000  C
  C37      1.0000 0.28996  0.14866  0.68336  Biso   1.000  C
  H40      1.0000 0.20848  0.76955  0.70738  Biso   1.000  H
  H41      1.0000 0.24870  0.71468  0.62900  Biso   1.000  H
  C38      1.0000 0.12728  0.66712  0.69685  Biso   1.000  C
  C39      1.0000 0.93614  0.27635  0.00927  Biso   1.000  C
  H42      1.0000 0.78534  0.39847  0.06916  Biso   1.000  H
  H43      1.0000 0.78847  0.28833  0.08885  Biso   1.000  H
  H44      1.0000 0.58251  0.63043  0.92765  Biso   1.000  H
  H45      1.0000 0.70255  0.56862  0.86918  Biso   1.000  H
  C40      1.0000 0.72593  0.66524  0.93879  Biso   1.000  C
  H46      1.0000 0.33012  0.90933  0.69806  Biso   1.000  H
  C41      1.0000 0.32922  0.99503  0.78488  Biso   1.000  C
  O7       1.0000 0.27288  0.22354  0.63240  Biso   1.000  O
  C42      1.0000 0.29490  0.17008  0.75598  Biso   1.000  C
  H47      1.0000 0.09228  0.64825  0.65917  Biso   1.000  H
  H48      1.0000 0.06203  0.69767  0.73925  Biso   1.000  H
  C43      1.0000 0.23822  0.56470  0.71890  Biso   1.000  C
  C44      1.0000 0.06014  0.63795  0.64277  Biso   1.000  C
  C45      1.0000 0.03320  0.69896  0.77216  Biso   1.000  C
  H49      1.0000 0.07002  0.69534  0.74265  Biso   1.000  H
  H50      1.0000 0.19642  0.60379  0.70705  Biso   1.000  H
  H51      1.0000 0.08654  0.65390  0.65999  Biso   1.000  H
  H52      1.0000 0.19775  0.60170  0.70239  Biso   1.000  H
  C46      1.0000 0.98882  0.33145  0.96467  Biso   1.000  C
  C47      1.0000 0.00778  0.17029  0.01673  Biso   1.000  C
  H53      1.0000 0.81484  0.62784  0.93785  Biso   1.000  H
  H54      1.0000 0.68596  0.70107  0.98656  Biso   1.000  H
  C48      1.0000 0.69658  0.74353  0.87615  Biso   1.000  C
  O8       1.0000 0.35349  0.91945  0.83699  Biso   1.000  O
  C49      1.0000 0.31266  0.09490  0.80715  Biso   1.000  C
  C50      1.0000 0.29918  0.31094  0.64370  Biso   1.000  C
  C51      1.0000 0.34131  0.26997  0.62006  Biso   1.000  C
  H55      1.0000 0.28599  0.23645  0.76974  Biso   1.000  H
  H56      1.0000 0.22736  0.50328  0.70705  Biso   1.000  H
  H57      1.0000 0.23781  0.56933  0.77057  Biso   1.000  H
  H58      1.0000 0.31612  0.55957  0.69219  Biso   1.000  H
  H59      1.0000 0.99573  0.70053  0.62889  Biso   1.000  H
  H60      1.0000 0.11872  0.60068  0.59988  Biso   1.000  H
  H61      1.0000 0.02338  0.59347  0.66619  Biso   1.000  H
  H62      1.0000 0.97434  0.66967  0.77249  Biso   1.000  H
  H63      1.0000 0.98919  0.77476  0.77786  Biso   1.000  H
  H64      1.0000 0.07792  0.67343  0.81187  Biso   1.000  H
  C52      1.0000 0.11059  0.28323  0.92644  Biso   1.000  C
  H65      1.0000 0.94185  0.40282  0.95985  Biso   1.000  H
  C53      1.0000 0.12836  0.12064  0.97526  Biso   1.000  C
  O9       1.0000 0.95514  0.11826  0.06428  Biso   1.000  O
  H66      1.0000 0.74413  0.70893  0.82909  Biso   1.000  H
  H67      1.0000 0.60860  0.77405  0.87346  Biso   1.000  H
  C54      1.0000 0.73406  0.82371  0.89776  Biso   1.000  C
  C55      1.0000 0.37840  0.81765  0.81307  Biso   1.000  C
  C56      1.0000 0.31261  0.12117  0.88657  Biso   1.000  C
  H68      1.0000 0.38412  0.28558  0.65209  Biso   1.000  H
  H69      1.0000 0.24444  0.35219  0.68725  Biso   1.000  H
  C57      1.0000 0.28263  0.38076  0.57920  Biso   1.000  C
  C58      1.0000 0.33358  0.34246  0.56159  Biso   1.000  C
  H70      1.0000 0.33011  0.30900  0.66537  Biso   1.000  H
  H71      1.0000 0.42617  0.21599  0.61200  Biso   1.000  H
  C59      1.0000 0.18063  0.17567  0.93078  Biso   1.000  C
  O10      1.0000 0.16917  0.33706  0.88388  Biso   1.000  O
  H72      1.0000 0.17380  0.04872  0.97806  Biso   1.000  H
  C60      1.0000 0.03729  0.02400  0.09225  Biso   1.000  C
  H73      1.0000 0.68107  0.89079  0.88207  Biso   1.000  H
  H74      1.0000 0.81875  0.80547  0.87527  Biso   1.000  H
  H75      1.0000 0.72692  0.82729  0.95014  Biso   1.000  H
  H76      1.0000 0.44488  0.79455  0.77155  Biso   1.000  H
  H77      1.0000 0.30517  0.81751  0.79914  Biso   1.000  H
  H78      1.0000 0.40216  0.77083  0.85196  Biso   1.000  H
  H79      1.0000 0.35440  0.16673  0.88745  Biso   1.000  H
  H80      1.0000 0.35886  0.05692  0.90939  Biso   1.000  H
  C61      1.0000 0.40083  0.37984  0.52978  Biso   1.000  C
  H81      1.0000 0.23025  0.45254  0.59796  Biso   1.000  H
  H82      1.0000 0.23728  0.36138  0.54816  Biso   1.000  H
  H83      1.0000 0.25835  0.36404  0.54086  Biso   1.000  H
  H84      1.0000 0.34538  0.40317  0.57536  Biso   1.000  H
  C62      1.0000 0.45000  0.25774  0.51278  Biso   1.000  C
  C63      1.0000 0.10315  0.44602  0.88026  Biso   1.000  C
  C64      1.0000 0.96670  0.99441  0.15571  Biso   1.000  C
  H85      1.0000 0.07344  0.96762  0.05424  Biso   1.000  H
  H86      1.0000 0.10433  0.03470  0.10766  Biso   1.000  H
  H87      1.0000 0.47080  0.35134  0.55550  Biso   1.000  H
  H88      1.0000 0.42122  0.33625  0.48530  Biso   1.000  H
  C65      1.0000 0.37310  0.49303  0.51086  Biso   1.000  C
  C66      1.0000 0.49906  0.29897  0.44937  Biso   1.000  C
  H89      1.0000 0.42841  0.20389  0.49616  Biso   1.000  H
  H90      1.0000 0.51428  0.22466  0.54229  Biso   1.000  H
  H91      1.0000 0.15442  0.47294  0.84938  Biso   1.000  H
  H92      1.0000 0.08045  0.47915  0.92864  Biso   1.000  H
  H93      1.0000 0.02940  0.46082  0.86035  Biso   1.000  H
  H94      1.0000 0.94558  0.04502  0.19635  Biso   1.000  H
  H95      1.0000 0.88896  0.00171  0.14244  Biso   1.000  H
  C67      1.0000 0.02749  0.89038  0.18133  Biso   1.000  C
  H96      1.0000 0.42367  0.49308  0.46479  Biso   1.000  H
  H97      1.0000 0.39256  0.52652  0.54859  Biso   1.000  H
  H98      1.0000 0.28711  0.53065  0.50746  Biso   1.000  H
  H99      1.0000 0.44711  0.31305  0.41301  Biso   1.000  H
  H100     1.0000 0.58209  0.24877  0.42930  Biso   1.000  H
  H101     1.0000 0.50184  0.36350  0.46380  Biso   1.000  H
  H102     1.0000 0.96964  0.87898  0.21983  Biso   1.000  H
  H103     1.0000 0.04842  0.83918  0.14123  Biso   1.000  H
  C68      1.0000 0.13995  0.87213  0.20952  Biso   1.000  C
  C69      1.0000 0.04091  0.81764  0.23656  Biso   1.000  C
  H104     1.0000 0.02003  0.85017  0.14211  Biso   1.000  H
  H105     1.0000 0.11284  0.88170  0.16975  Biso   1.000  H
  H106     1.0000 0.20369  0.86944  0.16975  Biso   1.000  H
  H107     1.0000 0.16746  0.80661  0.23316  Biso   1.000  H
  H108     1.0000 0.12284  0.92833  0.24424  Biso   1.000  H
  H109     1.0000 0.99344  0.77899  0.23063  Biso   1.000  H
  H110     1.0000 0.12715  0.76972  0.23272  Biso   1.000  H
  H111     1.0000 0.01142  0.85454  0.28384  Biso   1.000  H
  C70      1.0000 0.35837  0.65879  0.34856  Biso   1.000  C
  C71      1.0000 0.42978  0.61345  0.27956  Biso   1.000  C
  C72      1.0000 0.31953  0.76283  0.36688  Biso   1.000  C
  H112     1.0000 0.33709  0.61677  0.38246  Biso   1.000  H
  C73      1.0000 0.46610  0.67262  0.22981  Biso   1.000  C
  O11      1.0000 0.47029  0.51092  0.25861  Biso   1.000  O
  C74      1.0000 0.35834  0.82276  0.31669  Biso   1.000  C
  C75      1.0000 0.23934  0.81112  0.43950  Biso   1.000  C
  C76      1.0000 0.54014  0.62698  0.15379  Biso   1.000  C
  C77      1.0000 0.42998  0.77697  0.24890  Biso   1.000  C
  C78      1.0000 0.45030  0.44478  0.31077  Biso   1.000  C
  O12      1.0000 0.31715  0.92724  0.33748  Biso   1.000  O
  H113     1.0000 0.26003  0.75904  0.47630  Biso   1.000  H
  H114     1.0000 0.25566  0.86901  0.45436  Biso   1.000  H
  C79      1.0000 0.09972  0.85186  0.43478  Biso   1.000  C
  C80      1.0000 0.45415  0.63805  0.09988  Biso   1.000  C
  H115     1.0000 0.59477  0.55325  0.15659  Biso   1.000  H
  H116     1.0000 0.59162  0.66344  0.13657  Biso   1.000  H
  H117     1.0000 0.45429  0.81793  0.21561  Biso   1.000  H
  H118     1.0000 0.44606  0.47184  0.35876  Biso   1.000  H
  H119     1.0000 0.37349  0.44103  0.30797  Biso   1.000  H
  H120     1.0000 0.51754  0.37579  0.30167  Biso   1.000  H
  C81      1.0000 0.35774  0.98952  0.29130  Biso   1.000  C
  C82      1.0000 0.03677  0.78885  0.45118  Biso   1.000  C
  C83      1.0000 0.03815  0.95183  0.41257  Biso   1.000  C
  C84      1.0000 0.41543  0.56095  0.09160  Biso   1.000  C
  C85      1.0000 0.40951  0.72605  0.06011  Biso   1.000  C
  H121     1.0000 0.44789  0.95956  0.28291  Biso   1.000  H
  H122     1.0000 0.33169  0.99076  0.24440  Biso   1.000  H
  C86      1.0000 0.30856  0.09446  0.32218  Biso   1.000  C
  O13      1.0000 0.10273  0.68981  0.47329  Biso   1.000  O
  C87      1.0000 0.91153  0.82880  0.44658  Biso   1.000  C
  H123     1.0000 0.08048  0.99392  0.40198  Biso   1.000  H
  C88      1.0000 0.91261  0.99145  0.40560  Biso   1.000  C
  C89      1.0000 0.33443  0.56884  0.04432  Biso   1.000  C
  H124     1.0000 0.44449  0.50127  0.11858  Biso   1.000  H
  C90      1.0000 0.32657  0.73614  0.01168  Biso   1.000  C
  O14      1.0000 0.45184  0.80096  0.07048  Biso   1.000  O
  H125     1.0000 0.21852  0.12336  0.33408  Biso   1.000  H
  H126     1.0000 0.33086  0.13858  0.28708  Biso   1.000  H
  C91      1.0000 0.35506  0.09247  0.38279  Biso   1.000  C
  C92      1.0000 0.33092  0.18958  0.30737  Biso   1.000  C
  H127     1.0000 0.31700  0.08387  0.37319  Biso   1.000  H
  H128     1.0000 0.22007  0.12015  0.32207  Biso   1.000  H
  C93      1.0000 0.04785  0.62168  0.48047  Biso   1.000  C
  C94      1.0000 0.84782  0.92940  0.42338  Biso   1.000  C
  H129     1.0000 0.86906  0.78736  0.45936  Biso   1.000  H
  O15      1.0000 0.84688  0.08863  0.38196  Biso   1.000  O
  O16      1.0000 0.29260  0.49303  0.03439  Biso   1.000  O
  C95      1.0000 0.28885  0.65686  0.00367  Biso   1.000  C
  H130     1.0000 0.29726  0.79609  0.98514  Biso   1.000  H
  C96      1.0000 0.40849  0.89122  0.03137  Biso   1.000  C
  H131     1.0000 0.31098  0.06930  0.42261  Biso   1.000  H
  H132     1.0000 0.44207  0.04177  0.37456  Biso   1.000  H
  C97      1.0000 0.34708  0.20087  0.40560  Biso   1.000  C
  C98      1.0000 0.23909  0.29347  0.34801  Biso   1.000  C
  H133     1.0000 0.41257  0.17453  0.31807  Biso   1.000  H
  H134     1.0000 0.33439  0.20000  0.25521  Biso   1.000  H
  H135     1.0000 0.02040  0.61648  0.43561  Biso   1.000  H
  H136     1.0000 0.10690  0.55358  0.49100  Biso   1.000  H
  H137     1.0000 0.97768  0.64736  0.51980  Biso   1.000  H
  C99      1.0000 0.71189  0.97050  0.41526  Biso   1.000  C
  C100     1.0000 0.90817  0.15169  0.36101  Biso   1.000  C
  C101     1.0000 0.32775  0.40655  0.07969  Biso   1.000  C
  C102     1.0000 0.19859  0.66993  0.95124  Biso   1.000  C
  H138     1.0000 0.32013  0.92907  0.04629  Biso   1.000  H
  H139     1.0000 0.44811  0.93510  0.04097  Biso   1.000  H
  H140     1.0000 0.42751  0.87199  0.97993  Biso   1.000  H
  H141     1.0000 0.35734  0.20130  0.45579  Biso   1.000  H
  H142     1.0000 0.41081  0.21388  0.37467  Biso   1.000  H
  H143     1.0000 0.26682  0.25476  0.40028  Biso   1.000  H
  H144     1.0000 0.24901  0.29124  0.39847  Biso   1.000  H
  H145     1.0000 0.25504  0.34999  0.32591  Biso   1.000  H
  H146     1.0000 0.15588  0.30456  0.34511  Biso   1.000  H
  C103     1.0000 0.69892  0.94790  0.33847  Biso   1.000  C
  H147     1.0000 0.67102  0.93776  0.45009  Biso   1.000  H
  H148     1.0000 0.67064  0.04596  0.42667  Biso   1.000  H
  H149     1.0000 0.93676  0.16844  0.40281  Biso   1.000  H
  H150     1.0000 0.98022  0.11428  0.32339  Biso   1.000  H
  C104     1.0000 0.82245  0.25005  0.33227  Biso   1.000  C
  C105     1.0000 0.27422  0.33471  0.06121  Biso   1.000  C
  H151     1.0000 0.41778  0.36944  0.07229  Biso   1.000  H
  H152     1.0000 0.29764  0.43125  0.13081  Biso   1.000  H
  C106     1.0000 0.06401  0.72359  0.99073  Biso   1.000  C
  H153     1.0000 0.21494  0.60140  0.93084  Biso   1.000  H
  H154     1.0000 0.21168  0.71162  0.91115  Biso   1.000  H
  C107     1.0000 0.71024  0.85120  0.31659  Biso   1.000  C
  C108     1.0000 0.67868  0.02436  0.28768  Biso   1.000  C
  H155     1.0000 0.79169  0.23040  0.29256  Biso   1.000  H
  H156     1.0000 0.75145  0.28527  0.37099  Biso   1.000  H
  C109     1.0000 0.87293  0.33274  0.30309  Biso   1.000  C
  C110     1.0000 0.30359  0.25641  0.12379  Biso   1.000  C
  H157     1.0000 0.18533  0.37211  0.06209  Biso   1.000  H
  H158     1.0000 0.31421  0.29887  0.01338  Biso   1.000  H
  C111     1.0000 0.01137  0.66842  0.03532  Biso   1.000  C
  C112     1.0000 0.99242  0.82957  0.98322  Biso   1.000  C
  C113     1.0000 0.70527  0.82987  0.24397  Biso   1.000  C
  O17      1.0000 0.72731  0.77633  0.36759  Biso   1.000  O
  C114     1.0000 0.67101  0.00492  0.21512  Biso   1.000  C
  H159     1.0000 0.67013  0.09061  0.30189  Biso   1.000  H
  H160     1.0000 0.90797  0.35169  0.34077  Biso   1.000  H
  H161     1.0000 0.93814  0.30227  0.26069  Biso   1.000  H
  C115     1.0000 0.76193  0.43524  0.28110  Biso   1.000  C
  C116     1.0000 0.94006  0.36192  0.35717  Biso   1.000  C
  C117     1.0000 0.96705  0.30098  0.22779  Biso   1.000  C
  H162     1.0000 0.93027  0.30452  0.25729  Biso   1.000  H
  H163     1.0000 0.80374  0.39616  0.29289  Biso   1.000  H
  H164     1.0000 0.91361  0.34605  0.34001  Biso   1.000  H
  H165     1.0000 0.80248  0.39825  0.29761  Biso   1.000  H
  H166     1.0000 0.25606  0.29094  0.17091  Biso   1.000  H
  H167     1.0000 0.39165  0.22589  0.12648  Biso   1.000  H
  C118     1.0000 0.26615  0.17615  0.10218  Biso   1.000  C
  H168     1.0000 0.05836  0.59704  0.04009  Biso   1.000  H
  C119     1.0000 0.88970  0.71664  0.07350  Biso   1.000  C
  C120     1.0000 0.87185  0.87922  0.02468  Biso   1.000  C
  O18      1.0000 0.04502  0.88169  0.93566  Biso   1.000  O
  C121     1.0000 0.68751  0.90504  0.19279  Biso   1.000  C
  H169     1.0000 0.71422  0.76342  0.23020  Biso   1.000  H
  C122     1.0000 0.70102  0.68893  0.35630  Biso   1.000  C
  C123     1.0000 0.65894  0.72997  0.37988  Biso   1.000  C
  O19      1.0000 0.64667  0.08049  0.16301  Biso   1.000  O
  H170     1.0000 0.77281  0.49667  0.29289  Biso   1.000  H
  H171     1.0000 0.76248  0.43054  0.22938  Biso   1.000  H
  H172     1.0000 0.68403  0.44038  0.30781  Biso   1.000  H
  H173     1.0000 0.88145  0.39926  0.40006  Biso   1.000  H
  H174     1.0000 0.97686  0.40647  0.33381  Biso   1.000  H
  H175     1.0000 0.00446  0.29934  0.37110  Biso   1.000  H
  H176     1.0000 0.92237  0.32644  0.18808  Biso   1.000  H
  H177     1.0000 0.02581  0.33027  0.22751  Biso   1.000  H
  H178     1.0000 0.01106  0.22518  0.22208  Biso   1.000  H
  H179     1.0000 0.31913  0.10908  0.11787  Biso   1.000  H
  H180     1.0000 0.18141  0.19448  0.12467  Biso   1.000  H
  H181     1.0000 0.27328  0.17257  0.04980  Biso   1.000  H
  O20      1.0000 0.83108  0.66288  0.11606  Biso   1.000  O
  C124     1.0000 0.81952  0.82428  0.06922  Biso   1.000  C
  H182     1.0000 0.82637  0.95123  0.02188  Biso   1.000  H
  C125     1.0000 0.96290  0.97587  0.90774  Biso   1.000  C
  C126     1.0000 0.68760  0.87870  0.11337  Biso   1.000  C
  H183     1.0000 0.61612  0.71437  0.34790  Biso   1.000  H
  H184     1.0000 0.75581  0.64776  0.31269  Biso   1.000  H
  C127     1.0000 0.71761  0.61919  0.42080  Biso   1.000  C
  C128     1.0000 0.66657  0.65749  0.43840  Biso   1.000  C
  H185     1.0000 0.67014  0.69094  0.33458  Biso   1.000  H
  H186     1.0000 0.57398  0.78396  0.38800  Biso   1.000  H
  C129     1.0000 0.62177  0.18230  0.18687  Biso   1.000  C
  C130     1.0000 0.89706  0.55385  0.11968  Biso   1.000  C
  H187     1.0000 0.89594  0.96517  0.89233  Biso   1.000  H
  H188     1.0000 0.92673  0.03233  0.94570  Biso   1.000  H
  C131     1.0000 0.03347  0.00554  0.84423  Biso   1.000  C
  H189     1.0000 0.64581  0.83313  0.11249  Biso   1.000  H
  H190     1.0000 0.64129  0.94303  0.09061  Biso   1.000  H
  C132     1.0000 0.59946  0.62002  0.47016  Biso   1.000  C
  H191     1.0000 0.77004  0.54732  0.40198  Biso   1.000  H
  H192     1.0000 0.76289  0.63856  0.45179  Biso   1.000  H
  H193     1.0000 0.74194  0.63582  0.45908  Biso   1.000  H
  H194     1.0000 0.65479  0.59677  0.42458  Biso   1.000  H
  C133     1.0000 0.55021  0.74212  0.48716  Biso   1.000  C
  H195     1.0000 0.55529  0.20539  0.22839  Biso   1.000  H
  H196     1.0000 0.69503  0.18236  0.20080  Biso   1.000  H
  H197     1.0000 0.59804  0.22903  0.14798  Biso   1.000  H
  H198     1.0000 0.84577  0.52693  0.15061  Biso   1.000  H
  H199     1.0000 0.91971  0.52079  0.07130  Biso   1.000  H
  H200     1.0000 0.97089  0.53904  0.13959  Biso   1.000  H
  C134     1.0000 0.97280  0.10949  0.81862  Biso   1.000  C
  H201     1.0000 0.05461  0.95485  0.80364  Biso   1.000  H
  H202     1.0000 0.11125  0.99815  0.85750  Biso   1.000  H
  H203     1.0000 0.52939  0.64853  0.44449  Biso   1.000  H
  H204     1.0000 0.57906  0.66362  0.51470  Biso   1.000  H
  C135     1.0000 0.62711  0.50683  0.48908  Biso   1.000  C
  C136     1.0000 0.50110  0.70098  0.55057  Biso   1.000  C
  H205     1.0000 0.57184  0.79606  0.50378  Biso   1.000  H
  H206     1.0000 0.48593  0.77520  0.45766  Biso   1.000  H
  H207     1.0000 0.95179  0.16068  0.85871  Biso   1.000  H
  C137     1.0000 0.86030  0.12782  0.79042  Biso   1.000  C
  C138     1.0000 0.95924  0.18231  0.76344  Biso   1.000  C
  H208     1.0000 0.98018  0.14969  0.85783  Biso   1.000  H
  H209     1.0000 0.88731  0.11824  0.83024  Biso   1.000  H
  H210     1.0000 0.03057  0.12089  0.78011  Biso   1.000  H
  H211     1.0000 0.57649  0.50686  0.53516  Biso   1.000  H
  H212     1.0000 0.60771  0.47335  0.45140  Biso   1.000  H
  H213     1.0000 0.71306  0.46930  0.49248  Biso   1.000  H
  H214     1.0000 0.55317  0.68682  0.58699  Biso   1.000  H
  H215     1.0000 0.41814  0.75118  0.57070  Biso   1.000  H
  H216     1.0000 0.49831  0.63645  0.53620  Biso   1.000  H
  H217     1.0000 0.79647  0.13050  0.83024  Biso   1.000  H
  H218     1.0000 0.83278  0.19334  0.76684  Biso   1.000  H
  H219     1.0000 0.87733  0.07161  0.75571  Biso   1.000  H
  H220     1.0000 0.87310  0.23022  0.76722  Biso   1.000  H
  H221     1.0000 0.98875  0.14541  0.71610  Biso   1.000  H
  H222     1.0000 0.00685  0.22088  0.76931  Biso   1.000  H
  Ne1      1.0000 0.03550  0.83897  0.22526  Biso   1.000  Ne
  He1      1.0000 0.10181  0.52016  0.27462  Biso   1.000  He
  He2      1.0000 0.09777  0.17995  0.01326  Biso   1.000  He
  Ar1      1.0000 0.06767  0.82168  0.20512  Biso   1.000  Ar
  Ne2      1.0000 0.96471  0.16094  0.77470  Biso   1.000  Ne
  He3      1.0000 0.94451  0.86359  0.95659  Biso   1.000  He
  He4      1.0000 0.89865  0.45447  0.73033  Biso   1.000  He
  Ar2      1.0000 0.93250  0.17826  0.79486  Biso   1.000  Ar
