data_image0
_cell_length_a       16.115
_cell_length_b       16.717
_cell_length_c       31.027
_cell_angle_alpha    90
_cell_angle_beta     93.93
_cell_angle_gamma    90

_symmetry_space_group_name_H-M    "P 1"
_symmetry_int_tables_number       1

loop_
  _symmetry_equiv_pos_as_xyz
  'x, y, z'

loop_
  _atom_site_label
  _atom_site_occupancy
  _atom_site_fract_x
  _atom_site_fract_y
  _atom_site_fract_z
  _atom_site_thermal_displace_type
  _atom_site_B_iso_or_equiv
  _atom_site_type_symbol
  C1       1.0000 0.65351  0.45720  0.41681  Biso   1.000  C
  C2       1.0000 0.60872  0.40617  0.38822  Biso   1.000  C
  C3       1.0000 0.67797  0.53108  0.40324  Biso   1.000  C
  H1       1.0000 0.66668  0.44099  0.44511  Biso   1.000  H
  C4       1.0000 0.59071  0.43028  0.34574  Biso   1.000  C
  H2       1.0000 0.59102  0.35658  0.39749  Biso   1.000  H
  C5       1.0000 0.65939  0.55638  0.36118  Biso   1.000  C
  H3       1.0000 0.70770  0.56469  0.42259  Biso   1.000  H
  C6       1.0000 0.54609  0.38159  0.31004  Biso   1.000  C
  C7       1.0000 0.61583  0.50601  0.33249  Biso   1.000  C
  H4       1.0000 0.67603  0.60669  0.35230  Biso   1.000  H
  C8       1.0000 0.47441  0.43327  0.29163  Biso   1.000  C
  C9       1.0000 0.60729  0.37740  0.27486  Biso   1.000  C
  H5       1.0000 0.52832  0.32889  0.31970  Biso   1.000  H
  C10      1.0000 0.59248  0.52121  0.28442  Biso   1.000  C
  C11      1.0000 0.39151  0.41227  0.28836  Biso   1.000  C
  C12      1.0000 0.49898  0.50882  0.27751  Biso   1.000  C
  C13      1.0000 0.63330  0.45247  0.26132  Biso   1.000  C
  C14      1.0000 0.64061  0.30891  0.25745  Biso   1.000  C
  H6       1.0000 0.61039  0.57403  0.27479  Biso   1.000  H
  C15      1.0000 0.33292  0.46510  0.26995  Biso   1.000  C
  H7       1.0000 0.37479  0.36280  0.29851  Biso   1.000  H
  C16      1.0000 0.43982  0.56063  0.25900  Biso   1.000  C
  C17      1.0000 0.69142  0.45887  0.23057  Biso   1.000  C
  C18      1.0000 0.69972  0.31399  0.22663  Biso   1.000  C
  H8       1.0000 0.62318  0.25890  0.26639  Biso   1.000  H
  O1       1.0000 0.24936  0.44607  0.26730  Biso   1.000  O
  C19      1.0000 0.35592  0.53957  0.25470  Biso   1.000  C
  H9       1.0000 0.45628  0.61028  0.24921  Biso   1.000  H
  H10      1.0000 0.70840  0.50888  0.22139  Biso   1.000  H
  C20      1.0000 0.72393  0.38930  0.21354  Biso   1.000  C
  C21      1.0000 0.73713  0.23862  0.20870  Biso   1.000  C
  H11      1.0000 0.24312  0.40139  0.27741  Biso   1.000  H
  C22      1.0000 0.29079  0.59490  0.23325  Biso   1.000  C
  O2       1.0000 0.78306  0.39337  0.18385  Biso   1.000  O
  C23      1.0000 0.68662  0.20608  0.16967  Biso   1.000  C
  H12      1.0000 0.74089  0.19800  0.23108  Biso   1.000  H
  H13      1.0000 0.79299  0.25022  0.20081  Biso   1.000  H
  H14      1.0000 0.23877  0.58773  0.24679  Biso   1.000  H
  H15      1.0000 0.30840  0.64988  0.23790  Biso   1.000  H
  C24      1.0000 0.27623  0.58019  0.18498  Biso   1.000  C
  H16      1.0000 0.78329  0.43842  0.17339  Biso   1.000  H
  C25      1.0000 0.69717  0.23671  0.12832  Biso   1.000  C
  C26      1.0000 0.63019  0.14369  0.17377  Biso   1.000  C
  C27      1.0000 0.32083  0.62170  0.15523  Biso   1.000  C
  C28      1.0000 0.21679  0.52480  0.16860  Biso   1.000  C
  C29      1.0000 0.65342  0.20590  0.09207  Biso   1.000  C
  H17      1.0000 0.73442  0.27852  0.12519  Biso   1.000  H
  O3       1.0000 0.62011  0.11390  0.21399  Biso   1.000  O
  C30      1.0000 0.58478  0.11252  0.13720  Biso   1.000  C
  O4       1.0000 0.37807  0.67757  0.17193  Biso   1.000  O
  C31      1.0000 0.30780  0.60872  0.11107  Biso   1.000  C
  C32      1.0000 0.20123  0.51211  0.12502  Biso   1.000  C
  H18      1.0000 0.18700  0.49572  0.18789  Biso   1.000  H
  C33      1.0000 0.66052  0.22959  0.04481  Biso   1.000  C
  C34      1.0000 0.59759  0.14273  0.09695  Biso   1.000  C
  H19      1.0000 0.60177  0.06819  0.21189  Biso   1.000  H
  H20      1.0000 0.54652  0.07160  0.14021  Biso   1.000  H
  H21      1.0000 0.39990  0.69983  0.15210  Biso   1.000  H
  H22      1.0000 0.33889  0.63642  0.09181  Biso   1.000  H
  C35      1.0000 0.24788  0.55423  0.09617  Biso   1.000  C
  C36      1.0000 0.13392  0.45899  0.10260  Biso   1.000  C
  C37      1.0000 0.57291  0.24981  0.02656  Biso   1.000  C
  H23      1.0000 0.70022  0.27308  0.04138  Biso   1.000  H
  C38      1.0000 0.68361  0.15332  0.02177  Biso   1.000  C
  C39      1.0000 0.55578  0.11408  0.05376  Biso   1.000  C
  C40      1.0000 0.22047  0.53682  0.04888  Biso   1.000  C
  H24      1.0000 0.10098  0.42998  0.12289  Biso   1.000  H
  C41      1.0000 0.08171  0.51582  0.07279  Biso   1.000  C
  C42      1.0000 0.17797  0.40378  0.07198  Biso   1.000  C
  C43      1.0000 0.54721  0.31967  0.00575  Biso   1.000  C
  C44      1.0000 0.51617  0.18807  0.03205  Biso   1.000  C
  C45      1.0000 0.62759  0.09069  0.02665  Biso   1.000  C
  C46      1.0000 0.75238  0.14129  0.99796  Biso   1.000  C
  H25      1.0000 0.51611  0.07053  0.05699  Biso   1.000  H
  H26      1.0000 0.25328  0.56571  0.02849  Biso   1.000  H
  C47      1.0000 0.12871  0.55752  0.04426  Biso   1.000  C
  C48      1.0000 0.22462  0.44589  0.04358  Biso   1.000  C
  C49      1.0000 0.99692  0.52731  0.07262  Biso   1.000  C
  C50      1.0000 0.17469  0.32057  0.07059  Biso   1.000  C
  C51      1.0000 0.46480  0.32811  0.99028  Biso   1.000  C
  H27      1.0000 0.58502  0.36077  0.00220  Biso   1.000  H
  C52      1.0000 0.43401  0.19782  0.01699  Biso   1.000  C
  C53      1.0000 0.64069  0.01669  0.00882  Biso   1.000  C
  H28      1.0000 0.78959  0.18293  0.99399  Biso   1.000  H
  C54      1.0000 0.76503  0.06592  0.98000  Biso   1.000  C
  C55      1.0000 0.09058  0.61117  0.01493  Biso   1.000  C
  C56      1.0000 0.26738  0.40492  0.01354  Biso   1.000  C
  H29      1.0000 0.96533  0.49991  0.09181  Biso   1.000  H
  C57      1.0000 0.95961  0.58222  0.04239  Biso   1.000  C
  H30      1.0000 0.14331  0.29252  0.08958  Biso   1.000  H
  C58      1.0000 0.21880  0.27978  0.04045  Biso   1.000  C
  C59      1.0000 0.40668  0.26751  0.99606  Biso   1.000  C
  O5       1.0000 0.43750  0.39714  0.96957  Biso   1.000  O
  H31      1.0000 0.39619  0.15691  0.02100  Biso   1.000  H
  H32      1.0000 0.60351  0.97512  0.01250  Biso   1.000  H
  C60      1.0000 0.71000  0.00461  0.98524  Biso   1.000  C
  H33      1.0000 0.81130  0.05719  0.96430  Biso   1.000  H
  C61      1.0000 0.00581  0.62272  0.01441  Biso   1.000  C
  H34      1.0000 0.12200  0.63899  0.99580  Biso   1.000  H
  C62      1.0000 0.26557  0.32123  0.01115  Biso   1.000  C
  H35      1.0000 0.29811  0.43351  0.99441  Biso   1.000  H
  H36      1.0000 0.90248  0.59072  0.04161  Biso   1.000  H
  O6       1.0000 0.21926  0.19794  0.03780  Biso   1.000  O
  C63      1.0000 0.31628  0.27738  0.97968  Biso   1.000  C
  H37      1.0000 0.47719  0.42687  0.96660  Biso   1.000  H
  H38      1.0000 0.71912  0.95490  0.97299  Biso   1.000  H
  H39      1.0000 0.98001  0.65837  0.99480  Biso   1.000  H
  H40      1.0000 0.18702  0.17940  0.05450  Biso   1.000  H
  H41      1.0000 0.29221  0.22498  0.97409  Biso   1.000  H
  H42      1.0000 0.31388  0.30651  0.95261  Biso   1.000  H
  C64      1.0000 0.34652  0.54280  0.58319  Biso   1.000  C
  C65      1.0000 0.32200  0.46892  0.59676  Biso   1.000  C
  H43      1.0000 0.33329  0.55901  0.55489  Biso   1.000  H
  C66      1.0000 0.39131  0.59383  0.61178  Biso   1.000  C
  C67      1.0000 0.34058  0.44362  0.63882  Biso   1.000  C
  H44      1.0000 0.29233  0.43531  0.57740  Biso   1.000  H
  C68      1.0000 0.40933  0.56972  0.65426  Biso   1.000  C
  H45      1.0000 0.40901  0.64342  0.60251  Biso   1.000  H
  C69      1.0000 0.38420  0.49399  0.66751  Biso   1.000  C
  H46      1.0000 0.32401  0.39331  0.64770  Biso   1.000  H
  C70      1.0000 0.45388  0.61841  0.68996  Biso   1.000  C
  C71      1.0000 0.40749  0.47879  0.71558  Biso   1.000  C
  C72      1.0000 0.39268  0.62260  0.72514  Biso   1.000  C
  C73      1.0000 0.52562  0.56673  0.70837  Biso   1.000  C
  H47      1.0000 0.47171  0.67111  0.68030  Biso   1.000  H
  C74      1.0000 0.36673  0.54753  0.73868  Biso   1.000  C
  H48      1.0000 0.38958  0.42597  0.72520  Biso   1.000  H
  C75      1.0000 0.50099  0.49118  0.72249  Biso   1.000  C
  C76      1.0000 0.35942  0.69109  0.74255  Biso   1.000  C
  C77      1.0000 0.60852  0.58773  0.71164  Biso   1.000  C
  C78      1.0000 0.30861  0.54113  0.76943  Biso   1.000  C
  C79      1.0000 0.56021  0.43937  0.74100  Biso   1.000  C
  C80      1.0000 0.30032  0.68601  0.77337  Biso   1.000  C
  H49      1.0000 0.37679  0.74110  0.73360  Biso   1.000  H
  C81      1.0000 0.66711  0.53490  0.73005  Biso   1.000  C
  H50      1.0000 0.62518  0.63720  0.70149  Biso   1.000  H
  H51      1.0000 0.29157  0.49112  0.77861  Biso   1.000  H
  C82      1.0000 0.27610  0.61070  0.78646  Biso   1.000  C
  H52      1.0000 0.54369  0.38972  0.75079  Biso   1.000  H
  C83      1.0000 0.64411  0.46043  0.74530  Biso   1.000  C
  C84      1.0000 0.26291  0.76138  0.79130  Biso   1.000  C
  O7       1.0000 0.75061  0.55393  0.73270  Biso   1.000  O
  O8       1.0000 0.21697  0.60663  0.81615  Biso   1.000  O
  C85      1.0000 0.70918  0.40510  0.76675  Biso   1.000  C
  C86      1.0000 0.31342  0.79392  0.83033  Biso   1.000  C
  H53      1.0000 0.25908  0.80200  0.76891  Biso   1.000  H
  H54      1.0000 0.20698  0.74978  0.79918  Biso   1.000  H
  H55      1.0000 0.75691  0.59861  0.72259  Biso   1.000  H
  H56      1.0000 0.21668  0.56158  0.82661  Biso   1.000  H
  H57      1.0000 0.76120  0.41227  0.75321  Biso   1.000  H
  H58      1.0000 0.69163  0.35012  0.76210  Biso   1.000  H
  C87      1.0000 0.72381  0.41981  0.81501  Biso   1.000  C
  C88      1.0000 0.30280  0.76329  0.87168  Biso   1.000  C
  C89      1.0000 0.36978  0.85631  0.82622  Biso   1.000  C
  C90      1.0000 0.67921  0.37830  0.84477  Biso   1.000  C
  C91      1.0000 0.78318  0.47520  0.83139  Biso   1.000  C
  C92      1.0000 0.34662  0.79410  0.90793  Biso   1.000  C
  H59      1.0000 0.26561  0.72148  0.87481  Biso   1.000  H
  O9       1.0000 0.37992  0.88610  0.78600  Biso   1.000  O
  C93      1.0000 0.41519  0.88748  0.86280  Biso   1.000  C
  O10      1.0000 0.62196  0.32243  0.82807  Biso   1.000  O
  C94      1.0000 0.69217  0.39128  0.88893  Biso   1.000  C
  C95      1.0000 0.79880  0.48789  0.87497  Biso   1.000  C
  H60      1.0000 0.81303  0.50428  0.81211  Biso   1.000  H
  C96      1.0000 0.33951  0.77041  0.95519  Biso   1.000  C
  C97      1.0000 0.40238  0.85727  0.90305  Biso   1.000  C
  H61      1.0000 0.39820  0.93181  0.78810  Biso   1.000  H
  H62      1.0000 0.45351  0.92840  0.85979  Biso   1.000  H
  H63      1.0000 0.60013  0.30017  0.84790  Biso   1.000  H
  H64      1.0000 0.66108  0.36358  0.90819  Biso   1.000  H
  C98      1.0000 0.75210  0.44577  0.90386  Biso   1.000  C
  C99      1.0000 0.86611  0.54101  0.89739  Biso   1.000  C
  C100     1.0000 0.42712  0.75019  0.97344  Biso   1.000  C
  H65      1.0000 0.29981  0.72692  0.95861  Biso   1.000  H
  C101     1.0000 0.31643  0.84668  0.97822  Biso   1.000  C
  C102     1.0000 0.44419  0.88592  0.94624  Biso   1.000  C
  C103     1.0000 0.77950  0.46318  0.95112  Biso   1.000  C
  H66      1.0000 0.89899  0.57002  0.87711  Biso   1.000  H
  C104     1.0000 0.91832  0.48418  0.92721  Biso   1.000  C
  C105     1.0000 0.82200  0.59622  0.92802  Biso   1.000  C
  C106     1.0000 0.45283  0.68033  0.99425  Biso   1.000  C
  C107     1.0000 0.48380  0.81193  0.96795  Biso   1.000  C
  C108     1.0000 0.37238  0.90931  0.97335  Biso   1.000  C
  C109     1.0000 0.24759  0.85871  0.00203  Biso   1.000  C
  H67      1.0000 0.48392  0.92947  0.94301  Biso   1.000  H
  H68      1.0000 0.74669  0.43429  0.97150  Biso   1.000  H
  C110     1.0000 0.87132  0.44248  0.95574  Biso   1.000  C
  C111     1.0000 0.77542  0.55411  0.95642  Biso   1.000  C
  C112     1.0000 0.00311  0.47269  0.92737  Biso   1.000  C
  C113     1.0000 0.82528  0.67943  0.92941  Biso   1.000  C
  H69      1.0000 0.41501  0.63923  0.99780  Biso   1.000  H
  C114     1.0000 0.53523  0.67189  0.00972  Biso   1.000  C
  C115     1.0000 0.56602  0.80218  0.98301  Biso   1.000  C
  C116     1.0000 0.35928  0.98331  0.99118  Biso   1.000  C
  H70      1.0000 0.21038  0.81707  0.00601  Biso   1.000  H
  C117     1.0000 0.23500  0.93408  0.02000  Biso   1.000  C
  C118     1.0000 0.90939  0.38883  0.98507  Biso   1.000  C
  C119     1.0000 0.73259  0.59508  0.98646  Biso   1.000  C
  H71      1.0000 0.03471  0.50009  0.90819  Biso   1.000  H
  C120     1.0000 0.04042  0.41778  0.95761  Biso   1.000  C
  H72      1.0000 0.85672  0.70748  0.91041  Biso   1.000  H
  C121     1.0000 0.78123  0.72022  0.95955  Biso   1.000  C
  O11      1.0000 0.56253  0.60286  0.03043  Biso   1.000  O
  C122     1.0000 0.59329  0.73249  0.00394  Biso   1.000  C
  H73      1.0000 0.60378  0.84309  0.97900  Biso   1.000  H
  C123     1.0000 0.28997  0.99539  0.01476  Biso   1.000  C
  H74      1.0000 0.39652  0.02488  0.98750  Biso   1.000  H
  H75      1.0000 0.18867  0.94281  0.03570  Biso   1.000  H
  C124     1.0000 0.99422  0.37728  0.98559  Biso   1.000  C
  H76      1.0000 0.87803  0.36101  0.00420  Biso   1.000  H
  C125     1.0000 0.73440  0.67877  0.98885  Biso   1.000  C
  H77      1.0000 0.70192  0.56649  0.00559  Biso   1.000  H
  H78      1.0000 0.09749  0.40928  0.95839  Biso   1.000  H
  O12      1.0000 0.78077  0.80206  0.96220  Biso   1.000  O
  H79      1.0000 0.52278  0.57313  0.03340  Biso   1.000  H
  C126     1.0000 0.68369  0.72262  0.02032  Biso   1.000  C
  H80      1.0000 0.28092  0.04510  0.02701  Biso   1.000  H
  H81      1.0000 0.02002  0.34163  0.00520  Biso   1.000  H
  H82      1.0000 0.81301  0.82060  0.94550  Biso   1.000  H
  H83      1.0000 0.70783  0.77502  0.02591  Biso   1.000  H
  H84      1.0000 0.68609  0.69349  0.04739  Biso   1.000  H
  O13      1.0000 0.71925  0.30203  0.53780  Biso   1.000  O
  C127     1.0000 0.71879  0.22020  0.54045  Biso   1.000  C
  H85      1.0000 0.68701  0.32057  0.55450  Biso   1.000  H
  C128     1.0000 0.76562  0.17880  0.51114  Biso   1.000  C
  C129     1.0000 0.67467  0.17940  0.57059  Biso   1.000  C
  C130     1.0000 0.81632  0.22259  0.47968  Biso   1.000  C
  C131     1.0000 0.76742  0.09511  0.51354  Biso   1.000  C
  C132     1.0000 0.67802  0.09619  0.57198  Biso   1.000  C
  H86      1.0000 0.64330  0.20751  0.58962  Biso   1.000  H
  C133     1.0000 0.90673  0.23252  0.49606  Biso   1.000  C
  H87      1.0000 0.79219  0.27499  0.47409  Biso   1.000  H
  H88      1.0000 0.81393  0.19352  0.45261  Biso   1.000  H
  H89      1.0000 0.79810  0.06652  0.49441  Biso   1.000  H
  C134     1.0000 0.72460  0.05408  0.54358  Biso   1.000  C
  C135     1.0000 0.63391  0.04098  0.60260  Biso   1.000  C
  C136     1.0000 0.96479  0.17192  0.49028  Biso   1.000  C
  C137     1.0000 0.93400  0.30221  0.51699  Biso   1.000  C
  C138     1.0000 0.72052  0.96321  0.54888  Biso   1.000  C
  H90      1.0000 0.60103  0.06999  0.62289  Biso   1.000  H
  C139     1.0000 0.70122  0.98792  0.62502  Biso   1.000  C
  C140     1.0000 0.58170  0.98421  0.57278  Biso   1.000  C
  O14      1.0000 0.93748  0.10283  0.46957  Biso   1.000  O
  C141     1.0000 0.04719  0.18030  0.50575  Biso   1.000  C
  H91      1.0000 0.89618  0.34312  0.52100  Biso   1.000  H
  C142     1.0000 0.01622  0.31190  0.53205  Biso   1.000  C
  C143     1.0000 0.74792  0.94580  0.59617  Biso   1.000  C
  H92      1.0000 0.75333  0.93432  0.52849  Biso   1.000  H
  C144     1.0000 0.62869  0.94251  0.54426  Biso   1.000  C
  C145     1.0000 0.71677  0.97517  0.66860  Biso   1.000  C
  C146     1.0000 0.49691  0.97272  0.57262  Biso   1.000  C
  H93      1.0000 0.97718  0.07310  0.46659  Biso   1.000  H
  H94      1.0000 0.08501  0.13920  0.50220  Biso   1.000  H
  C147     1.0000 0.07290  0.25022  0.52655  Biso   1.000  C
  C148     1.0000 0.05582  0.38589  0.55376  Biso   1.000  C
  C149     1.0000 0.80778  0.89131  0.61107  Biso   1.000  C
  C150     1.0000 0.59063  0.88880  0.51492  Biso   1.000  C
  H95      1.0000 0.68699  0.00431  0.68789  Biso   1.000  H
  C151     1.0000 0.77621  0.91978  0.68498  Biso   1.000  C
  H96      1.0000 0.46531  0.00012  0.59181  Biso   1.000  H
  C152     1.0000 0.45960  0.91781  0.54238  Biso   1.000  C
  C153     1.0000 0.16051  0.27038  0.54481  Biso   1.000  C
  H97      1.0000 0.01610  0.42950  0.55699  Biso   1.000  H
  C154     1.0000 0.12758  0.40928  0.52665  Biso   1.000  C
  C155     1.0000 0.09758  0.35730  0.59695  Biso   1.000  C
  C156     1.0000 0.82081  0.87833  0.65523  Biso   1.000  C
  H98      1.0000 0.83888  0.86361  0.59181  Biso   1.000  H
  C157     1.0000 0.50580  0.87731  0.51441  Biso   1.000  C
  H99      1.0000 0.62199  0.86098  0.49580  Biso   1.000  H
  C158     1.0000 0.79077  0.90513  0.73325  Biso   1.000  C
  H100     1.0000 0.40253  0.90931  0.54161  Biso   1.000  H
  H101     1.0000 0.20021  0.22689  0.54142  Biso   1.000  H
  C159     1.0000 0.18359  0.34671  0.52177  Biso   1.000  C
  C160     1.0000 0.15340  0.29407  0.59207  Biso   1.000  C
  C161     1.0000 0.14068  0.48328  0.50882  Biso   1.000  C
  C162     1.0000 0.08483  0.38751  0.63720  Biso   1.000  C
  O15      1.0000 0.87806  0.82246  0.67193  Biso   1.000  O
  H102     1.0000 0.48000  0.84160  0.49480  Biso   1.000  H
  C163     1.0000 0.85590  0.96040  0.75470  Biso   1.000  C
  H103     1.0000 0.73882  0.91230  0.74678  Biso   1.000  H
  H104     1.0000 0.80839  0.85009  0.73790  Biso   1.000  H
  C164     1.0000 0.25237  0.35868  0.49796  Biso   1.000  C
  C165     1.0000 0.19722  0.26332  0.62832  Biso   1.000  C
  C166     1.0000 0.20998  0.49542  0.48524  Biso   1.000  C
  H105     1.0000 0.10350  0.52491  0.51250  Biso   1.000  H
  C167     1.0000 0.13018  0.35628  0.67377  Biso   1.000  C
  H106     1.0000 0.04650  0.42843  0.64021  Biso   1.000  H
  H107     1.0000 0.89989  0.80020  0.65210  Biso   1.000  H
  C168     1.0000 0.83291  0.03487  0.76995  Biso   1.000  C
  C169     1.0000 0.93981  0.93940  0.75900  Biso   1.000  C
  H108     1.0000 0.28957  0.31710  0.49399  Biso   1.000  H
  C170     1.0000 0.26502  0.43411  0.48000  Biso   1.000  C
  H109     1.0000 0.23441  0.22151  0.62518  Biso   1.000  H
  C171     1.0000 0.18660  0.29389  0.66967  Biso   1.000  C
  H110     1.0000 0.21910  0.54507  0.47299  Biso   1.000  H
  O16      1.0000 0.12009  0.38607  0.71399  Biso   1.000  O
  O17      1.0000 0.74941  0.05390  0.76730  Biso   1.000  O
  C172     1.0000 0.89150  0.08770  0.78836  Biso   1.000  C
  C173     1.0000 0.99897  0.99121  0.77751  Biso   1.000  C
  H111     1.0000 0.95633  0.88969  0.74921  Biso   1.000  H
  H112     1.0000 0.31128  0.44278  0.46430  Biso   1.000  H
  C174     1.0000 0.23711  0.26141  0.70870  Biso   1.000  C
  H113     1.0000 0.10182  0.43178  0.71189  Biso   1.000  H
  H114     1.0000 0.74311  0.09858  0.77741  Biso   1.000  H
  H115     1.0000 0.87478  0.13723  0.79851  Biso   1.000  H
  C175     1.0000 0.97440  0.06670  0.79163  Biso   1.000  C
  C176     1.0000 0.09253  0.97882  0.78442  Biso   1.000  C
  H116     1.0000 0.24087  0.30203  0.73108  Biso   1.000  H
  H117     1.0000 0.29297  0.24981  0.70081  Biso   1.000  H
  C177     1.0000 0.19970  0.18598  0.72663  Biso   1.000  C
  C178     1.0000 0.04608  0.11838  0.81004  Biso   1.000  C
  C179     1.0000 0.13329  0.04750  0.76132  Biso   1.000  C
  H118     1.0000 0.11037  0.92600  0.77479  Biso   1.000  H
  C180     1.0000 0.11581  0.99402  0.83249  Biso   1.000  C
  C181     1.0000 0.14060  0.19112  0.75745  Biso   1.000  C
  C182     1.0000 0.22391  0.11073  0.71354  Biso   1.000  C
  C183     1.0000 0.10728  0.12263  0.77486  Biso   1.000  C
  H119     1.0000 0.02830  0.17108  0.81970  Biso   1.000  H
  C184     1.0000 0.09069  0.06969  0.84574  Biso   1.000  C
  C185     1.0000 0.19141  0.04110  0.73057  Biso   1.000  C
  C186     1.0000 0.15937  0.94359  0.86118  Biso   1.000  C
  H120     1.0000 0.12322  0.24107  0.76639  Biso   1.000  H
  O18      1.0000 0.28304  0.10666  0.68385  Biso   1.000  O
  C187     1.0000 0.10871  0.09380  0.88822  Biso   1.000  C
  H121     1.0000 0.20838  0.99109  0.72139  Biso   1.000  H
  H122     1.0000 0.17601  0.89328  0.85230  Biso   1.000  H
  C188     1.0000 0.17802  0.96889  0.90324  Biso   1.000  C
  H123     1.0000 0.28327  0.06161  0.67339  Biso   1.000  H
  C189     1.0000 0.15350  0.04277  0.91681  Biso   1.000  C
  H124     1.0000 0.09100  0.14339  0.89749  Biso   1.000  H
  H125     1.0000 0.20769  0.93528  0.92259  Biso   1.000  H
  H126     1.0000 0.16673  0.05898  0.94511  Biso   1.000  H
  O19      1.0000 0.28072  0.69797  0.46220  Biso   1.000  O
  H127     1.0000 0.31302  0.67943  0.44550  Biso   1.000  H
  C190     1.0000 0.28118  0.77980  0.45955  Biso   1.000  C
  C191     1.0000 0.32530  0.82060  0.42941  Biso   1.000  C
  C192     1.0000 0.23441  0.82120  0.48885  Biso   1.000  C
  C193     1.0000 0.32201  0.90381  0.42802  Biso   1.000  C
  H128     1.0000 0.35667  0.79249  0.41041  Biso   1.000  H
  C194     1.0000 0.23261  0.90489  0.48646  Biso   1.000  C
  C195     1.0000 0.18371  0.77741  0.52032  Biso   1.000  C
  C196     1.0000 0.36612  0.95902  0.39740  Biso   1.000  C
  C197     1.0000 0.27537  0.94592  0.45642  Biso   1.000  C
  H129     1.0000 0.20187  0.93348  0.50559  Biso   1.000  H
  C198     1.0000 0.09331  0.76748  0.50394  Biso   1.000  C
  H130     1.0000 0.20778  0.72501  0.52591  Biso   1.000  H
  H131     1.0000 0.18610  0.80648  0.54739  Biso   1.000  H
  H132     1.0000 0.39900  0.93001  0.37711  Biso   1.000  H
  C199     1.0000 0.29881  0.01208  0.37498  Biso   1.000  C
  C200     1.0000 0.41827  0.01579  0.42721  Biso   1.000  C
  C201     1.0000 0.27951  0.03679  0.45112  Biso   1.000  C
  C202     1.0000 0.03518  0.82808  0.50972  Biso   1.000  C
  C203     1.0000 0.06597  0.69779  0.48301  Biso   1.000  C
  C204     1.0000 0.25211  0.05420  0.40382  Biso   1.000  C
  C205     1.0000 0.28320  0.02483  0.33139  Biso   1.000  C
  C206     1.0000 0.37128  0.05749  0.45574  Biso   1.000  C
  C207     1.0000 0.50312  0.02728  0.42738  Biso   1.000  C
  H133     1.0000 0.24671  0.06568  0.47151  Biso   1.000  H
  O20      1.0000 0.06249  0.89717  0.53043  Biso   1.000  O
  C208     1.0000 0.95278  0.81970  0.49425  Biso   1.000  C
  H134     1.0000 0.10379  0.65688  0.47900  Biso   1.000  H
  C209     1.0000 0.98381  0.68810  0.46795  Biso   1.000  C
  C210     1.0000 0.19219  0.10869  0.38893  Biso   1.000  C
  H135     1.0000 0.31298  0.99569  0.31211  Biso   1.000  H
  C211     1.0000 0.22382  0.08022  0.31502  Biso   1.000  C
  C212     1.0000 0.40940  0.11120  0.48507  Biso   1.000  C
  H136     1.0000 0.53472  0.99988  0.40819  Biso   1.000  H
  C213     1.0000 0.54037  0.08219  0.45761  Biso   1.000  C
  H137     1.0000 0.02279  0.92690  0.53340  Biso   1.000  H
  H138     1.0000 0.91502  0.86080  0.49780  Biso   1.000  H
  C214     1.0000 0.92707  0.74978  0.47344  Biso   1.000  C
  C215     1.0000 0.94421  0.61411  0.44624  Biso   1.000  C
  C216     1.0000 0.17922  0.12167  0.34477  Biso   1.000  C
  H139     1.0000 0.16109  0.13639  0.40819  Biso   1.000  H
  C217     1.0000 0.20920  0.09487  0.26675  Biso   1.000  C
  C218     1.0000 0.49417  0.12269  0.48559  Biso   1.000  C
  H140     1.0000 0.37798  0.13902  0.50420  Biso   1.000  H
  H141     1.0000 0.59750  0.09069  0.45839  Biso   1.000  H
  C219     1.0000 0.83953  0.72962  0.45519  Biso   1.000  C
  H142     1.0000 0.98393  0.57050  0.44301  Biso   1.000  H
  C220     1.0000 0.87239  0.59072  0.47335  Biso   1.000  C
  C221     1.0000 0.90239  0.64270  0.40305  Biso   1.000  C
  O21      1.0000 0.12198  0.17754  0.32807  Biso   1.000  O
  C222     1.0000 0.14413  0.03960  0.24530  Biso   1.000  C
  H143     1.0000 0.26121  0.08770  0.25321  Biso   1.000  H
  H144     1.0000 0.19158  0.14991  0.26210  Biso   1.000  H
  H145     1.0000 0.51997  0.15840  0.50520  Biso   1.000  H
  H146     1.0000 0.79983  0.77311  0.45862  Biso   1.000  H
  C223     1.0000 0.81638  0.65329  0.47823  Biso   1.000  C
  C224     1.0000 0.84663  0.70593  0.40793  Biso   1.000  C
  C225     1.0000 0.85929  0.51672  0.49118  Biso   1.000  C
  C226     1.0000 0.91520  0.61249  0.36280  Biso   1.000  C
  H147     1.0000 0.10008  0.19980  0.34790  Biso   1.000  H
  C227     1.0000 0.16712  0.96513  0.23005  Biso   1.000  C
  C228     1.0000 0.06022  0.06060  0.24100  Biso   1.000  C
  C229     1.0000 0.74760  0.64132  0.50203  Biso   1.000  C
  C230     1.0000 0.80282  0.73668  0.37168  Biso   1.000  C
  C231     1.0000 0.78999  0.50458  0.51476  Biso   1.000  C
  H148     1.0000 0.89647  0.47509  0.48750  Biso   1.000  H
  C232     1.0000 0.86979  0.64372  0.32623  Biso   1.000  C
  H149     1.0000 0.95353  0.57157  0.35979  Biso   1.000  H
  O22      1.0000 0.25063  0.94610  0.23270  Biso   1.000  O
  C233     1.0000 0.10847  0.91230  0.21164  Biso   1.000  C
  C234     1.0000 0.00100  0.00879  0.22249  Biso   1.000  C
  H150     1.0000 0.04371  0.11031  0.25079  Biso   1.000  H
  H151     1.0000 0.71040  0.68290  0.50601  Biso   1.000  H
  C235     1.0000 0.73502  0.56589  0.52000  Biso   1.000  C
  H152     1.0000 0.76563  0.77849  0.37481  Biso   1.000  H
  C236     1.0000 0.81337  0.70611  0.33033  Biso   1.000  C
  H153     1.0000 0.78093  0.45493  0.52701  Biso   1.000  H
  O23      1.0000 0.87988  0.61393  0.28600  Biso   1.000  O
  H154     1.0000 0.25692  0.90142  0.22259  Biso   1.000  H
  H155     1.0000 0.12519  0.86277  0.20149  Biso   1.000  H
  C237     1.0000 0.02557  0.93330  0.20837  Biso   1.000  C
  C238     1.0000 0.90750  0.02118  0.21558  Biso   1.000  C
  H156     1.0000 0.68869  0.55722  0.53570  Biso   1.000  H
  C239     1.0000 0.76292  0.73859  0.29130  Biso   1.000  C
  H157     1.0000 0.89821  0.56822  0.28810  Biso   1.000  H
  C240     1.0000 0.95389  0.88162  0.18996  Biso   1.000  C
  C241     1.0000 0.86668  0.95250  0.23868  Biso   1.000  C
  H158     1.0000 0.88960  0.07400  0.22520  Biso   1.000  H
  C242     1.0000 0.88422  0.00598  0.16751  Biso   1.000  C
  H159     1.0000 0.75910  0.69797  0.26891  Biso   1.000  H
  H160     1.0000 0.70699  0.75019  0.29919  Biso   1.000  H
  C243     1.0000 0.80033  0.81402  0.27337  Biso   1.000  C
  C244     1.0000 0.89269  0.87737  0.22514  Biso   1.000  C
  H161     1.0000 0.97173  0.82892  0.18030  Biso   1.000  H
  C245     1.0000 0.90928  0.93031  0.15426  Biso   1.000  C
  C246     1.0000 0.80862  0.95890  0.26943  Biso   1.000  C
  C247     1.0000 0.84060  0.05641  0.13882  Biso   1.000  C
  C248     1.0000 0.85937  0.80888  0.24255  Biso   1.000  C
  C249     1.0000 0.77612  0.88927  0.28646  Biso   1.000  C
  C250     1.0000 0.89132  0.90620  0.11178  Biso   1.000  C
  H162     1.0000 0.79159  0.00891  0.27861  Biso   1.000  H
  H163     1.0000 0.82402  0.10672  0.14770  Biso   1.000  H
  C251     1.0000 0.82201  0.03111  0.09676  Biso   1.000  C
  H164     1.0000 0.87681  0.75893  0.23360  Biso   1.000  H
  O24      1.0000 0.71699  0.89334  0.31615  Biso   1.000  O
  C252     1.0000 0.84647  0.95723  0.08319  Biso   1.000  C
  H165     1.0000 0.90903  0.85661  0.10251  Biso   1.000  H
  H166     1.0000 0.79228  0.06472  0.07741  Biso   1.000  H
  H167     1.0000 0.71670  0.93839  0.32661  Biso   1.000  H
  H168     1.0000 0.83331  0.94102  0.05489  Biso   1.000  H
