data_image0
_cell_length_a       24.19
_cell_length_b       24.19
_cell_length_c       10.973
_cell_angle_alpha    90
_cell_angle_beta     90
_cell_angle_gamma    120

_symmetry_space_group_name_H-M    "P 1"
_symmetry_int_tables_number       1

loop_
  _symmetry_equiv_pos_as_xyz
  'x, y, z'

loop_
  _atom_site_label
  _atom_site_occupancy
  _atom_site_fract_x
  _atom_site_fract_y
  _atom_site_fract_z
  _atom_site_thermal_displace_type
  _atom_site_B_iso_or_equiv
  _atom_site_type_symbol
  C1       1.0000 0.30691  0.92429  0.58279  Biso   1.000  C
  C2       1.0000 0.32921  0.87951  0.53149  Biso   1.000  C
  C3       1.0000 0.36660  0.97670  0.63547  Biso   1.000  C
  H1       1.0000 0.29040  0.93980  0.51882  Biso   1.000  H
  H2       1.0000 0.27420  0.90309  0.64467  Biso   1.000  H
  N1       1.0000 0.28761  0.83698  0.43452  Biso   1.000  N
  C4       1.0000 0.39500  0.92691  0.48401  Biso   1.000  C
  H3       1.0000 0.33281  0.85421  0.59747  Biso   1.000  H
  C5       1.0000 0.42172  0.97531  0.58289  Biso   1.000  C
  H4       1.0000 0.36629  0.97169  0.72323  Biso   1.000  H
  H5       1.0000 0.36951  0.01732  0.61806  Biso   1.000  H
  C6       1.0000 0.26378  0.77750  0.44837  Biso   1.000  C
  N2       1.0000 0.43049  0.89431  0.45621  Biso   1.000  N
  H6       1.0000 0.39069  0.94691  0.40973  Biso   1.000  H
  H7       1.0000 0.44270  0.96328  0.64394  Biso   1.000  H
  H8       1.0000 0.45231  0.01689  0.55044  Biso   1.000  H
  C7       1.0000 0.22170  0.73129  0.35578  Biso   1.000  C
  H9       1.0000 0.27311  0.76242  0.51900  Biso   1.000  H
  C8       1.0000 0.44402  0.88911  0.34767  Biso   1.000  C
  C9       1.0000 0.18829  0.66819  0.39196  Biso   1.000  C
  C10      1.0000 0.21270  0.74900  0.24004  Biso   1.000  C
  C11      1.0000 0.47568  0.85478  0.30903  Biso   1.000  C
  H10      1.0000 0.43271  0.90882  0.28771  Biso   1.000  H
  C12      1.0000 0.14521  0.62088  0.30903  Biso   1.000  C
  H11      1.0000 0.19391  0.65669  0.46988  Biso   1.000  H
  C13      1.0000 0.17001  0.70232  0.15894  Biso   1.000  C
  H12      1.0000 0.23491  0.79168  0.21653  Biso   1.000  H
  C14      1.0000 0.47988  0.81168  0.39196  Biso   1.000  C
  C15      1.0000 0.50160  0.86099  0.19557  Biso   1.000  C
  C16      1.0000 0.11090  0.55491  0.34767  Biso   1.000  C
  C17      1.0000 0.13898  0.64060  0.19557  Biso   1.000  C
  C18      1.0000 0.16051  0.72060  0.03618  Biso   1.000  C
  C19      1.0000 0.50962  0.77831  0.35578  Biso   1.000  C
  H13      1.0000 0.46278  0.80609  0.46988  Biso   1.000  H
  C20      1.0000 0.53228  0.83001  0.15894  Biso   1.000  C
  H14      1.0000 0.49801  0.88820  0.14044  Biso   1.000  H
  N3       1.0000 0.10572  0.53620  0.45621  Biso   1.000  N
  H15      1.0000 0.09121  0.52389  0.28771  Biso   1.000  H
  H16      1.0000 0.11181  0.60981  0.14044  Biso   1.000  H
  N4       1.0000 0.11792  0.68132  0.96774  Biso   1.000  N
  H17      1.0000 0.18659  0.76218  0.00939  Biso   1.000  H
  C21      1.0000 0.51370  0.73621  0.44837  Biso   1.000  C
  C22      1.0000 0.53631  0.78729  0.24004  Biso   1.000  C
  C23      1.0000 0.56010  0.83951  0.03618  Biso   1.000  C
  C24      1.0000 0.07311  0.46809  0.48401  Biso   1.000  C
  C25      1.0000 0.11210  0.70241  0.84781  Biso   1.000  C
  N5       1.0000 0.54942  0.71239  0.43452  Biso   1.000  N
  H18      1.0000 0.48929  0.72690  0.51900  Biso   1.000  H
  H19      1.0000 0.55679  0.76509  0.21653  Biso   1.000  H
  N6       1.0000 0.56341  0.88209  0.96774  Biso   1.000  N
  H20      1.0000 0.57561  0.81340  0.00939  Biso   1.000  H
  C26      1.0000 0.12051  0.44971  0.53149  Biso   1.000  C
  H21      1.0000 0.05311  0.44379  0.40973  Biso   1.000  H
  C27      1.0000 0.02470  0.44641  0.58289  Biso   1.000  C
  C28      1.0000 0.12111  0.66470  0.75084  Biso   1.000  C
  H22      1.0000 0.14320  0.74791  0.83778  Biso   1.000  H
  C29      1.0000 0.04570  0.69048  0.82420  Biso   1.000  C
  C30      1.0000 0.55029  0.67081  0.53149  Biso   1.000  C
  C31      1.0000 0.59030  0.88791  0.84781  Biso   1.000  C
  N7       1.0000 0.16301  0.45061  0.43452  Biso   1.000  N
  H23      1.0000 0.14578  0.47859  0.59747  Biso   1.000  H
  C32      1.0000 0.07571  0.38259  0.58279  Biso   1.000  C
  C33      1.0000 0.02331  0.38990  0.63547  Biso   1.000  C
  H24      1.0000 0.03668  0.47940  0.64394  Biso   1.000  H
  H25      1.0000 0.98309  0.43539  0.55044  Biso   1.000  H
  N8       1.0000 0.18819  0.68461  0.73426  Biso   1.000  N
  H26      1.0000 0.09692  0.61921  0.77071  Biso   1.000  H
  C34      1.0000 0.09269  0.67831  0.63793  Biso   1.000  C
  C35      1.0000 0.03851  0.68480  0.68659  Biso   1.000  C
  H27      1.0000 0.04111  0.72571  0.85391  Biso   1.000  H
  H28      1.0000 0.01421  0.65148  0.86357  Biso   1.000  H
  C36      1.0000 0.53189  0.60499  0.48401  Biso   1.000  C
  H29      1.0000 0.52140  0.66719  0.59747  Biso   1.000  H
  C37      1.0000 0.61741  0.69311  0.58279  Biso   1.000  C
  C38      1.0000 0.54358  0.87889  0.75084  Biso   1.000  C
  H30      1.0000 0.60471  0.85679  0.83778  Biso   1.000  H
  C39      1.0000 0.64479  0.95431  0.82420  Biso   1.000  C
  C40      1.0000 0.22249  0.48632  0.44837  Biso   1.000  C
  H31      1.0000 0.06022  0.35061  0.51882  Biso   1.000  H
  H32      1.0000 0.09691  0.37109  0.64467  Biso   1.000  H
  H33      1.0000 0.02832  0.39462  0.72323  Biso   1.000  H
  H34      1.0000 0.98271  0.35219  0.61806  Biso   1.000  H
  C41      1.0000 0.20402  0.64260  0.74683  Biso   1.000  C
  H35      1.0000 0.12401  0.71731  0.59810  Biso   1.000  H
  H36      1.0000 0.07760  0.64341  0.58006  Biso   1.000  H
  H37      1.0000 0.99810  0.64771  0.66490  Biso   1.000  H
  H38      1.0000 0.03971  0.72242  0.65288  Biso   1.000  H
  N9       1.0000 0.46380  0.56952  0.45621  Biso   1.000  N
  H39      1.0000 0.55619  0.60928  0.40973  Biso   1.000  H
  C42      1.0000 0.55360  0.57830  0.58289  Biso   1.000  C
  C43      1.0000 0.61008  0.63339  0.63547  Biso   1.000  C
  H40      1.0000 0.64940  0.70962  0.51882  Biso   1.000  H
  H41      1.0000 0.62892  0.72580  0.64467  Biso   1.000  H
  N10      1.0000 0.49640  0.81182  0.73426  Biso   1.000  N
  H42      1.0000 0.52228  0.90309  0.77071  Biso   1.000  H
  C44      1.0000 0.58560  0.90729  0.63793  Biso   1.000  C
  C45      1.0000 0.64632  0.96152  0.68659  Biso   1.000  C
  H43      1.0000 0.68461  0.95889  0.85391  Biso   1.000  H
  H44      1.0000 0.63731  0.98582  0.86357  Biso   1.000  H
  C46      1.0000 0.26867  0.49038  0.35578  Biso   1.000  C
  H45      1.0000 0.23762  0.51071  0.51900  Biso   1.000  H
  C47      1.0000 0.27003  0.65382  0.74428  Biso   1.000  C
  H46      1.0000 0.17129  0.60079  0.75868  Biso   1.000  H
  C48      1.0000 0.44510  0.55601  0.34767  Biso   1.000  C
  H47      1.0000 0.52061  0.55730  0.64394  Biso   1.000  H
  H48      1.0000 0.56459  0.54771  0.55044  Biso   1.000  H
  H49      1.0000 0.64777  0.63048  0.61806  Biso   1.000  H
  H50      1.0000 0.60539  0.63368  0.72323  Biso   1.000  H
  C49      1.0000 0.43861  0.79602  0.74683  Biso   1.000  C
  H51      1.0000 0.59330  0.87598  0.59810  Biso   1.000  H
  H52      1.0000 0.56580  0.92242  0.58006  Biso   1.000  H
  H53      1.0000 0.68270  0.96028  0.65288  Biso   1.000  H
  H54      1.0000 0.64961  0.00190  0.66490  Biso   1.000  H
  C50      1.0000 0.25099  0.46369  0.24004  Biso   1.000  C
  C51      1.0000 0.33182  0.52012  0.39196  Biso   1.000  C
  C52      1.0000 0.28310  0.60432  0.74319  Biso   1.000  C
  C53      1.0000 0.32119  0.71688  0.74319  Biso   1.000  C
  C54      1.0000 0.37911  0.52432  0.30903  Biso   1.000  C
  H55      1.0000 0.47607  0.56728  0.28771  Biso   1.000  H
  C55      1.0000 0.38381  0.73001  0.74428  Biso   1.000  C
  H56      1.0000 0.42949  0.82872  0.75868  Biso   1.000  H
  C56      1.0000 0.29772  0.46770  0.15894  Biso   1.000  C
  H57      1.0000 0.20830  0.44322  0.21653  Biso   1.000  H
  H58      1.0000 0.34330  0.53721  0.46988  Biso   1.000  H
  C57      1.0000 0.34622  0.61621  0.74428  Biso   1.000  C
  H59      1.0000 0.24949  0.56231  0.74182  Biso   1.000  H
  H60      1.0000 0.31278  0.75048  0.74182  Biso   1.000  H
  C58      1.0000 0.35941  0.49840  0.19557  Biso   1.000  C
  C59      1.0000 0.39570  0.67879  0.74319  Biso   1.000  C
  C60      1.0000 0.27941  0.43992  0.03618  Biso   1.000  C
  C61      1.0000 0.35739  0.56141  0.74683  Biso   1.000  C
  H61      1.0000 0.39018  0.50198  0.14044  Biso   1.000  H
  H62      1.0000 0.43768  0.68719  0.74182  Biso   1.000  H
  H63      1.0000 0.23779  0.42441  0.00939  Biso   1.000  H
  N11      1.0000 0.31870  0.43658  0.96774  Biso   1.000  N
  N12      1.0000 0.31538  0.50360  0.73426  Biso   1.000  N
  H64      1.0000 0.39917  0.57048  0.75868  Biso   1.000  H
  C62      1.0000 0.29762  0.40971  0.84781  Biso   1.000  C
  C63      1.0000 0.33531  0.45639  0.75084  Biso   1.000  C
  H65      1.0000 0.25209  0.39529  0.83778  Biso   1.000  H
  C64      1.0000 0.30951  0.35519  0.82420  Biso   1.000  C
  H66      1.0000 0.38080  0.47768  0.77071  Biso   1.000  H
  C65      1.0000 0.32170  0.41438  0.63793  Biso   1.000  C
  H67      1.0000 0.27431  0.31538  0.85391  Biso   1.000  H
  H68      1.0000 0.34848  0.36269  0.86357  Biso   1.000  H
  C66      1.0000 0.31522  0.35371  0.68659  Biso   1.000  C
  H69      1.0000 0.28268  0.40670  0.59810  Biso   1.000  H
  H70      1.0000 0.35662  0.43419  0.58006  Biso   1.000  H
  H71      1.0000 0.35231  0.35042  0.66490  Biso   1.000  H
  H72      1.0000 0.27758  0.31729  0.65288  Biso   1.000  H
  C67      1.0000 0.01029  0.80800  0.07710  Biso   1.000  C
  C68      1.0000 0.95101  0.80619  0.03773  Biso   1.000  C
  N13      1.0000 0.02627  0.81607  0.18710  Biso   1.000  N
  H73      1.0000 0.03589  0.80299  0.01996  Biso   1.000  H
  N14      1.0000 0.02629  0.81612  0.18710  Biso   1.000  N
  C69      1.0000 0.92662  0.78562  0.92290  Biso   1.000  C
  C70      1.0000 0.92278  0.83011  0.11428  Biso   1.000  C
  C71      1.0000 0.08841  0.82610  0.22537  Biso   1.000  C
  C72      1.0000 0.87262  0.78781  0.88800  Biso   1.000  C
  H74      1.0000 0.94580  0.77039  0.86959  Biso   1.000  H
  C73      1.0000 0.86812  0.82991  0.08220  Biso   1.000  C
  H75      1.0000 0.94139  0.84681  0.18947  Biso   1.000  H
  C74      1.0000 0.12808  0.89288  0.26583  Biso   1.000  C
  C75      1.0000 0.12811  0.89292  0.26583  Biso   1.000  C
  H76      1.0000 0.10919  0.81641  0.15884  Biso   1.000  H
  C76      1.0000 0.08282  0.78681  0.33911  Biso   1.000  C
  C77      1.0000 0.84308  0.76619  0.76643  Biso   1.000  C
  C78      1.0000 0.84241  0.80891  0.96892  Biso   1.000  C
  C79      1.0000 0.83888  0.85378  0.17106  Biso   1.000  C
  N15      1.0000 0.15500  0.93827  0.16331  Biso   1.000  N
  N16      1.0000 0.15502  0.93832  0.16331  Biso   1.000  N
  H77      1.0000 0.10210  0.90457  0.31641  Biso   1.000  H
  C80      1.0000 0.17858  0.89159  0.34403  Biso   1.000  C
  H78      1.0000 0.10212  0.90462  0.31641  Biso   1.000  H
  H79      1.0000 0.08599  0.74958  0.31769  Biso   1.000  H
  H80      1.0000 0.04237  0.77287  0.38011  Biso   1.000  H
  C81      1.0000 0.13911  0.83249  0.42058  Biso   1.000  C
  H81      1.0000 0.04239  0.77292  0.38011  Biso   1.000  H
  N17      1.0000 0.86201  0.74089  0.69124  Biso   1.000  N
  H82      1.0000 0.80911  0.77192  0.74519  Biso   1.000  H
  H83      1.0000 0.80540  0.80882  0.94596  Biso   1.000  H
  N18      1.0000 0.78331  0.84500  0.16331  Biso   1.000  N
  H84      1.0000 0.86349  0.87689  0.23749  Biso   1.000  H
  C82      1.0000 0.14621  0.98510  0.17106  Biso   1.000  C
  H85      1.0000 0.20039  0.92958  0.39424  Biso   1.000  H
  H86      1.0000 0.20968  0.88748  0.29500  Biso   1.000  H
  H87      1.0000 0.12369  0.84309  0.49358  Biso   1.000  H
  H88      1.0000 0.16422  0.81311  0.44427  Biso   1.000  H
  C83      1.0000 0.82899  0.72461  0.57304  Biso   1.000  C
  C84      1.0000 0.76482  0.87192  0.26583  Biso   1.000  C
  C85      1.0000 0.17010  0.03818  0.08220  Biso   1.000  C
  H89      1.0000 0.12310  0.98658  0.23749  Biso   1.000  H
  C86      1.0000 0.87781  0.75760  0.47079  Biso   1.000  C
  H90      1.0000 0.79640  0.73740  0.57086  Biso   1.000  H
  C87      1.0000 0.79952  0.65401  0.54342  Biso   1.000  C
  H91      1.0000 0.80248  0.89789  0.31641  Biso   1.000  H
  C88      1.0000 0.73769  0.91159  0.22537  Biso   1.000  C
  C89      1.0000 0.71302  0.82142  0.34403  Biso   1.000  C
  C90      1.0000 0.19112  0.03350  0.96892  Biso   1.000  C
  C91      1.0000 0.16991  0.09269  0.11428  Biso   1.000  C
  N19      1.0000 0.89661  0.82471  0.46004  Biso   1.000  N
  H92      1.0000 0.91551  0.75330  0.48492  Biso   1.000  H
  C92      1.0000 0.84050  0.71779  0.35888  Biso   1.000  C
  C93      1.0000 0.79771  0.65229  0.40654  Biso   1.000  C
  H93      1.0000 0.82563  0.63711  0.57468  Biso   1.000  H
  H94      1.0000 0.75690  0.62972  0.57733  Biso   1.000  H
  N20      1.0000 0.78978  0.97369  0.18710  Biso   1.000  N
  C94      1.0000 0.70398  0.91717  0.33911  Biso   1.000  C
  H95      1.0000 0.70721  0.89082  0.15884  Biso   1.000  H
  C95      1.0000 0.70400  0.91722  0.33911  Biso   1.000  C
  C96      1.0000 0.69341  0.86089  0.42058  Biso   1.000  C
  H96      1.0000 0.72919  0.79960  0.39424  Biso   1.000  H
  H97      1.0000 0.67778  0.79029  0.29500  Biso   1.000  H
  C97      1.0000 0.21219  0.08482  0.88800  Biso   1.000  C
  H98      1.0000 0.19119  0.99660  0.94596  Biso   1.000  H
  C98      1.0000 0.19380  0.14477  0.03773  Biso   1.000  C
  C99      1.0000 0.19382  0.14482  0.03773  Biso   1.000  C
  H99      1.0000 0.15321  0.09460  0.18947  Biso   1.000  H
  C100     1.0000 0.95399  0.86581  0.47307  Biso   1.000  C
  H100     1.0000 0.81580  0.73511  0.32252  Biso   1.000  H
  H101     1.0000 0.86941  0.71740  0.29810  Biso   1.000  H
  H102     1.0000 0.81159  0.62351  0.37683  Biso   1.000  H
  H103     1.0000 0.75443  0.63692  0.37838  Biso   1.000  H
  C101     1.0000 0.79769  0.98968  0.07710  Biso   1.000  C
  H104     1.0000 0.66360  0.91397  0.31769  Biso   1.000  H
  H105     1.0000 0.73052  0.95760  0.38011  Biso   1.000  H
  H106     1.0000 0.66363  0.91402  0.31769  Biso   1.000  H
  H107     1.0000 0.71939  0.87631  0.49358  Biso   1.000  H
  H108     1.0000 0.64890  0.83579  0.44427  Biso   1.000  H
  C102     1.0000 0.23382  0.07689  0.76643  Biso   1.000  C
  C103     1.0000 0.21440  0.14100  0.92290  Biso   1.000  C
  C104     1.0000 0.19201  0.20229  0.07710  Biso   1.000  C
  C105     1.0000 0.97679  0.93398  0.47216  Biso   1.000  C
  C106     1.0000 0.97681  0.93402  0.47216  Biso   1.000  C
  H109     1.0000 0.98352  0.85221  0.48392  Biso   1.000  H
  C107     1.0000 0.85522  0.04902  0.03773  Biso   1.000  C
  H110     1.0000 0.76708  0.96410  0.01996  Biso   1.000  H
  N21      1.0000 0.25910  0.12110  0.69124  Biso   1.000  N
  H111     1.0000 0.22810  0.03718  0.74519  Biso   1.000  H
  H112     1.0000 0.22963  0.17542  0.86959  Biso   1.000  H
  N22      1.0000 0.18390  0.21022  0.18710  Biso   1.000  N
  H113     1.0000 0.19702  0.23289  0.01996  Biso   1.000  H
  C108     1.0000 0.04191  0.97651  0.47006  Biso   1.000  C
  C109     1.0000 0.93460  0.95808  0.47006  Biso   1.000  C
  C110     1.0000 0.85899  0.07341  0.92290  Biso   1.000  C
  C111     1.0000 0.90730  0.07718  0.11428  Biso   1.000  C
  C112     1.0000 0.27539  0.10439  0.57304  Biso   1.000  C
  C113     1.0000 0.17389  0.26229  0.22537  Biso   1.000  C
  H114     1.0000 0.07011  0.96090  0.46706  Biso   1.000  H
  C114     1.0000 0.06601  0.04281  0.47216  Biso   1.000  C
  H115     1.0000 0.89077  0.92987  0.46706  Biso   1.000  H
  H116     1.0000 0.89080  0.92992  0.46706  Biso   1.000  H
  C115     1.0000 0.95719  0.02319  0.47216  Biso   1.000  C
  C116     1.0000 0.91521  0.12740  0.88800  Biso   1.000  C
  H117     1.0000 0.82461  0.05417  0.86959  Biso   1.000  H
  H118     1.0000 0.82463  0.05422  0.86959  Biso   1.000  H
  C117     1.0000 0.96181  0.13188  0.08220  Biso   1.000  C
  H119     1.0000 0.90541  0.05861  0.18947  Biso   1.000  H
  C118     1.0000 0.24240  0.12019  0.47079  Biso   1.000  C
  H120     1.0000 0.26261  0.05899  0.57086  Biso   1.000  H
  C119     1.0000 0.34600  0.14549  0.54342  Biso   1.000  C
  C120     1.0000 0.10709  0.23518  0.26583  Biso   1.000  C
  H121     1.0000 0.18360  0.29280  0.15884  Biso   1.000  H
  C121     1.0000 0.21319  0.29600  0.33911  Biso   1.000  C
  C122     1.0000 0.13422  0.08821  0.47307  Biso   1.000  C
  C123     1.0000 0.02348  0.06539  0.47006  Biso   1.000  C
  C124     1.0000 0.91180  0.04601  0.47307  Biso   1.000  C
  C125     1.0000 0.92309  0.15690  0.76643  Biso   1.000  C
  C126     1.0000 0.96649  0.15761  0.96892  Biso   1.000  C
  C127     1.0000 0.01490  0.16110  0.17106  Biso   1.000  C
  N23      1.0000 0.17530  0.07188  0.46004  Biso   1.000  N
  H122     1.0000 0.24670  0.16219  0.48492  Biso   1.000  H
  C128     1.0000 0.28217  0.12267  0.35888  Biso   1.000  C
  C129     1.0000 0.28219  0.12272  0.35888  Biso   1.000  C
  C130     1.0000 0.34769  0.14539  0.40654  Biso   1.000  C
  H123     1.0000 0.36291  0.18850  0.57468  Biso   1.000  H
  H124     1.0000 0.37030  0.12721  0.57733  Biso   1.000  H
  N24      1.0000 0.06172  0.21671  0.16331  Biso   1.000  N
  H125     1.0000 0.09539  0.19747  0.31641  Biso   1.000  H
  C131     1.0000 0.10839  0.28697  0.34403  Biso   1.000  C
  H126     1.0000 0.09541  0.19752  0.31641  Biso   1.000  H
  C132     1.0000 0.10841  0.28702  0.34403  Biso   1.000  C
  H127     1.0000 0.25037  0.33638  0.31769  Biso   1.000  H
  H128     1.0000 0.22710  0.26950  0.38011  Biso   1.000  H
  C133     1.0000 0.16748  0.30659  0.42058  Biso   1.000  C
  H129     1.0000 0.14780  0.13131  0.48392  Biso   1.000  H
  H130     1.0000 0.03910  0.10921  0.46706  Biso   1.000  H
  N25      1.0000 0.92809  0.10339  0.46004  Biso   1.000  N
  H131     1.0000 0.86869  0.01651  0.48392  Biso   1.000  H
  N26      1.0000 0.87888  0.13799  0.69124  Biso   1.000  N
  H132     1.0000 0.96278  0.19088  0.74519  Biso   1.000  H
  H133     1.0000 0.00342  0.19461  0.94596  Biso   1.000  H
  H134     1.0000 0.01340  0.13651  0.23749  Biso   1.000  H
  H135     1.0000 0.26491  0.08071  0.32252  Biso   1.000  H
  H136     1.0000 0.28260  0.15198  0.29810  Biso   1.000  H
  H137     1.0000 0.37649  0.18811  0.37683  Biso   1.000  H
  H138     1.0000 0.36310  0.11752  0.37838  Biso   1.000  H
  H139     1.0000 0.07041  0.27079  0.39424  Biso   1.000  H
  H140     1.0000 0.11249  0.32220  0.29500  Biso   1.000  H
  H141     1.0000 0.15691  0.28058  0.49358  Biso   1.000  H
  H142     1.0000 0.18691  0.35108  0.44427  Biso   1.000  H
  C134     1.0000 0.87978  0.12219  0.47079  Biso   1.000  C
  C135     1.0000 0.89558  0.17098  0.57304  Biso   1.000  C
  H143     1.0000 0.83778  0.08448  0.48492  Biso   1.000  H
  C136     1.0000 0.87730  0.15947  0.35888  Biso   1.000  C
  C137     1.0000 0.87732  0.15952  0.35888  Biso   1.000  C
  H144     1.0000 0.94098  0.20358  0.57086  Biso   1.000  H
  C138     1.0000 0.85448  0.20048  0.54342  Biso   1.000  C
  C139     1.0000 0.85460  0.20229  0.40654  Biso   1.000  C
  H145     1.0000 0.91930  0.18420  0.32252  Biso   1.000  H
  H146     1.0000 0.84802  0.13059  0.29810  Biso   1.000  H
  H147     1.0000 0.81152  0.17441  0.57468  Biso   1.000  H
  H148     1.0000 0.87281  0.24311  0.57733  Biso   1.000  H
  H149     1.0000 0.81189  0.18840  0.37683  Biso   1.000  H
  H150     1.0000 0.88249  0.24559  0.37838  Biso   1.000  H
  C140     1.0000 0.37830  0.35710  0.32616  Biso   1.000  C
  C141     1.0000 0.36748  0.34388  0.19457  Biso   1.000  C
  C142     1.0000 0.44680  0.36942  0.35123  Biso   1.000  C
  H151     1.0000 0.34708  0.32078  0.37319  Biso   1.000  H
  H152     1.0000 0.37498  0.39419  0.34776  Biso   1.000  H
  H153     1.0000 0.36149  0.37639  0.15511  Biso   1.000  H
  H154     1.0000 0.32960  0.30269  0.18117  Biso   1.000  H
  C143     1.0000 0.42612  0.34402  0.14262  Biso   1.000  C
  C144     1.0000 0.45471  0.32951  0.25198  Biso   1.000  C
  N27      1.0000 0.45140  0.34679  0.47207  Biso   1.000  N
  H155     1.0000 0.47839  0.41481  0.34147  Biso   1.000  H
  H156     1.0000 0.41401  0.31152  0.08038  Biso   1.000  H
  H157     1.0000 0.45582  0.38522  0.10799  Biso   1.000  H
  N28      1.0000 0.52191  0.34989  0.23421  Biso   1.000  N
  H158     1.0000 0.43039  0.28402  0.27240  Biso   1.000  H
  C145     1.0000 0.49000  0.38761  0.54488  Biso   1.000  C
  C146     1.0000 0.53721  0.30832  0.24260  Biso   1.000  C
  C147     1.0000 0.49682  0.36851  0.66764  Biso   1.000  C
  H159     1.0000 0.51429  0.42999  0.52091  Biso   1.000  H
  C148     1.0000 0.60452  0.32140  0.23448  Biso   1.000  C
  H160     1.0000 0.50492  0.26631  0.25472  Biso   1.000  H
  C149     1.0000 0.46509  0.30579  0.70601  Biso   1.000  C
  C150     1.0000 0.53672  0.41491  0.74747  Biso   1.000  C
  C151     1.0000 0.61620  0.27108  0.23576  Biso   1.000  C
  C152     1.0000 0.65489  0.38379  0.23576  Biso   1.000  C
  H161     1.0000 0.43701  0.27419  0.65306  Biso   1.000  H
  C153     1.0000 0.47449  0.28879  0.82311  Biso   1.000  C
  C154     1.0000 0.54551  0.39949  0.86676  Biso   1.000  C
  H162     1.0000 0.55841  0.45720  0.72241  Biso   1.000  H
  H163     1.0000 0.58241  0.22932  0.23749  Biso   1.000  H
  C155     1.0000 0.67860  0.28311  0.23448  Biso   1.000  C
  C156     1.0000 0.71688  0.39548  0.23448  Biso   1.000  C
  H164     1.0000 0.64691  0.41758  0.23749  Biso   1.000  H
  C157     1.0000 0.51589  0.33619  0.90121  Biso   1.000  C
  C158     1.0000 0.44042  0.22082  0.85838  Biso   1.000  C
  C159     1.0000 0.59012  0.44961  0.95416  Biso   1.000  C
  C160     1.0000 0.72891  0.34512  0.23576  Biso   1.000  C
  C161     1.0000 0.69171  0.22889  0.24260  Biso   1.000  C
  C162     1.0000 0.77108  0.46279  0.24260  Biso   1.000  C
  H165     1.0000 0.52392  0.32531  0.97785  Biso   1.000  H
  N29      1.0000 0.44161  0.20120  0.96273  Biso   1.000  N
  H166     1.0000 0.41648  0.19080  0.79914  Biso   1.000  H
  N30      1.0000 0.61580  0.50809  0.93584  Biso   1.000  N
  H167     1.0000 0.59919  0.43601  0.02698  Biso   1.000  H
  H168     1.0000 0.77068  0.35309  0.23749  Biso   1.000  H
  N31      1.0000 0.65011  0.17199  0.23421  Biso   1.000  N
  H169     1.0000 0.73367  0.23858  0.25472  Biso   1.000  H
  N32      1.0000 0.82802  0.47811  0.23421  Biso   1.000  N
  H170     1.0000 0.76140  0.49510  0.25472  Biso   1.000  H
  C163     1.0000 0.40829  0.13390  0.98114  Biso   1.000  C
  C164     1.0000 0.65820  0.54890  0.03099  Biso   1.000  C
  C165     1.0000 0.67050  0.12521  0.25198  Biso   1.000  C
  C166     1.0000 0.87481  0.54532  0.25198  Biso   1.000  C
  H171     1.0000 0.38781  0.11179  0.90522  Biso   1.000  H
  C167     1.0000 0.35919  0.11442  0.08202  Biso   1.000  C
  C168     1.0000 0.45110  0.10931  0.03099  Biso   1.000  C
  C169     1.0000 0.72562  0.59172  0.98114  Biso   1.000  C
  C170     1.0000 0.64102  0.59821  0.07282  Biso   1.000  C
  H172     1.0000 0.65869  0.52341  0.09997  Biso   1.000  H
  H173     1.0000 0.71599  0.14640  0.27240  Biso   1.000  H
  C171     1.0000 0.63059  0.07738  0.35123  Biso   1.000  C
  C172     1.0000 0.65602  0.08210  0.14262  Biso   1.000  C
  H174     1.0000 0.85360  0.56962  0.27240  Biso   1.000  H
  C173     1.0000 0.92261  0.55320  0.35123  Biso   1.000  C
  C174     1.0000 0.91792  0.57391  0.14262  Biso   1.000  C
  H175     1.0000 0.37580  0.14449  0.14909  Biso   1.000  H
  H176     1.0000 0.32037  0.11218  0.05213  Biso   1.000  H
  C175     1.0000 0.34712  0.05141  0.12048  Biso   1.000  C
  N33      1.0000 0.49188  0.10769  0.93584  Biso   1.000  N
  C176     1.0000 0.40181  0.04282  0.07282  Biso   1.000  C
  H177     1.0000 0.47661  0.13528  0.09997  Biso   1.000  H
  N34      1.0000 0.75960  0.55840  0.96273  Biso   1.000  N
  H178     1.0000 0.72400  0.61220  0.90522  Biso   1.000  H
  C177     1.0000 0.75520  0.64079  0.08202  Biso   1.000  C
  C178     1.0000 0.70430  0.65291  0.12048  Biso   1.000  C
  H179     1.0000 0.60900  0.58122  0.13679  Biso   1.000  H
  H180     1.0000 0.62491  0.61220  0.00547  Biso   1.000  H
  N35      1.0000 0.65320  0.10459  0.47207  Biso   1.000  N
  H181     1.0000 0.58520  0.06358  0.34147  Biso   1.000  H
  C179     1.0000 0.64288  0.02119  0.32616  Biso   1.000  C
  C180     1.0000 0.65611  0.02358  0.19457  Biso   1.000  C
  H182     1.0000 0.68849  0.10249  0.08038  Biso   1.000  H
  H183     1.0000 0.61480  0.07060  0.10799  Biso   1.000  H
  N36      1.0000 0.89539  0.54861  0.47207  Biso   1.000  N
  H184     1.0000 0.93641  0.52160  0.34147  Biso   1.000  H
  C181     1.0000 0.97881  0.62170  0.32616  Biso   1.000  C
  C182     1.0000 0.97639  0.63248  0.19457  Biso   1.000  C
  H185     1.0000 0.89750  0.58599  0.08038  Biso   1.000  H
  H186     1.0000 0.92941  0.54422  0.10799  Biso   1.000  H
  H187     1.0000 0.30671  0.01838  0.08749  Biso   1.000  H
  H188     1.0000 0.34499  0.04831  0.20860  Biso   1.000  H
  C183     1.0000 0.55040  0.14048  0.95416  Biso   1.000  C
  H189     1.0000 0.41881  0.02778  0.13679  Biso   1.000  H
  H190     1.0000 0.38779  0.01270  0.00547  Biso   1.000  H
  C184     1.0000 0.78042  0.55959  0.85838  Biso   1.000  C
  H191     1.0000 0.76868  0.62418  0.14909  Biso   1.000  H
  H192     1.0000 0.79180  0.67960  0.05213  Biso   1.000  H
  H193     1.0000 0.71172  0.69330  0.08749  Biso   1.000  H
  H194     1.0000 0.70332  0.65501  0.20860  Biso   1.000  H
  C185     1.0000 0.61238  0.10239  0.54488  Biso   1.000  C
  H195     1.0000 0.67921  0.02630  0.37319  Biso   1.000  H
  H196     1.0000 0.60582  0.98081  0.34776  Biso   1.000  H
  H197     1.0000 0.69730  0.02692  0.18117  Biso   1.000  H
  H198     1.0000 0.62360  0.98511  0.15511  Biso   1.000  H
  C186     1.0000 0.89758  0.51000  0.54488  Biso   1.000  C
  H199     1.0000 0.97371  0.65291  0.37319  Biso   1.000  H
  H200     1.0000 0.01919  0.62499  0.34776  Biso   1.000  H
  H201     1.0000 0.97310  0.67039  0.18117  Biso   1.000  H
  H202     1.0000 0.01491  0.63850  0.15511  Biso   1.000  H
  C187     1.0000 0.60050  0.14602  0.86676  Biso   1.000  C
  H203     1.0000 0.56399  0.16320  0.02698  Biso   1.000  H
  C188     1.0000 0.81431  0.52551  0.82311  Biso   1.000  C
  H204     1.0000 0.77431  0.58351  0.79914  Biso   1.000  H
  C189     1.0000 0.63150  0.12831  0.66764  Biso   1.000  C
  H205     1.0000 0.57001  0.08430  0.52091  Biso   1.000  H
  C190     1.0000 0.87170  0.50322  0.66764  Biso   1.000  C
  H206     1.0000 0.91569  0.48570  0.52091  Biso   1.000  H
  C191     1.0000 0.66382  0.17972  0.90121  Biso   1.000  C
  C192     1.0000 0.58509  0.12182  0.74747  Biso   1.000  C
  C193     1.0000 0.84071  0.53491  0.70601  Biso   1.000  C
  C194     1.0000 0.82029  0.48408  0.90121  Biso   1.000  C
  C195     1.0000 0.69420  0.15929  0.70601  Biso   1.000  C
  C196     1.0000 0.87820  0.46331  0.74747  Biso   1.000  C
  C197     1.0000 0.71120  0.18569  0.82311  Biso   1.000  C
  H207     1.0000 0.67471  0.19862  0.97785  Biso   1.000  H
  H208     1.0000 0.54279  0.10120  0.72241  Biso   1.000  H
  H209     1.0000 0.83718  0.56298  0.65306  Biso   1.000  H
  H210     1.0000 0.80138  0.47611  0.97785  Biso   1.000  H
  C198     1.0000 0.85399  0.45448  0.86676  Biso   1.000  C
  H211     1.0000 0.72581  0.16282  0.65306  Biso   1.000  H
  H212     1.0000 0.89880  0.44159  0.72241  Biso   1.000  H
  C199     1.0000 0.77920  0.21958  0.85838  Biso   1.000  C
  C200     1.0000 0.85952  0.40990  0.95416  Biso   1.000  C
  N37      1.0000 0.79878  0.24039  0.96273  Biso   1.000  N
  H213     1.0000 0.80921  0.22569  0.79914  Biso   1.000  H
  N38      1.0000 0.89231  0.38422  0.93584  Biso   1.000  N
  H214     1.0000 0.83681  0.40078  0.02698  Biso   1.000  H
  C201     1.0000 0.86609  0.27438  0.98114  Biso   1.000  C
  C202     1.0000 0.89069  0.34178  0.03099  Biso   1.000  C
  H215     1.0000 0.88819  0.27600  0.90522  Biso   1.000  H
  C203     1.0000 0.88560  0.24478  0.08202  Biso   1.000  C
  C204     1.0000 0.95722  0.35901  0.07282  Biso   1.000  C
  H216     1.0000 0.86470  0.34130  0.09997  Biso   1.000  H
  H217     1.0000 0.85551  0.23132  0.14909  Biso   1.000  H
  H218     1.0000 0.88782  0.20822  0.05213  Biso   1.000  H
  C205     1.0000 0.94860  0.29572  0.12048  Biso   1.000  C
  H219     1.0000 0.97218  0.39099  0.13679  Biso   1.000  H
  H220     1.0000 0.98730  0.37510  0.00547  Biso   1.000  H
  H221     1.0000 0.98161  0.28832  0.08749  Biso   1.000  H
  H222     1.0000 0.95171  0.29672  0.20860  Biso   1.000  H
  Ne1      1.0000 0.66667  0.33333  0.65175  Biso   1.000  Ne
  He1      1.0000 0.66665  0.33333  0.90991  Biso   1.000  He
  He2      1.0000 0.55298  0.23208  0.55658  Biso   1.000  He
  He3      1.0000 0.67996  0.45503  0.55079  Biso   1.000  He
  He4      1.0000 0.76926  0.32075  0.55551  Biso   1.000  He
  Ar1      1.0000 0.66668  0.33334  0.64908  Biso   1.000  Ar
  Ne2      1.0000 0.33334  0.66667  0.14928  Biso   1.000  Ne
  He5      1.0000 0.33332  0.66666  0.39994  Biso   1.000  He
  He6      1.0000 0.21703  0.56442  0.04736  Biso   1.000  He
  He7      1.0000 0.34776  0.78635  0.04495  Biso   1.000  He
  He8      1.0000 0.43236  0.65302  0.04993  Biso   1.000  He
  Ar2      1.0000 0.33333  0.66621  0.12845  Biso   1.000  Ar
  Ne3      1.0000 0.00469  0.00159  0.88947  Biso   1.000  Ne
  He9      1.0000 0.00001  0.00000  0.12801  Biso   1.000  He
  He10     1.0000 0.06791  0.11915  0.78374  Biso   1.000  He
  He11     1.0000 0.86697  0.94218  0.77473  Biso   1.000  He
  He12     1.0000 0.05306  0.93010  0.78126  Biso   1.000  He
  Ar3      1.0000 0.00001  0.00002  0.85692  Biso   1.000  Ar
