data_image0
_cell_length_a       24.215
_cell_length_b       24.214
_cell_length_c       10.988
_cell_angle_alpha    90
_cell_angle_beta     90
_cell_angle_gamma    120

_symmetry_space_group_name_H-M    "P 1"
_symmetry_int_tables_number       1

loop_
  _symmetry_equiv_pos_as_xyz
  'x, y, z'

loop_
  _atom_site_label
  _atom_site_occupancy
  _atom_site_fract_x
  _atom_site_fract_y
  _atom_site_fract_z
  _atom_site_thermal_displace_type
  _atom_site_B_iso_or_equiv
  _atom_site_type_symbol
  C1       1.0000 0.50266  0.38069  0.66382  Biso   1.000  C
  C2       1.0000 0.49389  0.39733  0.54104  Biso   1.000  C
  C3       1.0000 0.46769  0.31750  0.70595  Biso   1.000  C
  C4       1.0000 0.54560  0.42652  0.74490  Biso   1.000  C
  N1       1.0000 0.45568  0.35460  0.46687  Biso   1.000  N
  H1       1.0000 0.51690  0.44063  0.51538  Biso   1.000  H
  H2       1.0000 0.43688  0.28579  0.65371  Biso   1.000  H
  C5       1.0000 0.47637  0.30019  0.81944  Biso   1.000  C
  C6       1.0000 0.55369  0.40949  0.86203  Biso   1.000  C
  H3       1.0000 0.56948  0.46982  0.72006  Biso   1.000  H
  C7       1.0000 0.44839  0.37463  0.34492  Biso   1.000  C
  C8       1.0000 0.52098  0.34802  0.89789  Biso   1.000  C
  C9       1.0000 0.43891  0.23262  0.85539  Biso   1.000  C
  C10      1.0000 0.60030  0.45861  0.94776  Biso   1.000  C
  C11      1.0000 0.38097  0.36080  0.32363  Biso   1.000  C
  C12      1.0000 0.45858  0.33629  0.24681  Biso   1.000  C
  H4       1.0000 0.47919  0.42113  0.33364  Biso   1.000  H
  H5       1.0000 0.52801  0.33672  0.97679  Biso   1.000  H
  N2       1.0000 0.44150  0.21292  0.96150  Biso   1.000  N
  H6       1.0000 0.41152  0.20253  0.79678  Biso   1.000  H
  N3       1.0000 0.63008  0.51693  0.92747  Biso   1.000  N
  H7       1.0000 0.60768  0.44421  0.02312  Biso   1.000  H
  C13      1.0000 0.36741  0.34631  0.18739  Biso   1.000  C
  H8       1.0000 0.37687  0.39819  0.34638  Biso   1.000  H
  H9       1.0000 0.35049  0.32380  0.37295  Biso   1.000  H
  C14      1.0000 0.42830  0.35031  0.13442  Biso   1.000  C
  N4       1.0000 0.52430  0.35451  0.22952  Biso   1.000  N
  H10      1.0000 0.43339  0.28980  0.26711  Biso   1.000  H
  C15      1.0000 0.40289  0.14521  0.98344  Biso   1.000  C
  C16      1.0000 0.67381  0.55723  0.02357  Biso   1.000  C
  H11      1.0000 0.33019  0.30310  0.17501  Biso   1.000  H
  H12      1.0000 0.35868  0.37792  0.14798  Biso   1.000  H
  H13      1.0000 0.45732  0.39332  0.10093  Biso   1.000  H
  H14      1.0000 0.41791  0.31822  0.06962  Biso   1.000  H
  C17      1.0000 0.53860  0.31149  0.23462  Biso   1.000  C
  H15      1.0000 0.37882  0.12332  0.90781  Biso   1.000  H
  C18      1.0000 0.35688  0.12852  0.08882  Biso   1.000  C
  C19      1.0000 0.44277  0.11660  0.02357  Biso   1.000  C
  C20      1.0000 0.74227  0.59709  0.98344  Biso   1.000  C
  C21      1.0000 0.65681  0.60673  0.06780  Biso   1.000  C
  H16      1.0000 0.67137  0.52971  0.09365  Biso   1.000  H
  C22      1.0000 0.60457  0.32260  0.22652  Biso   1.000  C
  H17      1.0000 0.50479  0.26881  0.24427  Biso   1.000  H
  H18      1.0000 0.31797  0.12899  0.06289  Biso   1.000  H
  H19      1.0000 0.37708  0.15908  0.15653  Biso   1.000  H
  C23      1.0000 0.34069  0.06152  0.12759  Biso   1.000  C
  N5       1.0000 0.48307  0.11321  0.92747  Biso   1.000  N
  C24      1.0000 0.39330  0.05012  0.06780  Biso   1.000  C
  H20      1.0000 0.47028  0.14173  0.09365  Biso   1.000  H
  N6       1.0000 0.77138  0.55851  0.96150  Biso   1.000  N
  H21      1.0000 0.74450  0.62122  0.90781  Biso   1.000  H
  C25      1.0000 0.77159  0.64311  0.08882  Biso   1.000  C
  H22      1.0000 0.64410  0.62442  0.99909  Biso   1.000  H
  C26      1.0000 0.72081  0.65932  0.12759  Biso   1.000  C
  H23      1.0000 0.62169  0.58803  0.12823  Biso   1.000  H
  C27      1.0000 0.65640  0.38422  0.22843  Biso   1.000  C
  C28      1.0000 0.61580  0.27220  0.22843  Biso   1.000  C
  H24      1.0000 0.29781  0.02952  0.09829  Biso   1.000  H
  H25      1.0000 0.34171  0.05861  0.21733  Biso   1.000  H
  C29      1.0000 0.54140  0.14173  0.94776  Biso   1.000  C
  H26      1.0000 0.37557  0.01969  0.99909  Biso   1.000  H
  H27      1.0000 0.41198  0.03371  0.12823  Biso   1.000  H
  C30      1.0000 0.79369  0.56109  0.85539  Biso   1.000  C
  H28      1.0000 0.81100  0.68202  0.06289  Biso   1.000  H
  H29      1.0000 0.78197  0.62289  0.15653  Biso   1.000  H
  H30      1.0000 0.73167  0.70220  0.09829  Biso   1.000  H
  H31      1.0000 0.71688  0.65832  0.21733  Biso   1.000  H
  C31      1.0000 0.71800  0.39542  0.22652  Biso   1.000  C
  H32      1.0000 0.64909  0.41931  0.23098  Biso   1.000  H
  C32      1.0000 0.67741  0.28202  0.22652  Biso   1.000  C
  H33      1.0000 0.58068  0.22981  0.23098  Biso   1.000  H
  C33      1.0000 0.59050  0.14421  0.86203  Biso   1.000  C
  H34      1.0000 0.55580  0.16352  0.02312  Biso   1.000  H
  C34      1.0000 0.82380  0.52361  0.81944  Biso   1.000  C
  H35      1.0000 0.79100  0.58851  0.79678  Biso   1.000  H
  C35      1.0000 0.72776  0.34359  0.22843  Biso   1.000  C
  C36      1.0000 0.77289  0.46142  0.23462  Biso   1.000  C
  C37      1.0000 0.68847  0.22709  0.23462  Biso   1.000  C
  C38      1.0000 0.65198  0.17301  0.89789  Biso   1.000  C
  C39      1.0000 0.57350  0.11912  0.74490  Biso   1.000  C
  C40      1.0000 0.84980  0.53233  0.70595  Biso   1.000  C
  C41      1.0000 0.82699  0.47902  0.89789  Biso   1.000  C
  H36      1.0000 0.77021  0.35093  0.23098  Biso   1.000  H
  N7       1.0000 0.83017  0.47573  0.22952  Biso   1.000  N
  H37      1.0000 0.76398  0.49523  0.24427  Biso   1.000  H
  N8       1.0000 0.64551  0.16981  0.22952  Biso   1.000  N
  H38      1.0000 0.73117  0.23600  0.24427  Biso   1.000  H
  C42      1.0000 0.69979  0.17620  0.81944  Biso   1.000  C
  H39      1.0000 0.66328  0.19132  0.97679  Biso   1.000  H
  C43      1.0000 0.61928  0.12198  0.66382  Biso   1.000  C
  H40      1.0000 0.53018  0.09971  0.72006  Biso   1.000  H
  C44      1.0000 0.87798  0.49733  0.66382  Biso   1.000  C
  H41      1.0000 0.84887  0.56309  0.65371  Biso   1.000  H
  H42      1.0000 0.80870  0.47201  0.97679  Biso   1.000  H
  C45      1.0000 0.85577  0.44631  0.86203  Biso   1.000  C
  C46      1.0000 0.87766  0.54139  0.24681  Biso   1.000  C
  C47      1.0000 0.66368  0.12232  0.24681  Biso   1.000  C
  C48      1.0000 0.68250  0.15022  0.70595  Biso   1.000  C
  C49      1.0000 0.76736  0.20630  0.85539  Biso   1.000  C
  C50      1.0000 0.60271  0.09661  0.54104  Biso   1.000  C
  C51      1.0000 0.90338  0.50611  0.54104  Biso   1.000  C
  C52      1.0000 0.88088  0.45441  0.74490  Biso   1.000  C
  C53      1.0000 0.85828  0.39972  0.94776  Biso   1.000  C
  H43      1.0000 0.85637  0.56662  0.26711  Biso   1.000  H
  C54      1.0000 0.92617  0.55160  0.34492  Biso   1.000  C
  C55      1.0000 0.92198  0.57172  0.13442  Biso   1.000  C
  H44      1.0000 0.71020  0.14359  0.26711  Biso   1.000  H
  C56      1.0000 0.62539  0.07382  0.34492  Biso   1.000  C
  C57      1.0000 0.64970  0.07802  0.13442  Biso   1.000  C
  H45      1.0000 0.71421  0.15112  0.65371  Biso   1.000  H
  N9       1.0000 0.78711  0.22861  0.96150  Biso   1.000  N
  H46      1.0000 0.79750  0.20901  0.79678  Biso   1.000  H
  N10      1.0000 0.64538  0.10110  0.46687  Biso   1.000  N
  H47      1.0000 0.55940  0.07630  0.51538  Biso   1.000  H
  N11      1.0000 0.89886  0.54430  0.46687  Biso   1.000  N
  H48      1.0000 0.92369  0.48312  0.51538  Biso   1.000  H
  H49      1.0000 0.90028  0.43052  0.72006  Biso   1.000  H
  N12      1.0000 0.88679  0.36991  0.92747  Biso   1.000  N
  H50      1.0000 0.83650  0.39232  0.02312  Biso   1.000  H
  H51      1.0000 0.94186  0.52079  0.33364  Biso   1.000  H
  C58      1.0000 0.97979  0.61903  0.32363  Biso   1.000  C
  C59      1.0000 0.97890  0.63262  0.18739  Biso   1.000  C
  H52      1.0000 0.93598  0.54273  0.10093  Biso   1.000  H
  H53      1.0000 0.90030  0.58212  0.06962  Biso   1.000  H
  H54      1.0000 0.57886  0.05808  0.33364  Biso   1.000  H
  C60      1.0000 0.63918  0.02022  0.32363  Biso   1.000  C
  C61      1.0000 0.65369  0.02108  0.18739  Biso   1.000  C
  H55      1.0000 0.60668  0.06400  0.10093  Biso   1.000  H
  H56      1.0000 0.68178  0.09971  0.06962  Biso   1.000  H
  C62      1.0000 0.85480  0.25770  0.98344  Biso   1.000  C
  C63      1.0000 0.88341  0.32623  0.02357  Biso   1.000  C
  H57      1.0000 0.97326  0.64950  0.37295  Biso   1.000  H
  H58      1.0000 0.02132  0.62313  0.34638  Biso   1.000  H
  H59      1.0000 0.97289  0.66982  0.17501  Biso   1.000  H
  H60      1.0000 0.01921  0.64130  0.14798  Biso   1.000  H
  H61      1.0000 0.67621  0.02670  0.37295  Biso   1.000  H
  H62      1.0000 0.60180  0.97873  0.34638  Biso   1.000  H
  H63      1.0000 0.69688  0.02709  0.17501  Biso   1.000  H
  H64      1.0000 0.62209  0.98083  0.14798  Biso   1.000  H
  H65      1.0000 0.87666  0.25551  0.90781  Biso   1.000  H
  C64      1.0000 0.87151  0.22842  0.08882  Biso   1.000  C
  C65      1.0000 0.94987  0.34321  0.06780  Biso   1.000  C
  H66      1.0000 0.85829  0.32861  0.09365  Biso   1.000  H
  H67      1.0000 0.87099  0.18898  0.06289  Biso   1.000  H
  H68      1.0000 0.84091  0.21803  0.15653  Biso   1.000  H
  C66      1.0000 0.93848  0.27921  0.12759  Biso   1.000  C
  H69      1.0000 0.98029  0.35589  0.99909  Biso   1.000  H
  H70      1.0000 0.96627  0.37830  0.12823  Biso   1.000  H
  H71      1.0000 0.97048  0.26829  0.09829  Biso   1.000  H
  H72      1.0000 0.94139  0.28312  0.21733  Biso   1.000  H
  C67      1.0000 0.55381  0.58384  0.60229  Biso   1.000  C
  C68      1.0000 0.53430  0.60973  0.49299  Biso   1.000  C
  H73      1.0000 0.51950  0.56610  0.66409  Biso   1.000  H
  H74      1.0000 0.56262  0.54983  0.57617  Biso   1.000  H
  C69      1.0000 0.61331  0.63982  0.65371  Biso   1.000  C
  N13      1.0000 0.46619  0.57230  0.46787  Biso   1.000  N
  H75      1.0000 0.55980  0.61250  0.41928  Biso   1.000  H
  C70      1.0000 0.55179  0.67611  0.53904  Biso   1.000  C
  C71      1.0000 0.61859  0.69953  0.59210  Biso   1.000  C
  H76      1.0000 0.65117  0.63601  0.63515  Biso   1.000  H
  H77      1.0000 0.60971  0.64211  0.74308  Biso   1.000  H
  C72      1.0000 0.44910  0.55603  0.35876  Biso   1.000  C
  N14      1.0000 0.55151  0.71602  0.43902  Biso   1.000  N
  H78      1.0000 0.52170  0.67292  0.60448  Biso   1.000  H
  H79      1.0000 0.62980  0.73400  0.65226  Biso   1.000  H
  H80      1.0000 0.65127  0.71541  0.52712  Biso   1.000  H
  C73      1.0000 0.38157  0.52389  0.32071  Biso   1.000  C
  H81      1.0000 0.48078  0.56481  0.29914  Biso   1.000  H
  C74      1.0000 0.51770  0.74230  0.45304  Biso   1.000  C
  C75      1.0000 0.36549  0.49743  0.20531  Biso   1.000  C
  C76      1.0000 0.33571  0.51922  0.39798  Biso   1.000  C
  C77      1.0000 0.51237  0.78460  0.36567  Biso   1.000  C
  H82      1.0000 0.49399  0.73362  0.52639  Biso   1.000  H
  C78      1.0000 0.30131  0.46710  0.16627  Biso   1.000  C
  H83      1.0000 0.39761  0.49972  0.15244  Biso   1.000  H
  C79      1.0000 0.27220  0.48760  0.36567  Biso   1.000  C
  H84      1.0000 0.34759  0.53820  0.47625  Biso   1.000  H
  C80      1.0000 0.48079  0.81650  0.39798  Biso   1.000  C
  C81      1.0000 0.53899  0.79380  0.24827  Biso   1.000  C
  C82      1.0000 0.28489  0.43930  0.04587  Biso   1.000  C
  C83      1.0000 0.25477  0.46099  0.24827  Biso   1.000  C
  C84      1.0000 0.22458  0.48231  0.45304  Biso   1.000  C
  C85      1.0000 0.47608  0.85770  0.32071  Biso   1.000  C
  H85      1.0000 0.46180  0.80940  0.47625  Biso   1.000  H
  C86      1.0000 0.53288  0.83419  0.16627  Biso   1.000  C
  H86      1.0000 0.56122  0.77244  0.22497  Biso   1.000  H
  H87      1.0000 0.24150  0.41951  0.02157  Biso   1.000  H
  N15      1.0000 0.32500  0.43982  0.97060  Biso   1.000  N
  H88      1.0000 0.21118  0.43882  0.22497  Biso   1.000  H
  N16      1.0000 0.16448  0.44850  0.43902  Biso   1.000  N
  H89      1.0000 0.23961  0.50601  0.52639  Biso   1.000  H
  C87      1.0000 0.50258  0.86810  0.20531  Biso   1.000  C
  C88      1.0000 0.44399  0.89314  0.35876  Biso   1.000  C
  C89      1.0000 0.56069  0.84564  0.04587  Biso   1.000  C
  C90      1.0000 0.30280  0.41102  0.85111  Biso   1.000  C
  C91      1.0000 0.12428  0.44821  0.53904  Biso   1.000  C
  H90      1.0000 0.50027  0.89790  0.15244  Biso   1.000  H
  N17      1.0000 0.42769  0.89390  0.46787  Biso   1.000  N
  H91      1.0000 0.43520  0.91603  0.29914  Biso   1.000  H
  N18      1.0000 0.56020  0.88522  0.97060  Biso   1.000  N
  H92      1.0000 0.58048  0.82203  0.02157  Biso   1.000  H
  C92      1.0000 0.33809  0.45832  0.74909  Biso   1.000  C
  H93      1.0000 0.25580  0.39342  0.84347  Biso   1.000  H
  C93      1.0000 0.31939  0.35889  0.82827  Biso   1.000  C
  C94      1.0000 0.07538  0.46571  0.49299  Biso   1.000  C
  H94      1.0000 0.15118  0.47830  0.60448  Biso   1.000  H
  C95      1.0000 0.08089  0.38140  0.59210  Biso   1.000  C
  C96      1.0000 0.39031  0.92461  0.49299  Biso   1.000  C
  C97      1.0000 0.58897  0.89180  0.85111  Biso   1.000  C
  N19      1.0000 0.31819  0.50582  0.73699  Biso   1.000  N
  H95      1.0000 0.38497  0.48031  0.76511  Biso   1.000  H
  C98      1.0000 0.32270  0.41540  0.63988  Biso   1.000  C
  H96      1.0000 0.28761  0.31812  0.86594  Biso   1.000  H
  H97      1.0000 0.36227  0.37129  0.86021  Biso   1.000  H
  C99      1.0000 0.31762  0.35403  0.68484  Biso   1.000  C
  N20      1.0000 0.10609  0.53381  0.46787  Biso   1.000  N
  H98      1.0000 0.05267  0.44020  0.41928  Biso   1.000  H
  C100     1.0000 0.02999  0.44621  0.60229  Biso   1.000  C
  C101     1.0000 0.02650  0.38670  0.65371  Biso   1.000  C
  H99      1.0000 0.10419  0.37020  0.65226  Biso   1.000  H
  H100     1.0000 0.06408  0.34869  0.52712  Biso   1.000  H
  C102     1.0000 0.32391  0.87573  0.53904  Biso   1.000  C
  H101     1.0000 0.38749  0.94731  0.41928  Biso   1.000  H
  C103     1.0000 0.41618  0.97001  0.60229  Biso   1.000  C
  C104     1.0000 0.54169  0.87983  0.74909  Biso   1.000  C
  H102     1.0000 0.60658  0.86243  0.84347  Biso   1.000  H
  C105     1.0000 0.64109  0.96052  0.82827  Biso   1.000  C
  C106     1.0000 0.36029  0.56409  0.74445  Biso   1.000  C
  H103     1.0000 0.28191  0.40692  0.60293  Biso   1.000  H
  H104     1.0000 0.35681  0.43562  0.57799  Biso   1.000  H
  H105     1.0000 0.35369  0.34960  0.65435  Biso   1.000  H
  H106     1.0000 0.27719  0.31669  0.65726  Biso   1.000  H
  C107     1.0000 0.10692  0.55093  0.35876  Biso   1.000  C
  H107     1.0000 0.04660  0.48050  0.66409  Biso   1.000  H
  H108     1.0000 0.98718  0.43739  0.57617  Biso   1.000  H
  H109     1.0000 0.03240  0.39032  0.74308  Biso   1.000  H
  H110     1.0000 0.98475  0.34878  0.63515  Biso   1.000  H
  N21      1.0000 0.28399  0.83553  0.43902  Biso   1.000  N
  H111     1.0000 0.32710  0.84883  0.60448  Biso   1.000  H
  C108     1.0000 0.30051  0.91913  0.59210  Biso   1.000  C
  H112     1.0000 0.43390  0.95341  0.66409  Biso   1.000  H
  C109     1.0000 0.36021  0.97354  0.65371  Biso   1.000  C
  H113     1.0000 0.45017  0.01278  0.57617  Biso   1.000  H
  N22      1.0000 0.49419  0.81240  0.73699  Biso   1.000  N
  H114     1.0000 0.51970  0.90472  0.76511  Biso   1.000  H
  C110     1.0000 0.58458  0.90730  0.63988  Biso   1.000  C
  C111     1.0000 0.64598  0.96362  0.68484  Biso   1.000  C
  H115     1.0000 0.68190  0.96953  0.86594  Biso   1.000  H
  H116     1.0000 0.62868  0.99104  0.86021  Biso   1.000  H
  C112     1.0000 0.34689  0.61641  0.73999  Biso   1.000  C
  H117     1.0000 0.40348  0.57449  0.75355  Biso   1.000  H
  C113     1.0000 0.14231  0.61841  0.32071  Biso   1.000  C
  H118     1.0000 0.08401  0.51922  0.29914  Biso   1.000  H
  C114     1.0000 0.25768  0.77540  0.45304  Biso   1.000  C
  H119     1.0000 0.26597  0.89581  0.65226  Biso   1.000  H
  H120     1.0000 0.28458  0.93591  0.52712  Biso   1.000  H
  H121     1.0000 0.35788  0.96762  0.74308  Biso   1.000  H
  H122     1.0000 0.36400  0.01522  0.63515  Biso   1.000  H
  C115     1.0000 0.43589  0.79624  0.74445  Biso   1.000  C
  H123     1.0000 0.59310  0.87501  0.60293  Biso   1.000  H
  H124     1.0000 0.56437  0.92122  0.57799  Biso   1.000  H
  H125     1.0000 0.68330  0.96052  0.65726  Biso   1.000  H
  H126     1.0000 0.65037  0.00410  0.65435  Biso   1.000  H
  C116     1.0000 0.28360  0.60530  0.74090  Biso   1.000  C
  C117     1.0000 0.39468  0.67830  0.74090  Biso   1.000  C
  C118     1.0000 0.13191  0.63453  0.20531  Biso   1.000  C
  C119     1.0000 0.18353  0.66433  0.39798  Biso   1.000  C
  C120     1.0000 0.21538  0.72780  0.36567  Biso   1.000  C
  H127     1.0000 0.26638  0.76042  0.52639  Biso   1.000  H
  C121     1.0000 0.38358  0.73052  0.73999  Biso   1.000  C
  H128     1.0000 0.42547  0.82900  0.75355  Biso   1.000  H
  C122     1.0000 0.26952  0.65313  0.73999  Biso   1.000  C
  H129     1.0000 0.24949  0.56252  0.74236  Biso   1.000  H
  H130     1.0000 0.43749  0.68703  0.74236  Biso   1.000  H
  C123     1.0000 0.16578  0.69871  0.16627  Biso   1.000  C
  H131     1.0000 0.10211  0.60243  0.15244  Biso   1.000  H
  H132     1.0000 0.19061  0.65241  0.47625  Biso   1.000  H
  C124     1.0000 0.20620  0.74521  0.24827  Biso   1.000  C
  C125     1.0000 0.32168  0.71641  0.74090  Biso   1.000  C
  C126     1.0000 0.20381  0.63973  0.74445  Biso   1.000  C
  C127     1.0000 0.15441  0.71512  0.04587  Biso   1.000  C
  H133     1.0000 0.22758  0.78880  0.22497  Biso   1.000  H
  H134     1.0000 0.31300  0.75050  0.74236  Biso   1.000  H
  N23      1.0000 0.18761  0.68183  0.73699  Biso   1.000  N
  H135     1.0000 0.17101  0.59652  0.75355  Biso   1.000  H
  N24      1.0000 0.11478  0.67501  0.97060  Biso   1.000  N
  H136     1.0000 0.17800  0.75851  0.02157  Biso   1.000  H
  C128     1.0000 0.12020  0.66190  0.74909  Biso   1.000  C
  C129     1.0000 0.10822  0.69724  0.85111  Biso   1.000  C
  H137     1.0000 0.09532  0.61502  0.76511  Biso   1.000  H
  C130     1.0000 0.09267  0.67730  0.63988  Biso   1.000  C
  H138     1.0000 0.13761  0.74421  0.84347  Biso   1.000  H
  C131     1.0000 0.03948  0.68059  0.82827  Biso   1.000  C
  C132     1.0000 0.03638  0.68241  0.68484  Biso   1.000  C
  H139     1.0000 0.12502  0.71812  0.60293  Biso   1.000  H
  H140     1.0000 0.07881  0.64321  0.57799  Biso   1.000  H
  H141     1.0000 0.03048  0.71240  0.86594  Biso   1.000  H
  H142     1.0000 0.00900  0.63772  0.86021  Biso   1.000  H
  H143     1.0000 0.99586  0.64631  0.65435  Biso   1.000  H
  H144     1.0000 0.03948  0.72280  0.65726  Biso   1.000  H
  C133     1.0000 0.84631  0.19223  0.54432  Biso   1.000  C
  C134     1.0000 0.83750  0.18841  0.41081  Biso   1.000  C
  C135     1.0000 0.88909  0.16481  0.57171  Biso   1.000  C
  H145     1.0000 0.80467  0.16710  0.58591  Biso   1.000  H
  H146     1.0000 0.86638  0.23701  0.57199  Biso   1.000  H
  H147     1.0000 0.85997  0.23162  0.37468  Biso   1.000  H
  H148     1.0000 0.79159  0.16829  0.39043  Biso   1.000  H
  C136     1.0000 0.86529  0.14793  0.36149  Biso   1.000  C
  C137     1.0000 0.87268  0.11521  0.47379  Biso   1.000  C
  N25      1.0000 0.87669  0.13529  0.69421  Biso   1.000  N
  H149     1.0000 0.93479  0.19881  0.56462  Biso   1.000  H
  H150     1.0000 0.83597  0.11621  0.30178  Biso   1.000  H
  H151     1.0000 0.90709  0.17520  0.32190  Biso   1.000  H
  N26      1.0000 0.92261  0.09862  0.46059  Biso   1.000  N
  H152     1.0000 0.83111  0.07601  0.49317  Biso   1.000  H
  C138     1.0000 0.92267  0.15780  0.76711  Biso   1.000  C
  C139     1.0000 0.90790  0.04211  0.47379  Biso   1.000  C
  C140     1.0000 0.91518  0.13009  0.89152  Biso   1.000  C
  H153     1.0000 0.96259  0.19280  0.74299  Biso   1.000  H
  C141     1.0000 0.95476  0.01979  0.47124  Biso   1.000  C
  H154     1.0000 0.86417  0.01140  0.48626  Biso   1.000  H
  C142     1.0000 0.85926  0.07558  0.92683  Biso   1.000  C
  C143     1.0000 0.96676  0.15999  0.97133  Biso   1.000  C
  C144     1.0000 0.93527  0.95560  0.47215  Biso   1.000  C
  C145     1.0000 0.02030  0.06471  0.47215  Biso   1.000  C
  H155     1.0000 0.82477  0.05541  0.87131  Biso   1.000  H
  C146     1.0000 0.85378  0.05098  0.04159  Biso   1.000  C
  C147     1.0000 0.96088  0.13453  0.08628  Biso   1.000  C
  H156     1.0000 0.00500  0.19700  0.94712  Biso   1.000  H
  C148     1.0000 0.98018  0.93500  0.47124  Biso   1.000  C
  H157     1.0000 0.89099  0.92504  0.47343  Biso   1.000  H
  C149     1.0000 0.06501  0.04521  0.47124  Biso   1.000  C
  H158     1.0000 0.03402  0.10901  0.47343  Biso   1.000  H
  C150     1.0000 0.79608  0.99142  0.08191  Biso   1.000  C
  C151     1.0000 0.90587  0.08059  0.12241  Biso   1.000  C
  C152     1.0000 0.01299  0.16218  0.17910  Biso   1.000  C
  C153     1.0000 0.95789  0.86581  0.47379  Biso   1.000  C
  C154     1.0000 0.04442  0.97973  0.47215  Biso   1.000  C
  C155     1.0000 0.13421  0.09208  0.47379  Biso   1.000  C
  N27      1.0000 0.79009  0.97530  0.19439  Biso   1.000  N
  H159     1.0000 0.76410  0.96552  0.02485  Biso   1.000  H
  H160     1.0000 0.90299  0.06342  0.20140  Biso   1.000  H
  N28      1.0000 0.06219  0.21731  0.16727  Biso   1.000  N
  H161     1.0000 0.00931  0.13782  0.24954  Biso   1.000  H
  N29      1.0000 0.90141  0.82403  0.46059  Biso   1.000  N
  H162     1.0000 0.98857  0.85284  0.48626  Biso   1.000  H
  H163     1.0000 0.07497  0.96600  0.47343  Biso   1.000  H
  N30      1.0000 0.17601  0.07740  0.46059  Biso   1.000  N
  H164     1.0000 0.14719  0.13581  0.48626  Biso   1.000  H
  C156     1.0000 0.73761  0.91264  0.22834  Biso   1.000  C
  C157     1.0000 0.10800  0.23748  0.26747  Biso   1.000  C
  C158     1.0000 0.88479  0.75751  0.47379  Biso   1.000  C
  C159     1.0000 0.24252  0.12733  0.47379  Biso   1.000  C
  C160     1.0000 0.76248  0.87053  0.26747  Biso   1.000  C
  H165     1.0000 0.70750  0.89304  0.15854  Biso   1.000  H
  C161     1.0000 0.70188  0.91774  0.34101  Biso   1.000  C
  H166     1.0000 0.09571  0.19952  0.32062  Biso   1.000  H
  C162     1.0000 0.17502  0.26242  0.22834  Biso   1.000  C
  C163     1.0000 0.11080  0.28951  0.34565  Biso   1.000  C
  H167     1.0000 0.92399  0.75513  0.49317  Biso   1.000  H
  C164     1.0000 0.83520  0.72432  0.57171  Biso   1.000  C
  C165     1.0000 0.85206  0.71740  0.36149  Biso   1.000  C
  H168     1.0000 0.24489  0.16891  0.49317  Biso   1.000  H
  C166     1.0000 0.27569  0.11092  0.57171  Biso   1.000  C
  C167     1.0000 0.28259  0.13472  0.36149  Biso   1.000  C
  N31      1.0000 0.78267  0.84492  0.16727  Biso   1.000  N
  H169     1.0000 0.80048  0.89623  0.32062  Biso   1.000  H
  C168     1.0000 0.71050  0.82132  0.34565  Biso   1.000  C
  H170     1.0000 0.65998  0.91240  0.31753  Biso   1.000  H
  H171     1.0000 0.72730  0.95942  0.38187  Biso   1.000  H
  C169     1.0000 0.69317  0.86190  0.42592  Biso   1.000  C
  N32      1.0000 0.18519  0.20992  0.19439  Biso   1.000  N
  H172     1.0000 0.18548  0.29251  0.15854  Biso   1.000  H
  C170     1.0000 0.21578  0.29809  0.34101  Biso   1.000  C
  C171     1.0000 0.16868  0.30682  0.42592  Biso   1.000  C
  H173     1.0000 0.07150  0.27401  0.39489  Biso   1.000  H
  H174     1.0000 0.11711  0.32632  0.29605  Biso   1.000  H
  N33      1.0000 0.86467  0.74139  0.69421  Biso   1.000  N
  H175     1.0000 0.80119  0.73600  0.56462  Biso   1.000  H
  C172     1.0000 0.80778  0.65412  0.54432  Biso   1.000  C
  C173     1.0000 0.81160  0.64912  0.41081  Biso   1.000  C
  H176     1.0000 0.88377  0.71979  0.30178  Biso   1.000  H
  H177     1.0000 0.82478  0.73190  0.32190  Biso   1.000  H
  N34      1.0000 0.25860  0.12332  0.69421  Biso   1.000  N
  H178     1.0000 0.26398  0.06519  0.56462  Biso   1.000  H
  C174     1.0000 0.34589  0.15370  0.54432  Biso   1.000  C
  C175     1.0000 0.35088  0.16252  0.41081  Biso   1.000  C
  H179     1.0000 0.28018  0.16400  0.30178  Biso   1.000  H
  H180     1.0000 0.26809  0.09289  0.32190  Biso   1.000  H
  C176     1.0000 0.83779  0.85083  0.17910  Biso   1.000  C
  H181     1.0000 0.72598  0.79752  0.39489  Biso   1.000  H
  H182     1.0000 0.67368  0.79080  0.29605  Biso   1.000  H
  H183     1.0000 0.72186  0.87849  0.49718  Biso   1.000  H
  H184     1.0000 0.64857  0.83672  0.45495  Biso   1.000  H
  C177     1.0000 0.19528  0.20391  0.08191  Biso   1.000  C
  H185     1.0000 0.25239  0.34001  0.31753  Biso   1.000  H
  H186     1.0000 0.23212  0.27272  0.38187  Biso   1.000  H
  H187     1.0000 0.15660  0.27811  0.49718  Biso   1.000  H
  H188     1.0000 0.18809  0.35141  0.45495  Biso   1.000  H
  C178     1.0000 0.84219  0.76490  0.76711  Biso   1.000  C
  H189     1.0000 0.83290  0.63762  0.58591  Biso   1.000  H
  H190     1.0000 0.76297  0.62942  0.57199  Biso   1.000  H
  H191     1.0000 0.76838  0.62842  0.37468  Biso   1.000  H
  H192     1.0000 0.83170  0.62332  0.39043  Biso   1.000  H
  C179     1.0000 0.23510  0.07730  0.76711  Biso   1.000  C
  H193     1.0000 0.36241  0.19533  0.58591  Biso   1.000  H
  H194     1.0000 0.37059  0.13362  0.57199  Biso   1.000  H
  H195     1.0000 0.37159  0.14001  0.37468  Biso   1.000  H
  H196     1.0000 0.37667  0.20839  0.39043  Biso   1.000  H
  C180     1.0000 0.86547  0.82642  0.08628  Biso   1.000  C
  H197     1.0000 0.86218  0.87153  0.24954  Biso   1.000  H
  C181     1.0000 0.19720  0.14621  0.04159  Biso   1.000  C
  H198     1.0000 0.20141  0.23591  0.02485  Biso   1.000  H
  C182     1.0000 0.86989  0.78512  0.89152  Biso   1.000  C
  H199     1.0000 0.80719  0.76981  0.74299  Biso   1.000  H
  C183     1.0000 0.21489  0.08479  0.89152  Biso   1.000  C
  H200     1.0000 0.23017  0.03739  0.74299  Biso   1.000  H
  C184     1.0000 0.83998  0.80682  0.97133  Biso   1.000  C
  C185     1.0000 0.91940  0.82532  0.12241  Biso   1.000  C
  C186     1.0000 0.21630  0.14073  0.92683  Biso   1.000  C
  C187     1.0000 0.17469  0.09409  0.12241  Biso   1.000  C
  C188     1.0000 0.92435  0.78369  0.92683  Biso   1.000  C
  C189     1.0000 0.19318  0.03319  0.97133  Biso   1.000  C
  H201     1.0000 0.80300  0.80801  0.94712  Biso   1.000  H
  C190     1.0000 0.94898  0.80281  0.04159  Biso   1.000  C
  H202     1.0000 0.93658  0.83963  0.20140  Biso   1.000  H
  H203     1.0000 0.23061  0.17520  0.87131  Biso   1.000  H
  H204     1.0000 0.16041  0.09700  0.20140  Biso   1.000  H
  C191     1.0000 0.17359  0.03910  0.08628  Biso   1.000  C
  H205     1.0000 0.94460  0.76943  0.87131  Biso   1.000  H
  H206     1.0000 0.19199  0.99504  0.94712  Biso   1.000  H
  C192     1.0000 0.00862  0.80472  0.08191  Biso   1.000  C
  C193     1.0000 0.14920  0.98703  0.17910  Biso   1.000  C
  N35      1.0000 0.02470  0.81483  0.19439  Biso   1.000  N
  H207     1.0000 0.03452  0.79862  0.02485  Biso   1.000  H
  N36      1.0000 0.15507  0.93782  0.16727  Biso   1.000  N
  H208     1.0000 0.12849  0.99070  0.24954  Biso   1.000  H
  C194     1.0000 0.08741  0.82504  0.22834  Biso   1.000  C
  C195     1.0000 0.12950  0.89204  0.26747  Biso   1.000  C
  H209     1.0000 0.10700  0.81450  0.15854  Biso   1.000  H
  C196     1.0000 0.08228  0.78421  0.34101  Biso   1.000  C
  H210     1.0000 0.10381  0.90434  0.32062  Biso   1.000  H
  C197     1.0000 0.17868  0.88922  0.34565  Biso   1.000  C
  H211     1.0000 0.08759  0.74759  0.31753  Biso   1.000  H
  H212     1.0000 0.04060  0.76791  0.38187  Biso   1.000  H
  C198     1.0000 0.13809  0.83133  0.42592  Biso   1.000  C
  H213     1.0000 0.20250  0.92852  0.39489  Biso   1.000  H
  H214     1.0000 0.20919  0.88293  0.29605  Biso   1.000  H
  H215     1.0000 0.12149  0.84339  0.49718  Biso   1.000  H
  H216     1.0000 0.16328  0.81192  0.45495  Biso   1.000  H
  Ne1      1.0000 0.66666  0.33334  0.64799  Biso   1.000  Ne
  He1      1.0000 0.66664  0.33335  0.90760  Biso   1.000  He
  He2      1.0000 0.76360  0.31320  0.55173  Biso   1.000  He
  He3      1.0000 0.54580  0.23325  0.54902  Biso   1.000  He
  He4      1.0000 0.68766  0.45566  0.54798  Biso   1.000  He
  Ar1      1.0000 0.66679  0.33331  0.63390  Biso   1.000  Ar
  Ne2      1.0000 0.33333  0.66668  0.15551  Biso   1.000  Ne
  He5      1.0000 0.33333  0.66668  0.40643  Biso   1.000  He
  He6      1.0000 0.21905  0.56419  0.05397  Biso   1.000  He
  He7      1.0000 0.34539  0.78434  0.05150  Biso   1.000  He
  He8      1.0000 0.43918  0.65459  0.05129  Biso   1.000  He
  Ar2      1.0000 0.33331  0.66666  0.13212  Biso   1.000  Ar
  Ne3      1.0000 0.99999  0.00001  0.88408  Biso   1.000  Ne
  He9      1.0000 1.00000  0.00002  0.13658  Biso   1.000  He
  He10     1.0000 0.86701  0.94288  0.77823  Biso   1.000  He
  He11     1.0000 0.05254  0.92933  0.78471  Biso   1.000  He
  He12     1.0000 0.06858  0.11935  0.78731  Biso   1.000  He
  Ar3      1.0000 0.00021  0.00032  0.86133  Biso   1.000  Ar
