data_image0
_cell_length_a       17.683
_cell_length_b       13.85
_cell_length_c       28.948
_cell_angle_alpha    90
_cell_angle_beta     99.57
_cell_angle_gamma    90

_symmetry_space_group_name_H-M    "P 1"
_symmetry_int_tables_number       1

loop_
  _symmetry_equiv_pos_as_xyz
  'x, y, z'

loop_
  _atom_site_label
  _atom_site_occupancy
  _atom_site_fract_x
  _atom_site_fract_y
  _atom_site_fract_z
  _atom_site_thermal_displace_type
  _atom_site_B_iso_or_equiv
  _atom_site_type_symbol
  O1       1.0000 0.45220  0.67264  0.46029  Biso   1.000  O
  C1       1.0000 0.38048  0.61892  0.44799  Biso   1.000  C
  H1       1.0000 0.44518  0.72007  0.47710  Biso   1.000  H
  C2       1.0000 0.37347  0.53552  0.48040  Biso   1.000  C
  H2       1.0000 0.37698  0.59408  0.41559  Biso   1.000  H
  H3       1.0000 0.33696  0.66361  0.44848  Biso   1.000  H
  C3       1.0000 0.30705  0.46939  0.46411  Biso   1.000  C
  O2       1.0000 0.36106  0.57769  0.52436  Biso   1.000  O
  H4       1.0000 0.42228  0.49762  0.48541  Biso   1.000  H
  O3       1.0000 0.31016  0.42513  0.41965  Biso   1.000  O
  C4       1.0000 0.30566  0.39061  0.49931  Biso   1.000  C
  H5       1.0000 0.25835  0.50729  0.46158  Biso   1.000  H
  C5       1.0000 0.36015  0.50801  0.56010  Biso   1.000  C
  C6       1.0000 0.25496  0.45480  0.37929  Biso   1.000  C
  O4       1.0000 0.24087  0.32563  0.48401  Biso   1.000  O
  C7       1.0000 0.29665  0.43004  0.54640  Biso   1.000  C
  H6       1.0000 0.35457  0.35307  0.50240  Biso   1.000  H
  O5       1.0000 0.42937  0.45812  0.57257  Biso   1.000  O
  H7       1.0000 0.34908  0.54231  0.58861  Biso   1.000  H
  C8       1.0000 0.22381  0.36347  0.35460  Biso   1.000  C
  O6       1.0000 0.28680  0.51531  0.34980  Biso   1.000  O
  H8       1.0000 0.21200  0.48960  0.39061  Biso   1.000  H
  H9       1.0000 0.25746  0.27047  0.47889  Biso   1.000  H
  O7       1.0000 0.29925  0.36022  0.58048  Biso   1.000  O
  H10      1.0000 0.24568  0.46282  0.54321  Biso   1.000  H
  C9       1.0000 0.48000  0.48643  0.61541  Biso   1.000  C
  C10      1.0000 0.28409  0.31220  0.33070  Biso   1.000  C
  O8       1.0000 0.19421  0.29993  0.38630  Biso   1.000  O
  H11      1.0000 0.18018  0.38217  0.32958  Biso   1.000  H
  C11      1.0000 0.34980  0.47199  0.33028  Biso   1.000  C
  H12      1.0000 0.32585  0.38007  0.60550  Biso   1.000  H
  C12      1.0000 0.50205  0.39097  0.64179  Biso   1.000  C
  H13      1.0000 0.45125  0.52838  0.63468  Biso   1.000  H
  C13      1.0000 0.54788  0.53877  0.60511  Biso   1.000  C
  O9       1.0000 0.24861  0.23610  0.30068  Biso   1.000  O
  H14      1.0000 0.32426  0.28368  0.35530  Biso   1.000  H
  C14      1.0000 0.32118  0.38260  0.30201  Biso   1.000  C
  H15      1.0000 0.20619  0.24282  0.38108  Biso   1.000  H
  H16      1.0000 0.39419  0.45639  0.35540  Biso   1.000  H
  C15      1.0000 0.36988  0.55199  0.29809  Biso   1.000  C
  O10      1.0000 0.43833  0.34968  0.65598  Biso   1.000  O
  C16      1.0000 0.56616  0.40852  0.68369  Biso   1.000  C
  H17      1.0000 0.52168  0.34527  0.61979  Biso   1.000  H
  O11      1.0000 0.60124  0.55531  0.64719  Biso   1.000  O
  H18      1.0000 0.57366  0.49690  0.58430  Biso   1.000  H
  C17      1.0000 0.53188  0.64029  0.57999  Biso   1.000  C
  H19      1.0000 0.28200  0.20773  0.28832  Biso   1.000  H
  O12      1.0000 0.38219  0.33300  0.28723  Biso   1.000  O
  H20      1.0000 0.28330  0.40231  0.27399  Biso   1.000  H
  O13      1.0000 0.29750  0.58318  0.26880  Biso   1.000  O
  H21      1.0000 0.39417  0.60693  0.31690  Biso   1.000  H
  H22      1.0000 0.40600  0.52773  0.27809  Biso   1.000  H
  H23      1.0000 0.39937  0.38318  0.64620  Biso   1.000  H
  O14      1.0000 0.59337  0.32217  0.70492  Biso   1.000  O
  C18      1.0000 0.63106  0.46830  0.67031  Biso   1.000  C
  H24      1.0000 0.54349  0.44643  0.70741  Biso   1.000  H
  S1       1.0000 0.48924  0.72022  0.61716  Biso   1.000  S
  H25      1.0000 0.49686  0.63191  0.54980  Biso   1.000  H
  H26      1.0000 0.58057  0.66830  0.57351  Biso   1.000  H
  C19      1.0000 0.38939  0.33697  0.23969  Biso   1.000  C
  H27      1.0000 0.27330  0.61921  0.28460  Biso   1.000  H
  H28      1.0000 0.61543  0.33343  0.73238  Biso   1.000  H
  O15      1.0000 0.66255  0.40866  0.63745  Biso   1.000  O
  H29      1.0000 0.67048  0.48303  0.69840  Biso   1.000  H
  C20      1.0000 0.44307  0.80671  0.57740  Biso   1.000  C
  O16      1.0000 0.45238  0.39942  0.23489  Biso   1.000  O
  H30      1.0000 0.34090  0.36079  0.22028  Biso   1.000  H
  C21      1.0000 0.40847  0.23134  0.22480  Biso   1.000  C
  C22      1.0000 0.74345  0.39379  0.64568  Biso   1.000  C
  N1       1.0000 0.44346  0.80202  0.53249  Biso   1.000  N
  N2       1.0000 0.41088  0.87552  0.60000  Biso   1.000  N
  C23      1.0000 0.52311  0.37292  0.26330  Biso   1.000  C
  O17      1.0000 0.34580  0.17141  0.23328  Biso   1.000  O
  H31      1.0000 0.41157  0.23040  0.19072  Biso   1.000  H
  C24      1.0000 0.48299  0.19928  0.25220  Biso   1.000  C
  C25      1.0000 0.75467  0.28910  0.63951  Biso   1.000  C
  H32      1.0000 0.76635  0.41458  0.67808  Biso   1.000  H
  C26      1.0000 0.77727  0.45458  0.60809  Biso   1.000  C
  C27      1.0000 0.41109  0.87343  0.50601  Biso   1.000  C
  C28      1.0000 0.37777  0.94412  0.57330  Biso   1.000  C
  C29      1.0000 0.54701  0.27191  0.24929  Biso   1.000  C
  H33      1.0000 0.51301  0.36780  0.29620  Biso   1.000  H
  C30      1.0000 0.58396  0.45047  0.26330  Biso   1.000  C
  H34      1.0000 0.31687  0.16000  0.20781  Biso   1.000  H
  O18      1.0000 0.50409  0.10751  0.23871  Biso   1.000  O
  H35      1.0000 0.47639  0.19509  0.28569  Biso   1.000  H
  O19      1.0000 0.72805  0.23877  0.67738  Biso   1.000  O
  C31      1.0000 0.83645  0.26332  0.63790  Biso   1.000  C
  H36      1.0000 0.72249  0.26852  0.60939  Biso   1.000  H
  O20      1.0000 0.85908  0.42650  0.61051  Biso   1.000  O
  H37      1.0000 0.74796  0.44079  0.57621  Biso   1.000  H
  C32      1.0000 0.78078  0.55899  0.61639  Biso   1.000  C
  H38      1.0000 0.41465  0.87451  0.47360  Biso   1.000  H
  C33      1.0000 0.37289  0.94469  0.52419  Biso   1.000  C
  H39      1.0000 0.35587  0.99653  0.58760  Biso   1.000  H
  O21      1.0000 0.61349  0.24123  0.28141  Biso   1.000  O
  H40      1.0000 0.55890  0.27343  0.21671  Biso   1.000  H
  O22      1.0000 0.58799  0.47271  0.21618  Biso   1.000  O
  O23      1.0000 0.55439  0.54592  0.26082  Biso   1.000  O
  H41      1.0000 0.52501  0.11227  0.21478  Biso   1.000  H
  H42      1.0000 0.68634  0.21090  0.66729  Biso   1.000  H
  O24      1.0000 0.84578  0.16477  0.62729  Biso   1.000  O
  C34      1.0000 0.86705  0.32368  0.60091  Biso   1.000  C
  H43      1.0000 0.86798  0.27747  0.66919  Biso   1.000  H
  O25      1.0000 0.81567  0.58650  0.66211  Biso   1.000  O
  H44      1.0000 0.80946  0.58910  0.59359  Biso   1.000  H
  H45      1.0000 0.72797  0.58513  0.61040  Biso   1.000  H
  H46      1.0000 0.34436  0.99242  0.50499  Biso   1.000  H
  C35      1.0000 0.68278  0.22570  0.26589  Biso   1.000  C
  H47      1.0000 0.82445  0.15379  0.59961  Biso   1.000  H
  O26      1.0000 0.82545  0.29892  0.55694  Biso   1.000  O
  H48      1.0000 0.92246  0.30830  0.60150  Biso   1.000  H
  H49      1.0000 0.81006  0.64606  0.66561  Biso   1.000  H
  O27      1.0000 0.73368  0.30361  0.27921  Biso   1.000  O
  H50      1.0000 0.67340  0.21957  0.23100  Biso   1.000  H
  C36      1.0000 0.71239  0.12989  0.28761  Biso   1.000  C
  C37      1.0000 0.86946  0.28332  0.51960  Biso   1.000  C
  C38      1.0000 0.75466  0.31798  0.32969  Biso   1.000  C
  O28      1.0000 0.65697  0.05560  0.27598  Biso   1.000  O
  H51      1.0000 0.75857  0.11170  0.27381  Biso   1.000  H
  C39      1.0000 0.73699  0.14022  0.33831  Biso   1.000  C
  C40      1.0000 0.84478  0.35437  0.47879  Biso   1.000  C
  C41      1.0000 0.84799  0.18058  0.50159  Biso   1.000  C
  H52      1.0000 0.92578  0.28852  0.53161  Biso   1.000  H
  C42      1.0000 0.79088  0.22563  0.35120  Biso   1.000  C
  H53      1.0000 0.70590  0.32736  0.34230  Biso   1.000  H
  C43      1.0000 0.79840  0.41661  0.33519  Biso   1.000  C
  H54      1.0000 0.67107  0.01863  0.25609  Biso   1.000  H
  O29      1.0000 0.77379  0.05097  0.35778  Biso   1.000  O
  H55      1.0000 0.69029  0.15097  0.35291  Biso   1.000  H
  O30      1.0000 0.89226  0.33343  0.44379  Biso   1.000  O
  H56      1.0000 0.78945  0.34397  0.46540  Biso   1.000  H
  C44      1.0000 0.85779  0.45588  0.49189  Biso   1.000  C
  C45      1.0000 0.89420  0.16022  0.46151  Biso   1.000  C
  O31      1.0000 0.87097  0.11134  0.53950  Biso   1.000  O
  H57      1.0000 0.79167  0.17603  0.48979  Biso   1.000  H
  O32      1.0000 0.80297  0.23271  0.40224  Biso   1.000  O
  H58      1.0000 0.84077  0.21372  0.34020  Biso   1.000  H
  O33      1.0000 0.86970  0.39552  0.31851  Biso   1.000  O
  H59      1.0000 0.76897  0.46736  0.31599  Biso   1.000  H
  H60      1.0000 0.80826  0.43762  0.36829  Biso   1.000  H
  H61      1.0000 0.78958  0.05827  0.38651  Biso   1.000  H
  C46      1.0000 0.87775  0.23928  0.42270  Biso   1.000  C
  O34      1.0000 0.92688  0.47394  0.51280  Biso   1.000  O
  H62      1.0000 0.84676  0.49603  0.46320  Biso   1.000  H
  H63      1.0000 0.82135  0.47502  0.51280  Biso   1.000  H
  O35      1.0000 0.87100  0.06968  0.44088  Biso   1.000  O
  H64      1.0000 0.95030  0.15863  0.47441  Biso   1.000  H
  H65      1.0000 0.88524  0.14108  0.56468  Biso   1.000  H
  H66      1.0000 0.89000  0.34621  0.33221  Biso   1.000  H
  H67      1.0000 0.91160  0.22888  0.39870  Biso   1.000  H
  H68      1.0000 0.93315  0.53394  0.51550  Biso   1.000  H
  H69      1.0000 0.83046  0.07682  0.42140  Biso   1.000  H
  C47      1.0000 0.69426  0.89061  0.50068  Biso   1.000  C
  C48      1.0000 0.70328  0.92996  0.45360  Biso   1.000  C
  O36      1.0000 0.75905  0.82563  0.51599  Biso   1.000  O
  H70      1.0000 0.64535  0.85307  0.49760  Biso   1.000  H
  C49      1.0000 0.69287  0.96939  0.53589  Biso   1.000  C
  C50      1.0000 0.63977  0.00801  0.43990  Biso   1.000  C
  O37      1.0000 0.70067  0.86022  0.41951  Biso   1.000  O
  H71      1.0000 0.75425  0.96282  0.45679  Biso   1.000  H
  H72      1.0000 0.74246  0.77047  0.52110  Biso   1.000  H
  C51      1.0000 0.62646  0.03552  0.51960  Biso   1.000  C
  O38      1.0000 0.68976  0.92513  0.58034  Biso   1.000  O
  H73      1.0000 0.74157  0.00729  0.53841  Biso   1.000  H
  O39      1.0000 0.57055  0.95812  0.42743  Biso   1.000  O
  O40      1.0000 0.63887  0.07769  0.47563  Biso   1.000  O
  H74      1.0000 0.65090  0.04231  0.41138  Biso   1.000  H
  H75      1.0000 0.67407  0.88007  0.39450  Biso   1.000  H
  H76      1.0000 0.57765  0.99762  0.51459  Biso   1.000  H
  C52      1.0000 0.61944  0.11892  0.55200  Biso   1.000  C
  C53      1.0000 0.74497  0.95480  0.62070  Biso   1.000  C
  C54      1.0000 0.51998  0.98643  0.38458  Biso   1.000  C
  O41      1.0000 0.54778  0.17264  0.53971  Biso   1.000  O
  H77      1.0000 0.62295  0.09408  0.58441  Biso   1.000  H
  H78      1.0000 0.66297  0.16361  0.55151  Biso   1.000  H
  H79      1.0000 0.78798  0.98960  0.60939  Biso   1.000  H
  C55      1.0000 0.77617  0.86347  0.64540  Biso   1.000  C
  O42      1.0000 0.71318  0.01531  0.65020  Biso   1.000  O
  C56      1.0000 0.49787  0.89097  0.35820  Biso   1.000  C
  C57      1.0000 0.45210  0.03877  0.39488  Biso   1.000  C
  H80      1.0000 0.54866  0.02838  0.36528  Biso   1.000  H
  H81      1.0000 0.55474  0.22007  0.52289  Biso   1.000  H
  O43      1.0000 0.80577  0.79993  0.61369  Biso   1.000  O
  H82      1.0000 0.81974  0.88217  0.67041  Biso   1.000  H
  C58      1.0000 0.71583  0.81220  0.66929  Biso   1.000  C
  C59      1.0000 0.65018  0.97199  0.66971  Biso   1.000  C
  C60      1.0000 0.43377  0.90852  0.31631  Biso   1.000  C
  O44      1.0000 0.56158  0.84968  0.34398  Biso   1.000  O
  H83      1.0000 0.47830  0.84527  0.38020  Biso   1.000  H
  O45      1.0000 0.39869  0.05531  0.35281  Biso   1.000  O
  H84      1.0000 0.42626  0.99690  0.41569  Biso   1.000  H
  C61      1.0000 0.46810  0.14029  0.42000  Biso   1.000  C
  H85      1.0000 0.79378  0.74282  0.61888  Biso   1.000  H
  O46      1.0000 0.75138  0.73610  0.69931  Biso   1.000  O
  H86      1.0000 0.67566  0.78368  0.64470  Biso   1.000  H
  C62      1.0000 0.67874  0.88260  0.69798  Biso   1.000  C
  H87      1.0000 0.60574  0.95639  0.64459  Biso   1.000  H
  C63      1.0000 0.63004  0.05199  0.70191  Biso   1.000  C
  C64      1.0000 0.36887  0.96830  0.32969  Biso   1.000  C
  O47      1.0000 0.40660  0.82217  0.29504  Biso   1.000  O
  H88      1.0000 0.45649  0.94643  0.29259  Biso   1.000  H
  H89      1.0000 0.60056  0.88318  0.35379  Biso   1.000  H
  S2       1.0000 0.51069  0.22022  0.38283  Biso   1.000  S
  H90      1.0000 0.50306  0.13191  0.45020  Biso   1.000  H
  H91      1.0000 0.41936  0.16830  0.42648  Biso   1.000  H
  H92      1.0000 0.71798  0.70773  0.71168  Biso   1.000  H
  O48      1.0000 0.61779  0.83300  0.71277  Biso   1.000  O
  H93      1.0000 0.71668  0.90231  0.72601  Biso   1.000  H
  O49      1.0000 0.70248  0.08318  0.73119  Biso   1.000  O
  H94      1.0000 0.60575  0.10693  0.68309  Biso   1.000  H
  H95      1.0000 0.59398  0.02773  0.72191  Biso   1.000  H
  O50      1.0000 0.33738  0.90866  0.36255  Biso   1.000  O
  H96      1.0000 0.32950  0.98303  0.30159  Biso   1.000  H
  H97      1.0000 0.38449  0.83343  0.26761  Biso   1.000  H
  C65      1.0000 0.55685  0.30671  0.42259  Biso   1.000  C
  C66      1.0000 0.61054  0.83697  0.76030  Biso   1.000  C
  H98      1.0000 0.72668  0.11921  0.71539  Biso   1.000  H
  C67      1.0000 0.25646  0.89379  0.35428  Biso   1.000  C
  N3       1.0000 0.55646  0.30202  0.46751  Biso   1.000  N
  N4       1.0000 0.58910  0.37552  0.40000  Biso   1.000  N
  C68      1.0000 0.59146  0.73134  0.77519  Biso   1.000  C
  O51      1.0000 0.54754  0.89942  0.76510  Biso   1.000  O
  H99      1.0000 0.65908  0.86079  0.77971  Biso   1.000  H
  C69      1.0000 0.24526  0.78910  0.36048  Biso   1.000  C
  H100     1.0000 0.23357  0.91458  0.32191  Biso   1.000  H
  C70      1.0000 0.22271  0.95458  0.39191  Biso   1.000  C
  C71      1.0000 0.58889  0.37343  0.49399  Biso   1.000  C
  C72      1.0000 0.62215  0.44412  0.42669  Biso   1.000  C
  C73      1.0000 0.51693  0.69928  0.74780  Biso   1.000  C
  O52      1.0000 0.65419  0.67141  0.76672  Biso   1.000  O
  H101     1.0000 0.58835  0.73040  0.80928  Biso   1.000  H
  C74      1.0000 0.47687  0.87292  0.73669  Biso   1.000  C
  O53      1.0000 0.27188  0.73877  0.32261  Biso   1.000  O
  C75      1.0000 0.16347  0.76332  0.36209  Biso   1.000  C
  H102     1.0000 0.27749  0.76852  0.39061  Biso   1.000  H
  O54      1.0000 0.14090  0.92650  0.38949  Biso   1.000  O
  H103     1.0000 0.25197  0.94079  0.42378  Biso   1.000  H
  C76      1.0000 0.21920  0.05899  0.38360  Biso   1.000  C
  H104     1.0000 0.58527  0.37451  0.52639  Biso   1.000  H
  C77      1.0000 0.62709  0.44469  0.47581  Biso   1.000  C
  H105     1.0000 0.64405  0.49653  0.41240  Biso   1.000  H
  C78      1.0000 0.45297  0.77191  0.75071  Biso   1.000  C
  O55      1.0000 0.49583  0.60751  0.76129  Biso   1.000  O
  H106     1.0000 0.52354  0.69509  0.71431  Biso   1.000  H
  H107     1.0000 0.68306  0.66000  0.79218  Biso   1.000  H
  H108     1.0000 0.48697  0.86780  0.70380  Biso   1.000  H
  C79      1.0000 0.41596  0.95047  0.73669  Biso   1.000  C
  H109     1.0000 0.31359  0.71090  0.33270  Biso   1.000  H
  O56      1.0000 0.15420  0.66477  0.37271  Biso   1.000  O
  C80      1.0000 0.13288  0.82368  0.39909  Biso   1.000  C
  H110     1.0000 0.13200  0.77747  0.33081  Biso   1.000  H
  O57      1.0000 0.18425  0.08650  0.33789  Biso   1.000  O
  H111     1.0000 0.19046  0.08910  0.40641  Biso   1.000  H
  H112     1.0000 0.27196  0.08513  0.38959  Biso   1.000  H
  H113     1.0000 0.65556  0.49242  0.49501  Biso   1.000  H
  O58      1.0000 0.38643  0.74123  0.71858  Biso   1.000  O
  H114     1.0000 0.44103  0.77343  0.78329  Biso   1.000  H
  H115     1.0000 0.47497  0.61227  0.78521  Biso   1.000  H
  O59      1.0000 0.41193  0.97271  0.78381  Biso   1.000  O
  O60      1.0000 0.44554  0.04592  0.73918  Biso   1.000  O
  H116     1.0000 0.17547  0.65379  0.40038  Biso   1.000  H
  O61      1.0000 0.17448  0.79892  0.44305  Biso   1.000  O
  H117     1.0000 0.07746  0.80830  0.39849  Biso   1.000  H
  H118     1.0000 0.18986  0.14606  0.33438  Biso   1.000  H
  C81      1.0000 0.31714  0.72570  0.73410  Biso   1.000  C
  C82      1.0000 0.13046  0.78332  0.48040  Biso   1.000  C
  C83      1.0000 0.28753  0.62989  0.71238  Biso   1.000  C
  O62      1.0000 0.26624  0.80361  0.72079  Biso   1.000  O
  H119     1.0000 0.32658  0.71957  0.76899  Biso   1.000  H
  C84      1.0000 0.15199  0.68058  0.49840  Biso   1.000  C
  H120     1.0000 0.07415  0.78852  0.46838  Biso   1.000  H
  C85      1.0000 0.15520  0.85437  0.52121  Biso   1.000  C
  C86      1.0000 0.26294  0.64022  0.66169  Biso   1.000  C
  O63      1.0000 0.34295  0.55560  0.72401  Biso   1.000  O
  H121     1.0000 0.24136  0.61170  0.72618  Biso   1.000  H
  C87      1.0000 0.24526  0.81798  0.67031  Biso   1.000  C
  O64      1.0000 0.12895  0.61134  0.46050  Biso   1.000  O
  C88      1.0000 0.10578  0.66022  0.53848  Biso   1.000  C
  H122     1.0000 0.20825  0.67603  0.51021  Biso   1.000  H
  O65      1.0000 0.10767  0.83343  0.55621  Biso   1.000  O
  H123     1.0000 0.21047  0.84397  0.53459  Biso   1.000  H
  C89      1.0000 0.14219  0.95588  0.50811  Biso   1.000  C
  C90      1.0000 0.20904  0.72563  0.64880  Biso   1.000  C
  O66      1.0000 0.22619  0.55097  0.64221  Biso   1.000  O
  H124     1.0000 0.30963  0.65097  0.64708  Biso   1.000  H
  H125     1.0000 0.32886  0.51863  0.74391  Biso   1.000  H
  H126     1.0000 0.29408  0.82736  0.65770  Biso   1.000  H
  C91      1.0000 0.20158  0.91661  0.66481  Biso   1.000  C
  H127     1.0000 0.11469  0.64108  0.43531  Biso   1.000  H
  O67      1.0000 0.12898  0.56968  0.55908  Biso   1.000  O
  C92      1.0000 0.12217  0.73928  0.57730  Biso   1.000  C
  H128     1.0000 0.04968  0.65863  0.52559  Biso   1.000  H
  O68      1.0000 0.07305  0.97394  0.48719  Biso   1.000  O
  H129     1.0000 0.15317  0.99603  0.53680  Biso   1.000  H
  H130     1.0000 0.17857  0.97502  0.48719  Biso   1.000  H
  O69      1.0000 0.19696  0.73271  0.59776  Biso   1.000  O
  H131     1.0000 0.15916  0.71372  0.65980  Biso   1.000  H
  H132     1.0000 0.21034  0.55827  0.61348  Biso   1.000  H
  O70      1.0000 0.13028  0.89552  0.68148  Biso   1.000  O
  H133     1.0000 0.23095  0.96736  0.68400  Biso   1.000  H
  H134     1.0000 0.19166  0.93762  0.63170  Biso   1.000  H
  H135     1.0000 0.16946  0.57682  0.57859  Biso   1.000  H
  H136     1.0000 0.08838  0.72888  0.60129  Biso   1.000  H
  H137     1.0000 0.06677  0.03394  0.48450  Biso   1.000  H
  H138     1.0000 0.10998  0.84621  0.66778  Biso   1.000  H
  C93      1.0000 0.75331  0.45892  0.18010  Biso   1.000  C
  C94      1.0000 0.70598  0.38606  0.14980  Biso   1.000  C
  O71      1.0000 0.72999  0.55372  0.16528  Biso   1.000  O
  H139     1.0000 0.74417  0.45018  0.21300  Biso   1.000  H
  C95      1.0000 0.84001  0.44448  0.17929  Biso   1.000  C
  O72      1.0000 0.70800  0.40628  0.10254  Biso   1.000  O
  O73      1.0000 0.73127  0.28939  0.16041  Biso   1.000  O
  H140     1.0000 0.65166  0.39177  0.15509  Biso   1.000  H
  H141     1.0000 0.75069  0.59379  0.18522  Biso   1.000  H
  C96      1.0000 0.86017  0.34159  0.19229  Biso   1.000  C
  O74      1.0000 0.88499  0.50823  0.21138  Biso   1.000  O
  H142     1.0000 0.85050  0.45733  0.14700  Biso   1.000  H
  C97      1.0000 0.63549  0.42903  0.07301  Biso   1.000  C
  C98      1.0000 0.81111  0.27090  0.15810  Biso   1.000  C
  O75      1.0000 0.94019  0.32736  0.18749  Biso   1.000  O
  H143     1.0000 0.85287  0.32859  0.22529  Biso   1.000  H
  H144     1.0000 0.89138  0.48397  0.23839  Biso   1.000  H
  C99      1.0000 0.60659  0.34448  0.04081  Biso   1.000  C
  C100     1.0000 0.64688  0.51567  0.04379  Biso   1.000  C
  H145     1.0000 0.59650  0.44448  0.09329  Biso   1.000  H
  H146     1.0000 0.82030  0.28419  0.12559  Biso   1.000  H
  C101     1.0000 0.82508  0.16773  0.16851  Biso   1.000  C
  C102     1.0000 0.99220  0.30570  0.22939  Biso   1.000  C
  C103     1.0000 0.58819  0.25242  0.06919  Biso   1.000  C
  O76      1.0000 0.53661  0.37300  0.01100  Biso   1.000  O
  H147     1.0000 0.64602  0.32773  0.02109  Biso   1.000  H
  C104     1.0000 0.57610  0.53747  0.00939  Biso   1.000  C
  O77      1.0000 0.66940  0.59942  0.07210  Biso   1.000  O
  H148     1.0000 0.68890  0.50051  0.02571  Biso   1.000  H
  O78      1.0000 0.79019  0.10643  0.13109  Biso   1.000  O
  H149     1.0000 0.88109  0.15588  0.17460  Biso   1.000  H
  H150     1.0000 0.80470  0.15097  0.19730  Biso   1.000  H
  H151     1.0000 0.96691  0.31899  0.25721  Biso   1.000  H
  O79      1.0000 0.01440  0.20679  0.22953  Biso   1.000  O
  C105     1.0000 0.06177  0.37090  0.23090  Biso   1.000  C
  O80      1.0000 0.54078  0.27653  0.10320  Biso   1.000  O
  H152     1.0000 0.56168  0.20368  0.04719  Biso   1.000  H
  H153     1.0000 0.63680  0.22361  0.08530  Biso   1.000  H
  C106     1.0000 0.54747  0.44830  0.98189  Biso   1.000  C
  H154     1.0000 0.53542  0.55718  0.02782  Biso   1.000  H
  O81      1.0000 0.58669  0.61668  0.97891  Biso   1.000  O
  H155     1.0000 0.68030  0.58303  0.10030  Biso   1.000  H
  H156     1.0000 0.74609  0.09069  0.13550  Biso   1.000  H
  C107     1.0000 0.04880  0.18007  0.18970  Biso   1.000  C
  O82      1.0000 0.03801  0.46953  0.23044  Biso   1.000  O
  H157     1.0000 0.09819  0.35812  0.26060  Biso   1.000  H
  C108     1.0000 0.10148  0.34953  0.19001  Biso   1.000  C
  H158     1.0000 0.50848  0.23242  0.10419  Biso   1.000  H
  O83      1.0000 0.60304  0.42643  0.95358  Biso   1.000  O
  H159     1.0000 0.49778  0.46347  0.96118  Biso   1.000  H
  H160     1.0000 0.63099  0.61408  0.97211  Biso   1.000  H
  C109     1.0000 0.12000  0.24159  0.18679  Biso   1.000  C
  H161     1.0000 0.01037  0.19242  0.16090  Biso   1.000  H
  C110     1.0000 0.05397  0.05690  0.19870  Biso   1.000  C
  H162     1.0000 0.07186  0.50253  0.24719  Biso   1.000  H
  O84      1.0000 0.17178  0.40072  0.19191  Biso   1.000  O
  H163     1.0000 0.06650  0.36859  0.16059  Biso   1.000  H
  C111     1.0000 0.57828  0.40130  0.90541  Biso   1.000  C
  O85      1.0000 0.14096  0.22931  0.14079  Biso   1.000  O
  H164     1.0000 0.16337  0.22289  0.21191  Biso   1.000  H
  O86      1.0000 0.11526  0.05372  0.23069  Biso   1.000  O
  H165     1.0000 0.00829  0.03177  0.21040  Biso   1.000  H
  H166     1.0000 0.06097  0.02152  0.17001  Biso   1.000  H
  H167     1.0000 0.16520  0.45892  0.19828  Biso   1.000  H
  C112     1.0000 0.62419  0.46679  0.87669  Biso   1.000  C
  H168     1.0000 0.52228  0.41509  0.89641  Biso   1.000  H
  C113     1.0000 0.59314  0.29408  0.89809  Biso   1.000  C
  C114     1.0000 0.20571  0.17451  0.13540  Biso   1.000  C
  H169     1.0000 0.13708  0.10773  0.23251  Biso   1.000  H
  O87      1.0000 0.60467  0.56527  0.88289  Biso   1.000  O
  C115     1.0000 0.61277  0.43271  0.82519  Biso   1.000  C
  H170     1.0000 0.67978  0.45892  0.89000  Biso   1.000  H
  O88      1.0000 0.58250  0.27249  0.84901  Biso   1.000  O
  H171     1.0000 0.64797  0.28072  0.91151  Biso   1.000  H
  C116     1.0000 0.54437  0.22650  0.92128  Biso   1.000  C
  O89      1.0000 0.18370  0.08440  0.11291  Biso   1.000  O
  H172     1.0000 0.23719  0.16209  0.16689  Biso   1.000  H
  C117     1.0000 0.25081  0.23437  0.10681  Biso   1.000  C
  H173     1.0000 0.55750  0.57321  0.87371  Biso   1.000  H
  O90      1.0000 0.66028  0.48570  0.80025  Biso   1.000  O
  C118     1.0000 0.62966  0.32787  0.82302  Biso   1.000  C
  H174     1.0000 0.55816  0.44397  0.81069  Biso   1.000  H
  O91      1.0000 0.46314  0.24498  0.90520  Biso   1.000  O
  O92      1.0000 0.56457  0.13841  0.92359  Biso   1.000  O
  C119     1.0000 0.13652  0.09747  0.06961  Biso   1.000  C
  O93      1.0000 0.27708  0.32101  0.13000  Biso   1.000  O
  H175     1.0000 0.29769  0.19610  0.10391  Biso   1.000  H
  C120     1.0000 0.20902  0.24866  0.05819  Biso   1.000  C
  H176     1.0000 0.70286  0.45791  0.80210  Biso   1.000  H
  O94      1.0000 0.70795  0.31329  0.84306  Biso   1.000  O
  H177     1.0000 0.62084  0.30606  0.78960  Biso   1.000  H
  C121     1.0000 0.18338  0.15567  0.03650  Biso   1.000  C
  H178     1.0000 0.09131  0.13718  0.07451  Biso   1.000  H
  C122     1.0000 0.10821  0.00072  0.05059  Biso   1.000  C
  H179     1.0000 0.27899  0.36477  0.11021  Biso   1.000  H
  O95      1.0000 0.25748  0.29791  0.02890  Biso   1.000  O
  H180     1.0000 0.16277  0.28960  0.05948  Biso   1.000  H
  C123     1.0000 0.75438  0.25798  0.81811  Biso   1.000  C
  O96      1.0000 0.13448  0.17538  0.99170  Biso   1.000  O
  H181     1.0000 0.22888  0.11697  0.03121  Biso   1.000  H
  S3       1.0000 0.18618  0.91798  0.04596  Biso   1.000  S
  H182     1.0000 0.07488  0.97220  0.07129  Biso   1.000  H
  H183     1.0000 0.07682  0.00960  0.01920  Biso   1.000  H
  H184     1.0000 0.23672  0.35011  0.01888  Biso   1.000  H
  C124     1.0000 0.82208  0.32137  0.81069  Biso   1.000  C
  H185     1.0000 0.72445  0.23827  0.78711  Biso   1.000  H
  C125     1.0000 0.78266  0.16859  0.84659  Biso   1.000  C
  C126     1.0000 0.14619  0.12303  0.95201  Biso   1.000  C
  C127     1.0000 0.14261  0.83018  0.00620  Biso   1.000  C
  O97      1.0000 0.79307  0.39863  0.77993  Biso   1.000  O
  C128     1.0000 0.88109  0.26260  0.79061  Biso   1.000  C
  H186     1.0000 0.84644  0.34903  0.84158  Biso   1.000  H
  O98      1.0000 0.83839  0.11458  0.82466  Biso   1.000  O
  H187     1.0000 0.80884  0.19061  0.87819  Biso   1.000  H
  C129     1.0000 0.72195  0.09458  0.85399  Biso   1.000  C
  C130     1.0000 0.15177  0.19372  0.91372  Biso   1.000  C
  O99      1.0000 0.08639  0.05567  0.94031  Biso   1.000  O
  H188     1.0000 0.19584  0.08722  0.95950  Biso   1.000  H
  N5       1.0000 0.06844  0.83841  0.98571  Biso   1.000  N
  N6       1.0000 0.19064  0.76108  0.99919  Biso   1.000  N
  H189     1.0000 0.80797  0.45170  0.79229  Biso   1.000  H
  O100     1.0000 0.94599  0.31892  0.78637  Biso   1.000  O
  C131     1.0000 0.90509  0.17119  0.81979  Biso   1.000  C
  H190     1.0000 0.85719  0.24152  0.75849  Biso   1.000  H
  O101     1.0000 0.67976  0.06838  0.81699  Biso   1.000  O
  O102     1.0000 0.73987  0.02917  0.88699  Biso   1.000  O
  C132     1.0000 0.07380  0.24000  0.89361  Biso   1.000  C
  O103     1.0000 0.20670  0.26953  0.92542  Biso   1.000  O
  H191     1.0000 0.16839  0.15639  0.88751  Biso   1.000  H
  C133     1.0000 0.01168  0.09747  0.92510  Biso   1.000  C
  C134     1.0000 0.04318  0.76462  0.95670  Biso   1.000  C
  C135     1.0000 0.15804  0.69177  0.96731  Biso   1.000  C
  H192     1.0000 0.97916  0.31227  0.81062  Biso   1.000  H
  O104     1.0000 0.94215  0.20238  0.86411  Biso   1.000  O
  H193     1.0000 0.94120  0.13177  0.80431  Biso   1.000  H
  C136     1.0000 0.01489  0.15783  0.88142  Biso   1.000  C
  O105     1.0000 0.07878  0.29812  0.85437  Biso   1.000  O
  H194     1.0000 0.05708  0.28130  0.91841  Biso   1.000  H
  H195     1.0000 0.23757  0.25422  0.94948  Biso   1.000  H
  H196     1.0000 0.99866  0.14051  0.95039  Biso   1.000  H
  C137     1.0000 0.95385  0.01408  0.91750  Biso   1.000  C
  H197     1.0000 0.99045  0.76448  0.94311  Biso   1.000  H
  C138     1.0000 0.08639  0.69134  0.94570  Biso   1.000  C
  H198     1.0000 0.19015  0.64051  0.96041  Biso   1.000  H
  H199     1.0000 0.03059  0.11603  0.85640  Biso   1.000  H
  H200     1.0000 0.10496  0.26960  0.83689  Biso   1.000  H
  O106     1.0000 0.94547  0.96910  0.96006  Biso   1.000  O
  H201     1.0000 0.97127  0.96570  0.89630  Biso   1.000  H
  H202     1.0000 0.90345  0.03899  0.90208  Biso   1.000  H
  H203     1.0000 0.06675  0.64260  0.92380  Biso   1.000  H
  H204     1.0000 0.98888  0.96173  0.97660  Biso   1.000  H
  O107     1.0000 0.26866  0.78939  0.83958  Biso   1.000  O
  C139     1.0000 0.18887  0.77090  0.84189  Biso   1.000  C
  C140     1.0000 0.29394  0.88606  0.85020  Biso   1.000  C
  C141     1.0000 0.17484  0.66773  0.83149  Biso   1.000  C
  C142     1.0000 0.13975  0.84159  0.80770  Biso   1.000  C
  H205     1.0000 0.17968  0.78419  0.87440  Biso   1.000  H
  O108     1.0000 0.29193  0.90628  0.89746  Biso   1.000  O
  H206     1.0000 0.34826  0.89177  0.84491  Biso   1.000  H
  C143     1.0000 0.24667  0.95892  0.81989  Biso   1.000  C
  O109     1.0000 0.20974  0.60643  0.86890  Biso   1.000  O
  H207     1.0000 0.11883  0.65588  0.82539  Biso   1.000  H
  H208     1.0000 0.19528  0.65097  0.80269  Biso   1.000  H
  O110     1.0000 0.05974  0.82736  0.81250  Biso   1.000  O
  C144     1.0000 0.15997  0.94448  0.82070  Biso   1.000  C
  H209     1.0000 0.14706  0.82859  0.77470  Biso   1.000  H
  C145     1.0000 0.36443  0.92903  0.92699  Biso   1.000  C
  H210     1.0000 0.25576  0.95018  0.78700  Biso   1.000  H
  O111     1.0000 0.26992  0.05372  0.83468  Biso   1.000  O
  H211     1.0000 0.25383  0.59069  0.86449  Biso   1.000  H
  C146     1.0000 0.00779  0.80570  0.77060  Biso   1.000  C
  H212     1.0000 0.14948  0.95733  0.85300  Biso   1.000  H
  O112     1.0000 0.11493  0.00823  0.78861  Biso   1.000  O
  H213     1.0000 0.40348  0.94448  0.90670  Biso   1.000  H
  C147     1.0000 0.39333  0.84448  0.95918  Biso   1.000  C
  C148     1.0000 0.35305  0.01567  0.95620  Biso   1.000  C
  H214     1.0000 0.24924  0.09379  0.81478  Biso   1.000  H
  H215     1.0000 0.03307  0.81899  0.74279  Biso   1.000  H
  O113     1.0000 0.98558  0.70679  0.77046  Biso   1.000  O
  C149     1.0000 0.93816  0.87090  0.76910  Biso   1.000  C
  H216     1.0000 0.10854  0.98397  0.76160  Biso   1.000  H
  O114     1.0000 0.46337  0.87300  0.98900  Biso   1.000  O
  H217     1.0000 0.35396  0.82773  0.97891  Biso   1.000  H
  C150     1.0000 0.41173  0.75242  0.93081  Biso   1.000  C
  O115     1.0000 0.33053  0.09942  0.92790  Biso   1.000  O
  C151     1.0000 0.42382  0.03747  0.99061  Biso   1.000  C
  H218     1.0000 0.31103  0.00051  0.97428  Biso   1.000  H
  C152     1.0000 0.95118  0.68007  0.81030  Biso   1.000  C
  O116     1.0000 0.96198  0.96953  0.76955  Biso   1.000  O
  H219     1.0000 0.90174  0.85812  0.73939  Biso   1.000  H
  C153     1.0000 0.89844  0.84953  0.80998  Biso   1.000  C
  C154     1.0000 0.45246  0.94830  0.01811  Biso   1.000  C
  O117     1.0000 0.45914  0.77653  0.89679  Biso   1.000  O
  H220     1.0000 0.43825  0.70368  0.95281  Biso   1.000  H
  H221     1.0000 0.36312  0.72361  0.91469  Biso   1.000  H
  H222     1.0000 0.31963  0.08303  0.89970  Biso   1.000  H
  H223     1.0000 0.46456  0.05718  0.97218  Biso   1.000  H
  O118     1.0000 0.41329  0.11668  0.02108  Biso   1.000  O
  C155     1.0000 0.87998  0.74159  0.81320  Biso   1.000  C
  H224     1.0000 0.98955  0.69242  0.83909  Biso   1.000  H
  C156     1.0000 0.94596  0.55690  0.80129  Biso   1.000  C
  H225     1.0000 0.92807  0.00253  0.75281  Biso   1.000  H
  O119     1.0000 0.82814  0.90072  0.80809  Biso   1.000  O
  H226     1.0000 0.93343  0.86859  0.83941  Biso   1.000  H
  O120     1.0000 0.39688  0.92643  0.04641  Biso   1.000  O
  H227     1.0000 0.50220  0.96347  0.03881  Biso   1.000  H
  H228     1.0000 0.49145  0.73242  0.89581  Biso   1.000  H
  H229     1.0000 0.36899  0.11408  0.02788  Biso   1.000  H
  O121     1.0000 0.85896  0.72931  0.85920  Biso   1.000  O
  H230     1.0000 0.83655  0.72289  0.78809  Biso   1.000  H
  O122     1.0000 0.88466  0.55372  0.76931  Biso   1.000  O
  H231     1.0000 0.99163  0.53177  0.78959  Biso   1.000  H
  H232     1.0000 0.93895  0.52152  0.82998  Biso   1.000  H
  H233     1.0000 0.83478  0.95892  0.80171  Biso   1.000  H
  C157     1.0000 0.42170  0.90130  0.09458  Biso   1.000  C
  C158     1.0000 0.79427  0.67451  0.86460  Biso   1.000  C
  H234     1.0000 0.86284  0.60773  0.76749  Biso   1.000  H
  C159     1.0000 0.37579  0.96679  0.12331  Biso   1.000  C
  H235     1.0000 0.47765  0.91509  0.10359  Biso   1.000  H
  C160     1.0000 0.40678  0.79408  0.10190  Biso   1.000  C
  O123     1.0000 0.81628  0.58440  0.88709  Biso   1.000  O
  H236     1.0000 0.76274  0.66209  0.83310  Biso   1.000  H
  C161     1.0000 0.74917  0.73437  0.89318  Biso   1.000  C
  C162     1.0000 0.38715  0.93271  0.17481  Biso   1.000  C
  H237     1.0000 0.32020  0.95892  0.11000  Biso   1.000  H
  O124     1.0000 0.39525  0.06527  0.11711  Biso   1.000  O
  O125     1.0000 0.41748  0.77249  0.15098  Biso   1.000  O
  H238     1.0000 0.35195  0.78072  0.08849  Biso   1.000  H
  C163     1.0000 0.45560  0.72650  0.07868  Biso   1.000  C
  C164     1.0000 0.86346  0.59747  0.93039  Biso   1.000  C
  O126     1.0000 0.72284  0.82101  0.86999  Biso   1.000  O
  H239     1.0000 0.70223  0.69610  0.89609  Biso   1.000  H
  C165     1.0000 0.79096  0.74866  0.94181  Biso   1.000  C
  O127     1.0000 0.33965  0.98570  0.19975  Biso   1.000  O
  C166     1.0000 0.37027  0.82787  0.17698  Biso   1.000  C
  H240     1.0000 0.44177  0.94397  0.18931  Biso   1.000  H
  H241     1.0000 0.44248  0.07321  0.12629  Biso   1.000  H
  O128     1.0000 0.53678  0.74498  0.09479  Biso   1.000  O
  O129     1.0000 0.43535  0.63841  0.07640  Biso   1.000  O
  C167     1.0000 0.81655  0.65567  0.96349  Biso   1.000  C
  H242     1.0000 0.90862  0.63718  0.92548  Biso   1.000  H
  C168     1.0000 0.89177  0.50072  0.94941  Biso   1.000  C
  H243     1.0000 0.72093  0.86477  0.88978  Biso   1.000  H
  O130     1.0000 0.74244  0.79791  0.97109  Biso   1.000  O
  H244     1.0000 0.83715  0.78960  0.94051  Biso   1.000  H
  H245     1.0000 0.29707  0.95791  0.19789  Biso   1.000  H
  O131     1.0000 0.29197  0.81329  0.15694  Biso   1.000  O
  H246     1.0000 0.37908  0.80606  0.21040  Biso   1.000  H
  H247     1.0000 0.77105  0.61697  0.96878  Biso   1.000  H
  O132     1.0000 0.86550  0.67538  0.00830  Biso   1.000  O
  S4       1.0000 0.81380  0.41798  0.95403  Biso   1.000  S
  H248     1.0000 0.92316  0.50960  0.98080  Biso   1.000  H
  H249     1.0000 0.92504  0.47220  0.92870  Biso   1.000  H
  H250     1.0000 0.76325  0.85011  0.98108  Biso   1.000  H
  C169     1.0000 0.24555  0.75798  0.18188  Biso   1.000  C
  C170     1.0000 0.85379  0.62303  0.04799  Biso   1.000  C
  C171     1.0000 0.85737  0.33018  0.99379  Biso   1.000  C
  C172     1.0000 0.17790  0.82137  0.18931  Biso   1.000  C
  H251     1.0000 0.27548  0.73827  0.21289  Biso   1.000  H
  C173     1.0000 0.21727  0.66859  0.15340  Biso   1.000  C
  O133     1.0000 0.91359  0.55567  0.05969  Biso   1.000  O
  H252     1.0000 0.80408  0.58722  0.04049  Biso   1.000  H
  C174     1.0000 0.84815  0.69372  0.08628  Biso   1.000  C
  N7       1.0000 0.93148  0.33841  0.01429  Biso   1.000  N
  N8       1.0000 0.80928  0.26108  0.00080  Biso   1.000  N
  O134     1.0000 0.20685  0.89863  0.22007  Biso   1.000  O
  C175     1.0000 0.11889  0.76260  0.20938  Biso   1.000  C
  H253     1.0000 0.15348  0.84903  0.15841  Biso   1.000  H
  O135     1.0000 0.16154  0.61458  0.17533  Biso   1.000  O
  H254     1.0000 0.19108  0.69061  0.12180  Biso   1.000  H
  C176     1.0000 0.27797  0.59458  0.14601  Biso   1.000  C
  C177     1.0000 0.98830  0.59747  0.07489  Biso   1.000  C
  O136     1.0000 0.79328  0.76953  0.07458  Biso   1.000  O
  H255     1.0000 0.83159  0.65639  0.11248  Biso   1.000  H
  C178     1.0000 0.92618  0.74000  0.10639  Biso   1.000  C
  C179     1.0000 0.95680  0.26462  0.04330  Biso   1.000  C
  C180     1.0000 0.84188  0.19177  0.03268  Biso   1.000  C
  H256     1.0000 0.19195  0.95170  0.20770  Biso   1.000  H
  O137     1.0000 0.05398  0.81892  0.21359  Biso   1.000  O
  C181     1.0000 0.09489  0.67119  0.18020  Biso   1.000  C
  H257     1.0000 0.14279  0.74152  0.24151  Biso   1.000  H
  O138     1.0000 0.32016  0.56838  0.18300  Biso   1.000  O
  O139     1.0000 0.26006  0.52917  0.11301  Biso   1.000  O
  C182     1.0000 0.98509  0.65783  0.11858  Biso   1.000  C
  H258     1.0000 0.00127  0.64051  0.04960  Biso   1.000  H
  C183     1.0000 0.04607  0.51408  0.08250  Biso   1.000  C
  H259     1.0000 0.76236  0.75422  0.05051  Biso   1.000  H
  O140     1.0000 0.92120  0.79812  0.14562  Biso   1.000  O
  H260     1.0000 0.94290  0.78130  0.08159  Biso   1.000  H
  C184     1.0000 0.91359  0.19134  0.05430  Biso   1.000  C
  H261     1.0000 0.00947  0.26448  0.05689  Biso   1.000  H
  H262     1.0000 0.80977  0.14051  0.03958  Biso   1.000  H
  H263     1.0000 0.02076  0.81227  0.18938  Biso   1.000  H
  O141     1.0000 0.05778  0.70238  0.13589  Biso   1.000  O
  H264     1.0000 0.05878  0.63177  0.19569  Biso   1.000  H
  H265     1.0000 0.96939  0.61603  0.14359  Biso   1.000  H
  O142     1.0000 0.05451  0.46910  0.03993  Biso   1.000  O
  H266     1.0000 0.09647  0.53899  0.09791  Biso   1.000  H
  H267     1.0000 0.02865  0.46570  0.10369  Biso   1.000  H
  H268     1.0000 0.89496  0.76960  0.16311  Biso   1.000  H
  H269     1.0000 0.93318  0.14260  0.07619  Biso   1.000  H
  H270     1.0000 0.01110  0.46173  0.02340  Biso   1.000  H
