data_image0
_cell_length_a       9.324
_cell_length_b       9.324
_cell_length_c       9.324
_cell_angle_alpha    100.8
_cell_angle_beta     100.8
_cell_angle_gamma    100.8

_symmetry_space_group_name_H-M    "P 1"
_symmetry_int_tables_number       1

loop_
  _symmetry_equiv_pos_as_xyz
  'x, y, z'

loop_
  _atom_site_label
  _atom_site_occupancy
  _atom_site_fract_x
  _atom_site_fract_y
  _atom_site_fract_z
  _atom_site_thermal_displace_type
  _atom_site_B_iso_or_equiv
  _atom_site_type_symbol
  C1       1.0000 0.43618  0.42251  0.26313  Biso   1.000  C
  C2       1.0000 0.48612  0.31049  0.32518  Biso   1.000  C
  C3       1.0000 0.32525  0.48606  0.31048  Biso   1.000  C
  H1       1.0000 0.47988  0.45640  0.18660  Biso   1.000  H
  C4       1.0000 0.42254  0.26315  0.43615  Biso   1.000  C
  C5       1.0000 0.60540  0.23918  0.27065  Biso   1.000  C
  C6       1.0000 0.26314  0.43624  0.42258  Biso   1.000  C
  C7       1.0000 0.27065  0.60543  0.23912  Biso   1.000  C
  C8       1.0000 0.31043  0.32521  0.48608  Biso   1.000  C
  H2       1.0000 0.45641  0.18666  0.47991  Biso   1.000  H
  C9       1.0000 0.74524  0.35229  0.26447  Biso   1.000  C
  H3       1.0000 0.56155  0.17639  0.17213  Biso   1.000  H
  H4       1.0000 0.63536  0.17590  0.33528  Biso   1.000  H
  H5       1.0000 0.18658  0.47984  0.45635  Biso   1.000  H
  C10      1.0000 0.26443  0.74519  0.35233  Biso   1.000  C
  H6       1.0000 0.17207  0.56159  0.17639  Biso   1.000  H
  H7       1.0000 0.33532  0.63541  0.17594  Biso   1.000  H
  C11      1.0000 0.23911  0.27061  0.60536  Biso   1.000  C
  C12      1.0000 0.81732  0.46620  0.41046  Biso   1.000  C
  H8       1.0000 0.71824  0.40458  0.18772  Biso   1.000  H
  H9       1.0000 0.81760  0.29824  0.23653  Biso   1.000  H
  C13      1.0000 0.41050  0.81731  0.46622  Biso   1.000  C
  H10      1.0000 0.18765  0.71816  0.40462  Biso   1.000  H
  H11      1.0000 0.23654  0.81756  0.29825  Biso   1.000  H
  C14      1.0000 0.35231  0.26442  0.74517  Biso   1.000  C
  H12      1.0000 0.17641  0.17208  0.56160  Biso   1.000  H
  H13      1.0000 0.17589  0.33530  0.63543  Biso   1.000  H
  C15      1.0000 0.85211  0.61868  0.41450  Biso   1.000  C
  C16      1.0000 0.84824  0.42114  0.54555  Biso   1.000  C
  C17      1.0000 0.41445  0.85201  0.61860  Biso   1.000  C
  C18      1.0000 0.54556  0.84829  0.42112  Biso   1.000  C
  C19      1.0000 0.46622  0.41044  0.81732  Biso   1.000  C
  H14      1.0000 0.40463  0.18767  0.71824  Biso   1.000  H
  H15      1.0000 0.29821  0.23645  0.81755  Biso   1.000  H
  C20      1.0000 0.91690  0.72502  0.54802  Biso   1.000  C
  H16      1.0000 0.83077  0.65183  0.32293  Biso   1.000  H
  C21      1.0000 0.91409  0.52458  0.68020  Biso   1.000  C
  H17      1.0000 0.82242  0.31634  0.54466  Biso   1.000  H
  C22      1.0000 0.54801  0.91694  0.72498  Biso   1.000  C
  H18      1.0000 0.32295  0.83074  0.65182  Biso   1.000  H
  C23      1.0000 0.68013  0.91407  0.52457  Biso   1.000  C
  H19      1.0000 0.54467  0.82238  0.31631  Biso   1.000  H
  C24      1.0000 0.61870  0.41442  0.85211  Biso   1.000  C
  C25      1.0000 0.42109  0.54554  0.84829  Biso   1.000  C
  C26      1.0000 0.94737  0.67645  0.68020  Biso   1.000  C
  C27      1.0000 0.95358  0.89081  0.55105  Biso   1.000  C
  C28      1.0000 0.94649  0.47043  0.82372  Biso   1.000  C
  C29      1.0000 0.68019  0.94736  0.67650  Biso   1.000  C
  C30      1.0000 0.55096  0.95352  0.89071  Biso   1.000  C
  C31      1.0000 0.82374  0.94656  0.47038  Biso   1.000  C
  C32      1.0000 0.72497  0.54806  0.91696  Biso   1.000  C
  H20      1.0000 0.65181  0.32289  0.83068  Biso   1.000  H
  C33      1.0000 0.52462  0.68018  0.91416  Biso   1.000  C
  H21      1.0000 0.31633  0.54470  0.82237  Biso   1.000  H
  H22      1.0000 0.99297  0.74961  0.77255  Biso   1.000  H
  H23      1.0000 0.98361  0.94615  0.65372  Biso   1.000  H
  H24      1.0000 0.03725  0.91196  0.50595  Biso   1.000  H
  C34      1.0000 0.89079  0.55103  0.95354  Biso   1.000  C
  H25      1.0000 0.89996  0.36546  0.80173  Biso   1.000  H
  H26      1.0000 0.05283  0.48098  0.85525  Biso   1.000  H
  H27      1.0000 0.77258  0.99303  0.74955  Biso   1.000  H
  C35      1.0000 0.47037  0.82367  0.94647  Biso   1.000  C
  H28      1.0000 0.65376  0.98366  0.94614  Biso   1.000  H
  H29      1.0000 0.50599  0.03737  0.91203  Biso   1.000  H
  H30      1.0000 0.80164  0.89985  0.36535  Biso   1.000  H
  H31      1.0000 0.85531  0.05285  0.48104  Biso   1.000  H
  C36      1.0000 0.67649  0.68019  0.94737  Biso   1.000  C
  H32      1.0000 0.94612  0.65372  0.98361  Biso   1.000  H
  H33      1.0000 0.91198  0.50602  0.03725  Biso   1.000  H
  H34      1.0000 0.36539  0.80169  0.89991  Biso   1.000  H
  H35      1.0000 0.48100  0.85530  0.05285  Biso   1.000  H
  H36      1.0000 0.74966  0.77261  0.99304  Biso   1.000  H
  Ne1      1.0000 0.59339  0.59339  0.59339  Biso   1.000  Ne
  He1      1.0000 0.77366  0.77363  0.77365  Biso   1.000  He
  He2      1.0000 0.35190  0.61373  0.63395  Biso   1.000  He
  He3      1.0000 0.63297  0.35779  0.61336  Biso   1.000  He
  He4      1.0000 0.61306  0.63226  0.36258  Biso   1.000  He
  Ar1      1.0000 0.59489  0.59487  0.59489  Biso   1.000  Ar
