data_image0
_cell_length_a       13.811
_cell_length_b       16.239
_cell_length_c       20.785
_cell_angle_alpha    111.38
_cell_angle_beta     95.13
_cell_angle_gamma    110.9

_symmetry_space_group_name_H-M    "P 1"
_symmetry_int_tables_number       1

loop_
  _symmetry_equiv_pos_as_xyz
  'x, y, z'

loop_
  _atom_site_label
  _atom_site_occupancy
  _atom_site_fract_x
  _atom_site_fract_y
  _atom_site_fract_z
  _atom_site_thermal_displace_type
  _atom_site_B_iso_or_equiv
  _atom_site_type_symbol
  C1       1.0000 0.44802  0.89428  0.56331  Biso   1.000  C
  C2       1.0000 0.49230  0.83361  0.52460  Biso   1.000  C
  C3       1.0000 0.34758  0.88349  0.53341  Biso   1.000  C
  O1       1.0000 0.49751  0.95742  0.63529  Biso   1.000  O
  C4       1.0000 0.43627  0.76227  0.45599  Biso   1.000  C
  O2       1.0000 0.59358  0.84990  0.55818  Biso   1.000  O
  C5       1.0000 0.29158  0.81222  0.46480  Biso   1.000  C
  O3       1.0000 0.30589  0.94893  0.57329  Biso   1.000  O
  C6       1.0000 0.57863  0.04989  0.64479  Biso   1.000  C
  C7       1.0000 0.48337  0.69131  0.41648  Biso   1.000  C
  C8       1.0000 0.33591  0.75148  0.42609  Biso   1.000  C
  C9       1.0000 0.59831  0.79150  0.59027  Biso   1.000  C
  C10      1.0000 0.17851  0.80292  0.43532  Biso   1.000  C
  C11      1.0000 0.22802  0.90972  0.60699  Biso   1.000  C
  C12      1.0000 0.63353  0.09998  0.72120  Biso   1.000  C
  H1       1.0000 0.54616  0.08738  0.63160  Biso   1.000  H
  H2       1.0000 0.62853  0.04021  0.61590  Biso   1.000  H
  C13      1.0000 0.45271  0.60758  0.43992  Biso   1.000  C
  H3       1.0000 0.56136  0.72739  0.43431  Biso   1.000  H
  C14      1.0000 0.45958  0.65891  0.33638  Biso   1.000  C
  H4       1.0000 0.29836  0.70378  0.38022  Biso   1.000  H
  O4       1.0000 0.61147  0.70529  0.54142  Biso   1.000  O
  H5       1.0000 0.53317  0.76989  0.60560  Biso   1.000  H
  H6       1.0000 0.65812  0.82839  0.63240  Biso   1.000  H
  C15      1.0000 0.09750  0.73248  0.45860  Biso   1.000  C
  H7       1.0000 0.17746  0.86697  0.45818  Biso   1.000  H
  C16      1.0000 0.15294  0.77021  0.35208  Biso   1.000  C
  O5       1.0000 0.12212  0.87399  0.56582  Biso   1.000  O
  H8       1.0000 0.23811  0.85701  0.61382  Biso   1.000  H
  H9       1.0000 0.23808  0.95983  0.65360  Biso   1.000  H
  C17      1.0000 0.69658  0.06403  0.74870  Biso   1.000  C
  H10      1.0000 0.57720  0.09777  0.74699  Biso   1.000  H
  O6       1.0000 0.69710  0.20418  0.73919  Biso   1.000  O
  C18      1.0000 0.36117  0.52161  0.40158  Biso   1.000  C
  C19      1.0000 0.51392  0.62177  0.50297  Biso   1.000  C
  H11      1.0000 0.38266  0.62340  0.31668  Biso   1.000  H
  H12      1.0000 0.48238  0.71627  0.32699  Biso   1.000  H
  C20      1.0000 0.51258  0.59512  0.29741  Biso   1.000  C
  C21      1.0000 0.04513  0.63271  0.41648  Biso   1.000  C
  C22      1.0000 0.07624  0.77294  0.52423  Biso   1.000  C
  H13      1.0000 0.16949  0.71477  0.32939  Biso   1.000  H
  H14      1.0000 0.07698  0.74981  0.33387  Biso   1.000  H
  C23      1.0000 0.21572  0.85052  0.33318  Biso   1.000  C
  H15      1.0000 0.65729  0.99289  0.72419  Biso   1.000  H
  C24      1.0000 0.71950  0.08689  0.82622  Biso   1.000  C
  O7       1.0000 0.79910  0.08584  0.72691  Biso   1.000  O
  H16      1.0000 0.75739  0.22230  0.76322  Biso   1.000  H
  C25      1.0000 0.33087  0.44970  0.42641  Biso   1.000  C
  H17      1.0000 0.32018  0.51218  0.35940  Biso   1.000  H
  C26      1.0000 0.48372  0.54992  0.52780  Biso   1.000  C
  H18      1.0000 0.48770  0.57273  0.24631  Biso   1.000  H
  H19      1.0000 0.49242  0.53843  0.30760  Biso   1.000  H
  C27      1.0000 0.63781  0.65216  0.32058  Biso   1.000  C
  C28      1.0000 0.97160  0.57330  0.43992  Biso   1.000  C
  H20      1.0000 0.05929  0.60561  0.37259  Biso   1.000  H
  C29      1.0000 0.00270  0.71350  0.54772  Biso   1.000  C
  H21      1.0000 0.20702  0.82411  0.28198  Biso   1.000  H
  H22      1.0000 0.29103  0.87489  0.35571  Biso   1.000  H
  C30      1.0000 0.18286  0.93707  0.35619  Biso   1.000  C
  O8       1.0000 0.61770  0.02809  0.83199  Biso   1.000  O
  H23      1.0000 0.77490  0.06832  0.83952  Biso   1.000  H
  H24      1.0000 0.74082  0.15558  0.85559  Biso   1.000  H
  H25      1.0000 0.79256  0.03949  0.69050  Biso   1.000  H
  C31      1.0000 0.22588  0.35439  0.38561  Biso   1.000  C
  C32      1.0000 0.39219  0.46378  0.48952  Biso   1.000  C
  O9       1.0000 0.53561  0.56843  0.59423  Biso   1.000  O
  C33      1.0000 0.68539  0.70559  0.28379  Biso   1.000  C
  C34      1.0000 0.70048  0.65249  0.37691  Biso   1.000  C
  C35      1.0000 0.92009  0.46238  0.40072  Biso   1.000  C
  C36      1.0000 0.95036  0.61367  0.50548  Biso   1.000  C
  O10      1.0000 0.98934  0.75373  0.61521  Biso   1.000  O
  C37      1.0000 0.09357  0.92830  0.31289  Biso   1.000  C
  C38      1.0000 0.23860  0.02070  0.41931  Biso   1.000  C
  C39      1.0000 0.60828  0.02920  0.89841  Biso   1.000  C
  C40      1.0000 0.20467  0.32512  0.30579  Biso   1.000  C
  C41      1.0000 0.13837  0.37381  0.42048  Biso   1.000  C
  H26      1.0000 0.23568  0.30211  0.39432  Biso   1.000  H
  O11      1.0000 0.37022  0.39201  0.51392  Biso   1.000  O
  C42      1.0000 0.62531  0.54942  0.59962  Biso   1.000  C
  H27      1.0000 0.64341  0.70542  0.24620  Biso   1.000  H
  C43      1.0000 0.79579  0.75917  0.30328  Biso   1.000  C
  C44      1.0000 0.81088  0.70607  0.39640  Biso   1.000  C
  H28      1.0000 0.66870  0.61684  0.40142  Biso   1.000  H
  C45      1.0000 0.99379  0.42399  0.42721  Biso   1.000  C
  H29      1.0000 0.85317  0.43888  0.41471  Biso   1.000  H
  C46      1.0000 0.89081  0.42241  0.31690  Biso   1.000  C
  O12      1.0000 0.87713  0.55769  0.52962  Biso   1.000  O
  C47      1.0000 0.90872  0.78533  0.62082  Biso   1.000  C
  H30      1.0000 0.05633  0.87240  0.27071  Biso   1.000  H
  C48      1.0000 0.05999  0.00310  0.33281  Biso   1.000  C
  H31      1.0000 0.29833  0.02661  0.44819  Biso   1.000  H
  C49      1.0000 0.20488  0.09549  0.43922  Biso   1.000  C
  C50      1.0000 0.65401  0.98477  0.92960  Biso   1.000  C
  C51      1.0000 0.53486  0.06216  0.92698  Biso   1.000  C
  H32      1.0000 0.26657  0.31948  0.28940  Biso   1.000  H
  H33      1.0000 0.19244  0.37482  0.29559  Biso   1.000  H
  C52      1.0000 0.10307  0.22421  0.26510  Biso   1.000  C
  C53      1.0000 0.12811  0.35922  0.48178  Biso   1.000  C
  C54      1.0000 0.07117  0.40620  0.39320  Biso   1.000  C
  C55      1.0000 0.29290  0.38390  0.55279  Biso   1.000  C
  C56      1.0000 0.66207  0.57550  0.67848  Biso   1.000  C
  H34      1.0000 0.68073  0.58909  0.58429  Biso   1.000  H
  H35      1.0000 0.60756  0.48134  0.57063  Biso   1.000  H
  H36      1.0000 0.82764  0.79479  0.27883  Biso   1.000  H
  C57      1.0000 0.85865  0.75943  0.35961  Biso   1.000  C
  H37      1.0000 0.85303  0.70630  0.43399  Biso   1.000  H
  C58      1.0000 0.98348  0.40927  0.48850  Biso   1.000  C
  H38      1.0000 0.95282  0.45262  0.30152  Biso   1.000  H
  H39      1.0000 0.86908  0.35252  0.29522  Biso   1.000  H
  C59      1.0000 0.79948  0.44560  0.29340  Biso   1.000  C
  C60      1.0000 0.91140  0.51144  0.56582  Biso   1.000  C
  H40      1.0000 0.83912  0.73021  0.60207  Biso   1.000  H
  H41      1.0000 0.91212  0.82422  0.59428  Biso   1.000  H
  C61      1.0000 0.92669  0.84652  0.70032  Biso   1.000  C
  H42      1.0000 0.00017  0.99718  0.30381  Biso   1.000  H
  C62      1.0000 0.11558  0.08673  0.39592  Biso   1.000  C
  H43      1.0000 0.24218  0.15139  0.48140  Biso   1.000  H
  O13      1.0000 0.72991  0.95880  0.89932  Biso   1.000  O
  C63      1.0000 0.62621  0.97333  0.98950  Biso   1.000  C
  O14      1.0000 0.49438  0.11330  0.89772  Biso   1.000  O
  C64      1.0000 0.50716  0.05078  0.98689  Biso   1.000  C
  H44      1.0000 0.11749  0.17455  0.27413  Biso   1.000  H
  H45      1.0000 0.04284  0.22932  0.28422  Biso   1.000  H
  C65      1.0000 0.07359  0.19316  0.18688  Biso   1.000  C
  O15      1.0000 0.18687  0.32016  0.50858  Biso   1.000  O
  C66      1.0000 0.05068  0.37688  0.51579  Biso   1.000  C
  H46      1.0000 0.07806  0.41597  0.35208  Biso   1.000  H
  H47      1.0000 0.29559  0.44800  0.57960  Biso   1.000  H
  H48      1.0000 0.30941  0.35971  0.58670  Biso   1.000  H
  C67      1.0000 0.59418  0.51039  0.70459  Biso   1.000  C
  H49      1.0000 0.67077  0.64197  0.70699  Biso   1.000  H
  O16      1.0000 0.76309  0.57054  0.69082  Biso   1.000  O
  H50      1.0000 0.93237  0.79531  0.37269  Biso   1.000  H
  O17      1.0000 0.90128  0.41620  0.52059  Biso   1.000  O
  H51      1.0000 0.82325  0.51567  0.31348  Biso   1.000  H
  H52      1.0000 0.73982  0.41922  0.31209  Biso   1.000  H
  C68      1.0000 0.76010  0.40239  0.20968  Biso   1.000  C
  H53      1.0000 0.87030  0.50601  0.60069  Biso   1.000  H
  H54      1.0000 0.98591  0.55201  0.59161  Biso   1.000  H
  C69      1.0000 0.02467  0.94271  0.73209  Biso   1.000  C
  H55      1.0000 0.93276  0.80828  0.72638  Biso   1.000  H
  O18      1.0000 0.83607  0.87298  0.71442  Biso   1.000  O
  H56      1.0000 0.09308  0.13671  0.40921  Biso   1.000  H
  C70      1.0000 0.69550  0.85447  0.84721  Biso   1.000  C
  C71      1.0000 0.67124  0.91391  0.01700  Biso   1.000  C
  C72      1.0000 0.55281  0.00632  0.01812  Biso   1.000  C
  C73      1.0000 0.38681  0.05861  0.85479  Biso   1.000  C
  C74      1.0000 0.43259  0.09369  0.02271  Biso   1.000  C
  C75      1.0000 0.09700  0.12162  0.13888  Biso   1.000  C
  C76      1.0000 0.01897  0.23729  0.16211  Biso   1.000  C
  O19      1.0000 0.04918  0.37722  0.58269  Biso   1.000  O
  C77      1.0000 0.59971  0.55063  0.78650  Biso   1.000  C
  H57      1.0000 0.52026  0.49100  0.68008  Biso   1.000  H
  O20      1.0000 0.60729  0.41671  0.68937  Biso   1.000  O
  H58      1.0000 0.78638  0.56512  0.65531  Biso   1.000  H
  C78      1.0000 0.77818  0.32668  0.16189  Biso   1.000  C
  C79      1.0000 0.69573  0.43901  0.18480  Biso   1.000  C
  H59      1.0000 0.08043  0.93509  0.70742  Biso   1.000  H
  C80      1.0000 0.06843  0.97809  0.80972  Biso   1.000  C
  O21      1.0000 0.99770  0.01627  0.72200  Biso   1.000  O
  H60      1.0000 0.77968  0.82701  0.68831  Biso   1.000  H
  O22      1.0000 0.70462  0.80100  0.88528  Biso   1.000  O
  H61      1.0000 0.62191  0.82769  0.82019  Biso   1.000  H
  H62      1.0000 0.74053  0.85099  0.81389  Biso   1.000  H
  C81      1.0000 0.59653  0.80462  0.97199  Biso   1.000  C
  H63      1.0000 0.74230  0.92547  0.00808  Biso   1.000  H
  C82      1.0000 0.68267  0.94537  0.09640  Biso   1.000  C
  H64      1.0000 0.53423  0.99872  0.05812  Biso   1.000  H
  O23      1.0000 0.30942  0.06991  0.89179  Biso   1.000  O
  H65      1.0000 0.37256  0.99007  0.83338  Biso   1.000  H
  H66      1.0000 0.37992  0.07802  0.81629  Biso   1.000  H
  C83      1.0000 0.31604  0.01284  0.98432  Biso   1.000  C
  H67      1.0000 0.43922  0.14868  0.01140  Biso   1.000  H
  C84      1.0000 0.45861  0.13210  0.10441  Biso   1.000  C
  H68      1.0000 0.13349  0.09212  0.15548  Biso   1.000  H
  C85      1.0000 0.06579  0.09407  0.06600  Biso   1.000  C
  H69      1.0000 0.00329  0.28509  0.19420  Biso   1.000  H
  C86      1.0000 0.98773  0.20968  0.08922  Biso   1.000  C
  C87      1.0000 0.99163  0.28322  0.58200  Biso   1.000  C
  O24      1.0000 0.55177  0.61718  0.79371  Biso   1.000  O
  H70      1.0000 0.55912  0.49908  0.79942  Biso   1.000  H
  H71      1.0000 0.67308  0.58358  0.81528  Biso   1.000  H
  H72      1.0000 0.64960  0.42441  0.72371  Biso   1.000  H
  H73      1.0000 0.82120  0.30219  0.17860  Biso   1.000  H
  C88      1.0000 0.73179  0.28756  0.08928  Biso   1.000  C
  C89      1.0000 0.64940  0.39989  0.11207  Biso   1.000  C
  H74      1.0000 0.68363  0.48971  0.21667  Biso   1.000  H
  H75      1.0000 0.01119  0.97008  0.83391  Biso   1.000  H
  O25      1.0000 0.12228  0.92019  0.81522  Biso   1.000  O
  H76      1.0000 0.11784  0.04652  0.83071  Biso   1.000  H
  H77      1.0000 0.00756  0.01698  0.68387  Biso   1.000  H
  C90      1.0000 0.61331  0.75694  0.90632  Biso   1.000  C
  C91      1.0000 0.51048  0.75591  0.99388  Biso   1.000  C
  H78      1.0000 0.70187  0.90136  0.11050  Biso   1.000  H
  H79      1.0000 0.61450  0.94128  0.10681  Biso   1.000  H
  C92      1.0000 0.77023  0.05231  0.14098  Biso   1.000  C
  C93      1.0000 0.26567  0.00658  0.92062  Biso   1.000  C
  C94      1.0000 0.26456  0.94579  0.01038  Biso   1.000  C
  H80      1.0000 0.44322  0.07760  0.11690  Biso   1.000  H
  H81      1.0000 0.53452  0.17421  0.12400  Biso   1.000  H
  C95      1.0000 0.39579  0.18799  0.13751  Biso   1.000  C
  H82      1.0000 0.08144  0.04621  0.03391  Biso   1.000  H
  C96      1.0000 0.01114  0.13814  0.04122  Biso   1.000  C
  H83      1.0000 0.95117  0.23918  0.07262  Biso   1.000  H
  H84      1.0000 0.02960  0.24221  0.56747  Biso   1.000  H
  H85      1.0000 0.92017  0.25008  0.55028  Biso   1.000  H
  C97      1.0000 0.98732  0.30953  0.65899  Biso   1.000  C
  C98      1.0000 0.54399  0.66046  0.86248  Biso   1.000  C
  H86      1.0000 0.74387  0.23686  0.05729  Biso   1.000  H
  C99      1.0000 0.66740  0.32418  0.06429  Biso   1.000  C
  H87      1.0000 0.60633  0.42442  0.09542  Biso   1.000  H
  C100     1.0000 0.16392  0.93348  0.88309  Biso   1.000  C
  C101     1.0000 0.44128  0.65953  0.95010  Biso   1.000  C
  H88      1.0000 0.49933  0.78789  0.03788  Biso   1.000  H
  H89      1.0000 0.84395  0.05308  0.13709  Biso   1.000  H
  H90      1.0000 0.75841  0.09363  0.12021  Biso   1.000  H
  C102     1.0000 0.77137  0.09408  0.21782  Biso   1.000  C
  C103     1.0000 0.16292  0.87258  0.97290  Biso   1.000  C
  H91      1.0000 0.29829  0.94986  0.05299  Biso   1.000  H
  H92      1.0000 0.41617  0.24570  0.12849  Biso   1.000  H
  H93      1.0000 0.32023  0.14798  0.11450  Biso   1.000  H
  C104     1.0000 0.41230  0.21820  0.21611  Biso   1.000  C
  H94      1.0000 0.99018  0.11971  0.99242  Biso   1.000  H
  H95      1.0000 0.05996  0.35578  0.68820  Biso   1.000  H
  O26      1.0000 0.96213  0.22300  0.67320  Biso   1.000  O
  C105     1.0000 0.91697  0.35797  0.68201  Biso   1.000  C
  C106     1.0000 0.45803  0.61178  0.88442  Biso   1.000  C
  H96      1.0000 0.63640  0.29798  0.01570  Biso   1.000  H
  C107     1.0000 0.11252  0.86639  0.90931  Biso   1.000  C
  C108     1.0000 0.34730  0.60693  0.97311  Biso   1.000  C
  C109     1.0000 0.71031  0.14638  0.23918  Biso   1.000  C
  C110     1.0000 0.83374  0.08384  0.26822  Biso   1.000  C
  C111     1.0000 0.10638  0.78674  0.99361  Biso   1.000  C
  C112     1.0000 0.48229  0.31309  0.26288  Biso   1.000  C
  C113     1.0000 0.36111  0.15140  0.24249  Biso   1.000  C
  H97      1.0000 0.89996  0.18398  0.65189  Biso   1.000  H
  H98      1.0000 0.92200  0.40008  0.65750  Biso   1.000  H
  O27      1.0000 0.80730  0.28870  0.66081  Biso   1.000  O
  C114     1.0000 0.94788  0.42199  0.76162  Biso   1.000  C
  O28      1.0000 0.39111  0.51601  0.83850  Biso   1.000  O
  O29      1.0000 0.00557  0.80146  0.87439  Biso   1.000  O
  C115     1.0000 0.24700  0.61771  0.94268  Biso   1.000  C
  H99      1.0000 0.33154  0.53763  0.94882  Biso   1.000  H
  C116     1.0000 0.36198  0.63042  0.05149  Biso   1.000  C
  H100     1.0000 0.66856  0.15329  0.20548  Biso   1.000  H
  C117     1.0000 0.71159  0.18840  0.31088  Biso   1.000  C
  C118     1.0000 0.83490  0.12576  0.33988  Biso   1.000  C
  H101     1.0000 0.87454  0.04882  0.25391  Biso   1.000  H
  C119     1.0000 0.13498  0.70399  0.95288  Biso   1.000  C
  H102     1.0000 0.02883  0.76402  0.97722  Biso   1.000  H
  C120     1.0000 0.13381  0.81881  0.07541  Biso   1.000  C
  H103     1.0000 0.51660  0.35772  0.24532  Biso   1.000  H
  C121     1.0000 0.50120  0.34122  0.33619  Biso   1.000  C
  C122     1.0000 0.37997  0.17960  0.31569  Biso   1.000  C
  H104     1.0000 0.31422  0.08800  0.21109  Biso   1.000  H
  H105     1.0000 0.76859  0.31757  0.66898  Biso   1.000  H
  O30      1.0000 0.04372  0.50560  0.77208  Biso   1.000  O
  H106     1.0000 0.89150  0.44133  0.77582  Biso   1.000  H
  H107     1.0000 0.96230  0.38829  0.78879  Biso   1.000  H
  C123     1.0000 0.28943  0.49592  0.79921  Biso   1.000  C
  C124     1.0000 0.99229  0.70430  0.82190  Biso   1.000  C
  C125     1.0000 0.18658  0.55338  0.87332  Biso   1.000  C
  C126     1.0000 0.22117  0.69301  0.98251  Biso   1.000  C
  H108     1.0000 0.29380  0.59759  0.05988  Biso   1.000  H
  H109     1.0000 0.38550  0.70004  0.07873  Biso   1.000  H
  C127     1.0000 0.44507  0.59868  0.07808  Biso   1.000  C
  H110     1.0000 0.67079  0.22342  0.32519  Biso   1.000  H
  C128     1.0000 0.77392  0.17810  0.36118  Biso   1.000  C
  H111     1.0000 0.87660  0.11889  0.37362  Biso   1.000  H
  C129     1.0000 0.07454  0.63980  0.88352  Biso   1.000  C
  H112     1.0000 0.11962  0.76179  0.08471  Biso   1.000  H
  H113     1.0000 0.20960  0.86120  0.09538  Biso   1.000  H
  C130     1.0000 0.07032  0.87123  0.11172  Biso   1.000  C
  H114     1.0000 0.54797  0.40469  0.36748  Biso   1.000  H
  C131     1.0000 0.44999  0.27452  0.36262  Biso   1.000  C
  H115     1.0000 0.34573  0.13493  0.33342  Biso   1.000  H
  C132     1.0000 0.10030  0.56450  0.84368  Biso   1.000  C
  O31      1.0000 0.21051  0.47641  0.83050  Biso   1.000  O
  H116     1.0000 0.29553  0.55163  0.78981  Biso   1.000  H
  H117     1.0000 0.27058  0.44081  0.75350  Biso   1.000  H
  O32      1.0000 0.98049  0.64153  0.85452  Biso   1.000  O
  H118     1.0000 0.05434  0.71143  0.80230  Biso   1.000  H
  H119     1.0000 0.92971  0.67722  0.78292  Biso   1.000  H
  H120     1.0000 0.26158  0.73593  0.02902  Biso   1.000  H
  H121     1.0000 0.50702  0.61860  0.05940  Biso   1.000  H
  H122     1.0000 0.46863  0.63239  0.12982  Biso   1.000  H
  C133     1.0000 0.40234  0.48972  0.05609  Biso   1.000  C
  H123     1.0000 0.77482  0.20627  0.40918  Biso   1.000  H
  C134     1.0000 0.94900  0.79721  0.10051  Biso   1.000  C
  H124     1.0000 0.06930  0.91753  0.09271  Biso   1.000  H
  H125     1.0000 0.10480  0.90748  0.16239  Biso   1.000  H
  H126     1.0000 0.46257  0.29329  0.41159  Biso   1.000  H
  C135     1.0000 0.42252  0.42969  0.99660  Biso   1.000  C
  C136     1.0000 0.33917  0.44960  0.09480  Biso   1.000  C
  C137     1.0000 0.86169  0.78667  0.05438  Biso   1.000  C
  C138     1.0000 0.93487  0.73718  0.13580  Biso   1.000  C
  C139     1.0000 0.37952  0.32971  0.97578  Biso   1.000  C
  H127     1.0000 0.46474  0.45662  0.97082  Biso   1.000  H
  H128     1.0000 0.32571  0.48967  0.13458  Biso   1.000  H
  C140     1.0000 0.29619  0.34953  0.07392  Biso   1.000  C
  H129     1.0000 0.87118  0.82687  0.03078  Biso   1.000  H
  C141     1.0000 0.76028  0.71640  0.04338  Biso   1.000  C
  C142     1.0000 0.83341  0.66678  0.12480  Biso   1.000  C
  H130     1.0000 0.99331  0.74421  0.16672  Biso   1.000  H
  H131     1.0000 0.39302  0.28958  0.93590  Biso   1.000  H
  C143     1.0000 0.31641  0.28960  0.01439  Biso   1.000  C
  H132     1.0000 0.25390  0.32273  0.09982  Biso   1.000  H
  H133     1.0000 0.70187  0.70939  0.01262  Biso   1.000  H
  C144     1.0000 0.74610  0.65640  0.07873  Biso   1.000  C
  H134     1.0000 0.82397  0.62671  0.14841  Biso   1.000  H
  H135     1.0000 0.28761  0.22267  0.00040  Biso   1.000  H
  H136     1.0000 0.67828  0.60931  0.07130  Biso   1.000  H
