data_image0
_cell_length_a       12.059
_cell_length_b       13.332
_cell_length_c       24.302
_cell_angle_alpha    104.46
_cell_angle_beta     92.71
_cell_angle_gamma    94

_symmetry_space_group_name_H-M    "P 1"
_symmetry_int_tables_number       1

loop_
  _symmetry_equiv_pos_as_xyz
  'x, y, z'

loop_
  _atom_site_label
  _atom_site_occupancy
  _atom_site_fract_x
  _atom_site_fract_y
  _atom_site_fract_z
  _atom_site_thermal_displace_type
  _atom_site_B_iso_or_equiv
  _atom_site_type_symbol
  O1       1.0000 0.55675  0.32736  0.60871  Biso   1.000  O
  C1       1.0000 0.47654  0.30762  0.63311  Biso   1.000  C
  N1       1.0000 0.41236  0.21548  0.62251  Biso   1.000  N
  N2       1.0000 0.42876  0.37686  0.67706  Biso   1.000  N
  C2       1.0000 0.42564  0.13157  0.57301  Biso   1.000  C
  C3       1.0000 0.31300  0.22216  0.65347  Biso   1.000  C
  C4       1.0000 0.32439  0.33510  0.69031  Biso   1.000  C
  C5       1.0000 0.46344  0.48761  0.69116  Biso   1.000  C
  H1       1.0000 0.35454  0.11191  0.55121  Biso   1.000  H
  H2       1.0000 0.47772  0.15600  0.54899  Biso   1.000  H
  N3       1.0000 0.46619  0.03905  0.58788  Biso   1.000  N
  H3       1.0000 0.24533  0.20746  0.62791  Biso   1.000  H
  N4       1.0000 0.30998  0.16119  0.69551  Biso   1.000  N
  H4       1.0000 0.26369  0.37360  0.68009  Biso   1.000  H
  N5       1.0000 0.31802  0.32512  0.74730  Biso   1.000  N
  H5       1.0000 0.50616  0.50254  0.66092  Biso   1.000  H
  H6       1.0000 0.39777  0.52608  0.69321  Biso   1.000  H
  N6       1.0000 0.53071  0.52329  0.74512  Biso   1.000  N
  C6       1.0000 0.38888  0.96148  0.60172  Biso   1.000  C
  C7       1.0000 0.56251  0.99989  0.56778  Biso   1.000  C
  C8       1.0000 0.27279  0.05108  0.68068  Biso   1.000  C
  C9       1.0000 0.30383  0.22303  0.75058  Biso   1.000  C
  C10      1.0000 0.32025  0.41083  0.79708  Biso   1.000  C
  C11      1.0000 0.48986  0.54880  0.80228  Biso   1.000  C
  C12      1.0000 0.64550  0.52469  0.74602  Biso   1.000  C
  C13      1.0000 0.46060  0.86686  0.59631  Biso   1.000  C
  H7       1.0000 0.32268  0.94448  0.57510  Biso   1.000  H
  N7       1.0000 0.35982  0.98380  0.65896  Biso   1.000  N
  O2       1.0000 0.63422  0.04395  0.54669  Biso   1.000  O
  N8       1.0000 0.56289  0.90027  0.57412  Biso   1.000  N
  H8       1.0000 0.24564  0.03286  0.71420  Biso   1.000  H
  H9       1.0000 0.21104  0.03829  0.65211  Biso   1.000  H
  O3       1.0000 0.28944  0.19189  0.79274  Biso   1.000  O
  H10      1.0000 0.27468  0.46278  0.78848  Biso   1.000  H
  H11      1.0000 0.28699  0.38608  0.82741  Biso   1.000  H
  N9       1.0000 0.43229  0.45985  0.81753  Biso   1.000  N
  C14      1.0000 0.59966  0.57116  0.84257  Biso   1.000  C
  C15      1.0000 0.41612  0.63881  0.80927  Biso   1.000  C
  N10      1.0000 0.68814  0.55143  0.80113  Biso   1.000  N
  O4       1.0000 0.69994  0.50919  0.70415  Biso   1.000  O
  H12      1.0000 0.42317  0.80409  0.57020  Biso   1.000  H
  N11      1.0000 0.47109  0.85569  0.65283  Biso   1.000  N
  C16      1.0000 0.40327  0.91905  0.68865  Biso   1.000  C
  C17      1.0000 0.65319  0.83482  0.55994  Biso   1.000  C
  C18      1.0000 0.48672  0.43394  0.86140  Biso   1.000  C
  N12      1.0000 0.58757  0.49150  0.87413  Biso   1.000  N
  C19      1.0000 0.62122  0.67942  0.88197  Biso   1.000  C
  H13      1.0000 0.38984  0.65476  0.84692  Biso   1.000  H
  H14      1.0000 0.45835  0.69882  0.80360  Biso   1.000  H
  H15      1.0000 0.35372  0.61982  0.78158  Biso   1.000  H
  C20      1.0000 0.80459  0.55728  0.81489  Biso   1.000  C
  C21      1.0000 0.50757  0.76215  0.66582  Biso   1.000  C
  O5       1.0000 0.38751  0.91640  0.73776  Biso   1.000  O
  H16      1.0000 0.62217  0.76518  0.54060  Biso   1.000  H
  H17      1.0000 0.69794  0.86068  0.53349  Biso   1.000  H
  N13      1.0000 0.72486  0.82918  0.60828  Biso   1.000  N
  O6       1.0000 0.45067  0.37105  0.88648  Biso   1.000  O
  C22      1.0000 0.65952  0.48294  0.92251  Biso   1.000  C
  H18      1.0000 0.62975  0.72940  0.85969  Biso   1.000  H
  H19      1.0000 0.55951  0.69441  0.90539  Biso   1.000  H
  H20      1.0000 0.68801  0.68290  0.90569  Biso   1.000  H
  H21      1.0000 0.84351  0.56933  0.78282  Biso   1.000  H
  H22      1.0000 0.82419  0.61682  0.84700  Biso   1.000  H
  N14      1.0000 0.84415  0.46441  0.82916  Biso   1.000  N
  H23      1.0000 0.46727  0.74900  0.69729  Biso   1.000  H
  H24      1.0000 0.48826  0.70385  0.63298  Biso   1.000  H
  N15      1.0000 0.62749  0.76730  0.68081  Biso   1.000  N
  C23      1.0000 0.71349  0.74927  0.63980  Biso   1.000  C
  C24      1.0000 0.82562  0.88732  0.62050  Biso   1.000  C
  H25      1.0000 0.61461  0.45577  0.94841  Biso   1.000  H
  H26      1.0000 0.69139  0.55181  0.94279  Biso   1.000  H
  N16      1.0000 0.74919  0.41636  0.90620  Biso   1.000  N
  C25      1.0000 0.85267  0.45270  0.88631  Biso   1.000  C
  C26      1.0000 0.90996  0.40045  0.79351  Biso   1.000  C
  C27      1.0000 0.66817  0.79928  0.73635  Biso   1.000  C
  C28      1.0000 0.82473  0.77366  0.68141  Biso   1.000  C
  C29      1.0000 0.69635  0.64083  0.60083  Biso   1.000  C
  N17      1.0000 0.88214  0.86206  0.66497  Biso   1.000  N
  O7       1.0000 0.85919  0.95138  0.59550  Biso   1.000  O
  C30      1.0000 0.75192  0.31874  0.91378  Biso   1.000  C
  H27      1.0000 0.88730  0.51606  0.91302  Biso   1.000  H
  C31      1.0000 0.92481  0.36049  0.88252  Biso   1.000  C
  N18      1.0000 0.95442  0.33741  0.82379  Biso   1.000  N
  O8       1.0000 0.92956  0.40272  0.74504  Biso   1.000  O
  N19      1.0000 0.78144  0.80136  0.73729  Biso   1.000  N
  O9       1.0000 0.61254  0.81959  0.77758  Biso   1.000  O
  C32      1.0000 0.89981  0.68497  0.67515  Biso   1.000  C
  H28      1.0000 0.75395  0.63096  0.57451  Biso   1.000  H
  H29      1.0000 0.69918  0.59077  0.62310  Biso   1.000  H
  H30      1.0000 0.62503  0.63197  0.58008  Biso   1.000  H
  C33      1.0000 0.99077  0.91049  0.68575  Biso   1.000  C
  N20      1.0000 0.85193  0.28175  0.89594  Biso   1.000  N
  O10      1.0000 0.68098  0.27243  0.93440  Biso   1.000  O
  H31      1.0000 0.99093  0.37954  0.90918  Biso   1.000  H
  C34      1.0000 0.04249  0.27021  0.80339  Biso   1.000  C
  C35      1.0000 0.84715  0.83521  0.79197  Biso   1.000  C
  H32      1.0000 0.92705  0.66935  0.63771  Biso   1.000  H
  H33      1.0000 0.96165  0.70506  0.70309  Biso   1.000  H
  H34      1.0000 0.85835  0.62456  0.68060  Biso   1.000  H
  N21      1.0000 0.99218  0.99740  0.73554  Biso   1.000  N
  H35      1.0000 0.03584  0.85876  0.69499  Biso   1.000  H
  H36      1.0000 0.02492  0.93464  0.65560  Biso   1.000  H
  C36      1.0000 0.89381  0.19172  0.91131  Biso   1.000  C
  N22      1.0000 0.00498  0.16084  0.78886  Biso   1.000  N
  H37      1.0000 0.10310  0.28334  0.83269  Biso   1.000  H
  H38      1.0000 0.07135  0.28771  0.77008  Biso   1.000  H
  H39      1.0000 0.91154  0.79509  0.79010  Biso   1.000  H
  H40      1.0000 0.80241  0.81990  0.82140  Biso   1.000  H
  N23      1.0000 0.88497  0.94447  0.80807  Biso   1.000  N
  C37      1.0000 0.99010  0.98535  0.79308  Biso   1.000  C
  C38      1.0000 0.00672  0.10002  0.73452  Biso   1.000  C
  N24      1.0000 0.90616  0.10583  0.86421  Biso   1.000  N
  H41      1.0000 0.84331  0.16916  0.93661  Biso   1.000  H
  H42      1.0000 0.96561  0.21296  0.93231  Biso   1.000  H
  C39      1.0000 0.00302  0.09940  0.83022  Biso   1.000  C
  C40      1.0000 0.84171  0.01402  0.85301  Biso   1.000  C
  H43      1.0000 0.05145  0.94616  0.80198  Biso   1.000  H
  O11      1.0000 0.02241  0.13193  0.69240  Biso   1.000  O
  H44      1.0000 0.07241  0.11318  0.85458  Biso   1.000  H
  O12      1.0000 0.76375  0.99443  0.87839  Biso   1.000  O
  O13      1.0000 0.44318  0.67278  0.39128  Biso   1.000  O
  C41      1.0000 0.52339  0.69252  0.36688  Biso   1.000  C
  N25      1.0000 0.57117  0.62328  0.32292  Biso   1.000  N
  N26      1.0000 0.58757  0.78468  0.37752  Biso   1.000  N
  C42      1.0000 0.53649  0.51255  0.30887  Biso   1.000  C
  C43      1.0000 0.67546  0.66506  0.30972  Biso   1.000  C
  C44      1.0000 0.68693  0.77800  0.34656  Biso   1.000  C
  C45      1.0000 0.57430  0.86859  0.42701  Biso   1.000  C
  N27      1.0000 0.46922  0.47685  0.25486  Biso   1.000  N
  H45      1.0000 0.49378  0.49769  0.33911  Biso   1.000  H
  H46      1.0000 0.60215  0.47406  0.30678  Biso   1.000  H
  N28      1.0000 0.68191  0.67502  0.25269  Biso   1.000  N
  H47      1.0000 0.73615  0.62654  0.31990  Biso   1.000  H
  H48      1.0000 0.75460  0.79270  0.37211  Biso   1.000  H
  N29      1.0000 0.68986  0.83895  0.30448  Biso   1.000  N
  H49      1.0000 0.64540  0.88832  0.44882  Biso   1.000  H
  H50      1.0000 0.52220  0.84414  0.45099  Biso   1.000  H
  N30      1.0000 0.53366  0.96111  0.41215  Biso   1.000  N
  C46      1.0000 0.35443  0.47547  0.25401  Biso   1.000  C
  C47      1.0000 0.51007  0.45134  0.19771  Biso   1.000  C
  C48      1.0000 0.67967  0.58931  0.20290  Biso   1.000  C
  C49      1.0000 0.69610  0.77711  0.24941  Biso   1.000  C
  C50      1.0000 0.72714  0.94908  0.31934  Biso   1.000  C
  C51      1.0000 0.61104  0.03866  0.39827  Biso   1.000  C
  C52      1.0000 0.43742  0.00026  0.43221  Biso   1.000  C
  N31      1.0000 0.31179  0.44873  0.19890  Biso   1.000  N
  O14      1.0000 0.29998  0.49095  0.29583  Biso   1.000  O
  C53      1.0000 0.40027  0.42900  0.15746  Biso   1.000  C
  C54      1.0000 0.58382  0.36135  0.19076  Biso   1.000  C
  N32      1.0000 0.56764  0.54031  0.18250  Biso   1.000  N
  H51      1.0000 0.72516  0.53736  0.21151  Biso   1.000  H
  H52      1.0000 0.71295  0.61408  0.17262  Biso   1.000  H
  O15      1.0000 0.71049  0.80825  0.20725  Biso   1.000  O
  H53      1.0000 0.75429  0.96728  0.28578  Biso   1.000  H
  H54      1.0000 0.78889  0.96185  0.34788  Biso   1.000  H
  N33      1.0000 0.64002  0.01634  0.34102  Biso   1.000  N
  C55      1.0000 0.53933  0.13328  0.40367  Biso   1.000  C
  H55      1.0000 0.67725  0.05566  0.42488  Biso   1.000  H
  O16      1.0000 0.36572  0.95621  0.45334  Biso   1.000  O
  N34      1.0000 0.43704  0.09989  0.42591  Biso   1.000  N
  C56      1.0000 0.19533  0.44286  0.18510  Biso   1.000  C
  C57      1.0000 0.37872  0.32074  0.11806  Biso   1.000  C
  N35      1.0000 0.41228  0.50864  0.12586  Biso   1.000  N
  H56      1.0000 0.61010  0.34540  0.15311  Biso   1.000  H
  H57      1.0000 0.54158  0.30132  0.19639  Biso   1.000  H
  H58      1.0000 0.64621  0.38032  0.21840  Biso   1.000  H
  C58      1.0000 0.51321  0.56620  0.13859  Biso   1.000  C
  C59      1.0000 0.59667  0.08111  0.31138  Biso   1.000  C
  N36      1.0000 0.52884  0.14447  0.34720  Biso   1.000  N
  H59      1.0000 0.57676  0.19605  0.42978  Biso   1.000  H
  C60      1.0000 0.34674  0.16532  0.44005  Biso   1.000  C
  H60      1.0000 0.15642  0.43083  0.21721  Biso   1.000  H
  H61      1.0000 0.17566  0.38332  0.15299  Biso   1.000  H
  N37      1.0000 0.15578  0.53575  0.17087  Biso   1.000  N
  H62      1.0000 0.37018  0.27074  0.14029  Biso   1.000  H
  H63      1.0000 0.44042  0.30573  0.09459  Biso   1.000  H
  H64      1.0000 0.31191  0.31724  0.09430  Biso   1.000  H
  C61      1.0000 0.34042  0.51722  0.07752  Biso   1.000  C
  O17      1.0000 0.54918  0.62911  0.11355  Biso   1.000  O
  O18      1.0000 0.61234  0.08374  0.26223  Biso   1.000  O
  C62      1.0000 0.49235  0.23799  0.33417  Biso   1.000  C
  H65      1.0000 0.37775  0.23496  0.45938  Biso   1.000  H
  H66      1.0000 0.30191  0.13953  0.46650  Biso   1.000  H
  N38      1.0000 0.27507  0.17096  0.39171  Biso   1.000  N
  C63      1.0000 0.14718  0.54746  0.11372  Biso   1.000  C
  C64      1.0000 0.08998  0.59977  0.20648  Biso   1.000  C
  H67      1.0000 0.38532  0.54439  0.05162  Biso   1.000  H
  H68      1.0000 0.30854  0.44833  0.05720  Biso   1.000  H
  N39      1.0000 0.25074  0.58378  0.09378  Biso   1.000  N
  H69      1.0000 0.53266  0.25115  0.30269  Biso   1.000  H
  H70      1.0000 0.51167  0.29629  0.36700  Biso   1.000  H
  N40      1.0000 0.37244  0.23284  0.31917  Biso   1.000  N
  C65      1.0000 0.28644  0.25087  0.36019  Biso   1.000  C
  C66      1.0000 0.17422  0.11282  0.37948  Biso   1.000  C
  H71      1.0000 0.11263  0.48410  0.08701  Biso   1.000  H
  C67      1.0000 0.07512  0.63967  0.11751  Biso   1.000  C
  N41      1.0000 0.04551  0.66273  0.17620  Biso   1.000  N
  O19      1.0000 0.07037  0.59742  0.25495  Biso   1.000  O
  C68      1.0000 0.24801  0.68140  0.08620  Biso   1.000  C
  C69      1.0000 0.33176  0.20086  0.26364  Biso   1.000  C
  C70      1.0000 0.17520  0.22650  0.31862  Biso   1.000  C
  C71      1.0000 0.30357  0.35931  0.39916  Biso   1.000  C
  N42      1.0000 0.11778  0.13808  0.33502  Biso   1.000  N
  O20      1.0000 0.14074  0.04878  0.40453  Biso   1.000  O
  H72      1.0000 0.00900  0.62060  0.09080  Biso   1.000  H
  N43      1.0000 0.14799  0.71839  0.10405  Biso   1.000  N
  C72      1.0000 0.95744  0.72993  0.19660  Biso   1.000  C
  O21      1.0000 0.31895  0.72773  0.06563  Biso   1.000  O
  N44      1.0000 0.21849  0.19879  0.26274  Biso   1.000  N
  O22      1.0000 0.38739  0.18057  0.22245  Biso   1.000  O
  C73      1.0000 0.10004  0.31519  0.32488  Biso   1.000  C
  H73      1.0000 0.24598  0.36918  0.42548  Biso   1.000  H
  H74      1.0000 0.30075  0.40937  0.37688  Biso   1.000  H
  H75      1.0000 0.37490  0.36817  0.41990  Biso   1.000  H
  C74      1.0000 0.00916  0.08965  0.31423  Biso   1.000  C
  C75      1.0000 0.10613  0.80844  0.08872  Biso   1.000  C
  H76      1.0000 0.89683  0.71680  0.16730  Biso   1.000  H
  H77      1.0000 0.92858  0.71243  0.22990  Biso   1.000  H
  N45      1.0000 0.99488  0.83939  0.21116  Biso   1.000  N
  C76      1.0000 0.15279  0.16495  0.20806  Biso   1.000  C
  H78      1.0000 0.07289  0.33081  0.36232  Biso   1.000  H
  H79      1.0000 0.03827  0.29508  0.29690  Biso   1.000  H
  H80      1.0000 0.14158  0.37558  0.31939  Biso   1.000  H
  N46      1.0000 0.00774  0.00274  0.26445  Biso   1.000  N
  H81      1.0000 0.96409  0.14138  0.30499  Biso   1.000  H
  H82      1.0000 0.97501  0.06550  0.34439  Biso   1.000  H
  H83      1.0000 0.15663  0.83107  0.06342  Biso   1.000  H
  H84      1.0000 0.03432  0.78720  0.06772  Biso   1.000  H
  N47      1.0000 0.09368  0.89431  0.13578  Biso   1.000  N
  C77      1.0000 0.99692  0.90076  0.16981  Biso   1.000  C
  C78      1.0000 0.99322  0.90014  0.26551  Biso   1.000  C
  N48      1.0000 0.11496  0.05569  0.19196  Biso   1.000  N
  H85      1.0000 0.08839  0.20505  0.20989  Biso   1.000  H
  H86      1.0000 0.19751  0.18024  0.17858  Biso   1.000  H
  C79      1.0000 0.00974  0.01479  0.20691  Biso   1.000  C
  C80      1.0000 0.15822  0.98612  0.14698  Biso   1.000  C
  H87      1.0000 0.92752  0.88696  0.14540  Biso   1.000  H
  O23      1.0000 0.97752  0.86821  0.30759  Biso   1.000  O
  H88      1.0000 0.94848  0.05398  0.19800  Biso   1.000  H
  O24      1.0000 0.23618  0.00578  0.12160  Biso   1.000  O
  Ne1      1.0000 0.34278  0.83950  0.25841  Biso   1.000  Ne
  He1      1.0000 0.19993  0.78234  0.35901  Biso   1.000  He
  He2      1.0000 0.48754  0.89593  0.15967  Biso   1.000  He
  Ar1      1.0000 0.34359  0.84027  0.25858  Biso   1.000  Ar
  Ne2      1.0000 0.65714  0.16065  0.74159  Biso   1.000  Ne
  He3      1.0000 0.51817  0.10757  0.83605  Biso   1.000  He
  He4      1.0000 0.80076  0.21820  0.64046  Biso   1.000  He
  Ar2      1.0000 0.65636  0.15991  0.74143  Biso   1.000  Ar
