data_image0
_cell_length_a       31.333
_cell_length_b       14.016
_cell_length_c       14.718
_cell_angle_alpha    90
_cell_angle_beta     99.59
_cell_angle_gamma    90

_symmetry_space_group_name_H-M    "P 1"
_symmetry_int_tables_number       1

loop_
  _symmetry_equiv_pos_as_xyz
  'x, y, z'

loop_
  _atom_site_label
  _atom_site_occupancy
  _atom_site_fract_x
  _atom_site_fract_y
  _atom_site_fract_z
  _atom_site_thermal_displace_type
  _atom_site_B_iso_or_equiv
  _atom_site_type_symbol
  C1       1.0000 0.52060  0.58119  0.40497  Biso   1.000  C
  C2       1.0000 0.48319  0.63449  0.41227  Biso   1.000  C
  H1       1.0000 0.51771  0.52269  0.37492  Biso   1.000  H
  C3       1.0000 0.56046  0.61301  0.44087  Biso   1.000  C
  C4       1.0000 0.44149  0.60103  0.37651  Biso   1.000  C
  C5       1.0000 0.48779  0.72353  0.45802  Biso   1.000  C
  C6       1.0000 0.56514  0.70320  0.48793  Biso   1.000  C
  O1       1.0000 0.59820  0.56578  0.43777  Biso   1.000  O
  C7       1.0000 0.40554  0.65218  0.38822  Biso   1.000  C
  H2       1.0000 0.43831  0.54352  0.34447  Biso   1.000  H
  C8       1.0000 0.44967  0.77561  0.46719  Biso   1.000  C
  C9       1.0000 0.52984  0.75578  0.49448  Biso   1.000  C
  S1       1.0000 0.61591  0.74629  0.54009  Biso   1.000  S
  C10      1.0000 0.59497  0.47189  0.39932  Biso   1.000  C
  O2       1.0000 0.36387  0.62643  0.35942  Biso   1.000  O
  C11      1.0000 0.41052  0.74272  0.43342  Biso   1.000  C
  H3       1.0000 0.45230  0.83412  0.49751  Biso   1.000  H
  H4       1.0000 0.53319  0.81471  0.52383  Biso   1.000  H
  O3       1.0000 0.63667  0.67537  0.60108  Biso   1.000  O
  O4       1.0000 0.60908  0.83840  0.57682  Biso   1.000  O
  N1       1.0000 0.64567  0.75678  0.46119  Biso   1.000  N
  H5       1.0000 0.62350  0.44599  0.40097  Biso   1.000  H
  H6       1.0000 0.58029  0.47467  0.33661  Biso   1.000  H
  H7       1.0000 0.57889  0.43193  0.43453  Biso   1.000  H
  C12      1.0000 0.35589  0.54502  0.30023  Biso   1.000  C
  S2       1.0000 0.36488  0.81050  0.45051  Biso   1.000  S
  H8       1.0000 0.66841  0.72160  0.46629  Biso   1.000  H
  C13      1.0000 0.63761  0.81949  0.38340  Biso   1.000  C
  H9       1.0000 0.32531  0.53410  0.28507  Biso   1.000  H
  H10      1.0000 0.36960  0.48987  0.33103  Biso   1.000  H
  H11      1.0000 0.36741  0.55644  0.24469  Biso   1.000  H
  O5       1.0000 0.33997  0.75721  0.50667  Biso   1.000  O
  O6       1.0000 0.38120  0.90318  0.48090  Biso   1.000  O
  N2       1.0000 0.33451  0.82170  0.35122  Biso   1.000  N
  C14      1.0000 0.61786  0.90832  0.38677  Biso   1.000  C
  C15      1.0000 0.65247  0.79238  0.30457  Biso   1.000  C
  H12      1.0000 0.30728  0.80957  0.34550  Biso   1.000  H
  C16      1.0000 0.35242  0.85131  0.27218  Biso   1.000  C
  H13      1.0000 0.60811  0.92822  0.43997  Biso   1.000  H
  C17      1.0000 0.61294  0.96582  0.31043  Biso   1.000  C
  C18      1.0000 0.64758  0.85131  0.22781  Biso   1.000  C
  H14      1.0000 0.66600  0.73352  0.30257  Biso   1.000  H
  C19      1.0000 0.37251  0.93971  0.27039  Biso   1.000  C
  C20      1.0000 0.34753  0.79238  0.19542  Biso   1.000  C
  C21      1.0000 0.62748  0.93971  0.22960  Biso   1.000  C
  H15      1.0000 0.59930  0.02447  0.31270  Biso   1.000  H
  N3       1.0000 0.66549  0.82170  0.14877  Biso   1.000  N
  C22      1.0000 0.38707  0.96582  0.18963  Biso   1.000  C
  H16      1.0000 0.37609  0.97988  0.32138  Biso   1.000  H
  C23      1.0000 0.36239  0.81949  0.11659  Biso   1.000  C
  H17      1.0000 0.33399  0.73352  0.19742  Biso   1.000  H
  H18      1.0000 0.62391  0.97988  0.17861  Biso   1.000  H
  S3       1.0000 0.63512  0.81050  0.04948  Biso   1.000  S
  H19      1.0000 0.69271  0.80957  0.15449  Biso   1.000  H
  C24      1.0000 0.38214  0.90832  0.11321  Biso   1.000  C
  H20      1.0000 0.40070  0.02447  0.18729  Biso   1.000  H
  N4       1.0000 0.35433  0.75678  0.03879  Biso   1.000  N
  C25      1.0000 0.58949  0.74272  0.06663  Biso   1.000  C
  O7       1.0000 0.61880  0.90318  0.01909  Biso   1.000  O
  O8       1.0000 0.66003  0.75721  0.99332  Biso   1.000  O
  H21      1.0000 0.39189  0.92822  0.06002  Biso   1.000  H
  H22      1.0000 0.33159  0.72160  0.03370  Biso   1.000  H
  S4       1.0000 0.38409  0.74629  0.95990  Biso   1.000  S
  C26      1.0000 0.55033  0.77561  0.03280  Biso   1.000  C
  C27      1.0000 0.59445  0.65218  0.11177  Biso   1.000  C
  C28      1.0000 0.43487  0.70320  0.01213  Biso   1.000  C
  O9       1.0000 0.36333  0.67537  0.89891  Biso   1.000  O
  O10      1.0000 0.39092  0.83840  0.92317  Biso   1.000  O
  C29      1.0000 0.51221  0.72353  0.04203  Biso   1.000  C
  H23      1.0000 0.54770  0.83412  0.00248  Biso   1.000  H
  C30      1.0000 0.55851  0.60103  0.12348  Biso   1.000  C
  O11      1.0000 0.63612  0.62643  0.14057  Biso   1.000  O
  C31      1.0000 0.47016  0.75578  0.00551  Biso   1.000  C
  C32      1.0000 0.43954  0.61301  0.05912  Biso   1.000  C
  C33      1.0000 0.51681  0.63449  0.08772  Biso   1.000  C
  H24      1.0000 0.56169  0.54352  0.15552  Biso   1.000  H
  C34      1.0000 0.64411  0.54502  0.19983  Biso   1.000  C
  H25      1.0000 0.46681  0.81471  0.97623  Biso   1.000  H
  O12      1.0000 0.40180  0.56578  0.06222  Biso   1.000  O
  C35      1.0000 0.47940  0.58119  0.09502  Biso   1.000  C
  H26      1.0000 0.67469  0.53410  0.21492  Biso   1.000  H
  H27      1.0000 0.63040  0.48987  0.16903  Biso   1.000  H
  H28      1.0000 0.63259  0.55644  0.25530  Biso   1.000  H
  C36      1.0000 0.40503  0.47189  0.10067  Biso   1.000  C
  H29      1.0000 0.48229  0.52269  0.12507  Biso   1.000  H
  H30      1.0000 0.37650  0.44599  0.09902  Biso   1.000  H
  H31      1.0000 0.41970  0.47467  0.16338  Biso   1.000  H
  H32      1.0000 0.42111  0.43193  0.06553  Biso   1.000  H
  C37      1.0000 0.55851  0.39897  0.62347  Biso   1.000  C
  C38      1.0000 0.51680  0.36551  0.58771  Biso   1.000  C
  C39      1.0000 0.59446  0.34782  0.61183  Biso   1.000  C
  H33      1.0000 0.56169  0.45648  0.65551  Biso   1.000  H
  C40      1.0000 0.51221  0.27647  0.54202  Biso   1.000  C
  C41      1.0000 0.47940  0.41881  0.59501  Biso   1.000  C
  C42      1.0000 0.58949  0.25728  0.56662  Biso   1.000  C
  O13      1.0000 0.63613  0.37357  0.64063  Biso   1.000  O
  C43      1.0000 0.47016  0.24422  0.50550  Biso   1.000  C
  C44      1.0000 0.55033  0.22439  0.53279  Biso   1.000  C
  C45      1.0000 0.43953  0.38699  0.55911  Biso   1.000  C
  H34      1.0000 0.48230  0.47731  0.62512  Biso   1.000  H
  S5       1.0000 0.63512  0.18950  0.54946  Biso   1.000  S
  C46      1.0000 0.64411  0.45498  0.69982  Biso   1.000  C
  C47      1.0000 0.43487  0.29680  0.51212  Biso   1.000  C
  H35      1.0000 0.46681  0.18529  0.47622  Biso   1.000  H
  H36      1.0000 0.54770  0.16588  0.50247  Biso   1.000  H
  O14      1.0000 0.40180  0.43422  0.56221  Biso   1.000  O
  O15      1.0000 0.66003  0.24279  0.49331  Biso   1.000  O
  O16      1.0000 0.61880  0.09682  0.51908  Biso   1.000  O
  N5       1.0000 0.66549  0.17830  0.64883  Biso   1.000  N
  H37      1.0000 0.67469  0.46590  0.71491  Biso   1.000  H
  H38      1.0000 0.63040  0.51013  0.66902  Biso   1.000  H
  H39      1.0000 0.63259  0.44356  0.75529  Biso   1.000  H
  S6       1.0000 0.38409  0.25371  0.45989  Biso   1.000  S
  C48      1.0000 0.40504  0.52811  0.60073  Biso   1.000  C
  H40      1.0000 0.69271  0.19043  0.65448  Biso   1.000  H
  C49      1.0000 0.64758  0.14869  0.72780  Biso   1.000  C
  O17      1.0000 0.36333  0.32463  0.39890  Biso   1.000  O
  O18      1.0000 0.39092  0.16160  0.42323  Biso   1.000  O
  N6       1.0000 0.35433  0.24322  0.53878  Biso   1.000  N
  H41      1.0000 0.37650  0.55401  0.59901  Biso   1.000  H
  H42      1.0000 0.41970  0.52533  0.66337  Biso   1.000  H
  H43      1.0000 0.42111  0.56807  0.56552  Biso   1.000  H
  C50      1.0000 0.62748  0.06029  0.72959  Biso   1.000  C
  C51      1.0000 0.65247  0.20762  0.80463  Biso   1.000  C
  H44      1.0000 0.33159  0.27840  0.53368  Biso   1.000  H
  C52      1.0000 0.36239  0.18051  0.61658  Biso   1.000  C
  C53      1.0000 0.61294  0.03418  0.81041  Biso   1.000  C
  H45      1.0000 0.62391  0.02012  0.67860  Biso   1.000  H
  C54      1.0000 0.63760  0.18051  0.88339  Biso   1.000  C
  H46      1.0000 0.66601  0.26648  0.80263  Biso   1.000  H
  C55      1.0000 0.38214  0.09168  0.61320  Biso   1.000  C
  C56      1.0000 0.34753  0.20762  0.69541  Biso   1.000  C
  C57      1.0000 0.61786  0.09168  0.88683  Biso   1.000  C
  H47      1.0000 0.59929  0.97553  0.81269  Biso   1.000  H
  N7       1.0000 0.64567  0.24322  0.96118  Biso   1.000  N
  H48      1.0000 0.39189  0.07178  0.56001  Biso   1.000  H
  C58      1.0000 0.38707  0.03418  0.68962  Biso   1.000  C
  C59      1.0000 0.35242  0.14869  0.77217  Biso   1.000  C
  H49      1.0000 0.33399  0.26648  0.69741  Biso   1.000  H
  H50      1.0000 0.60811  0.07178  0.94003  Biso   1.000  H
  S7       1.0000 0.61591  0.25371  0.04015  Biso   1.000  S
  H51      1.0000 0.66841  0.27840  0.96628  Biso   1.000  H
  C60      1.0000 0.37251  0.06029  0.77038  Biso   1.000  C
  H52      1.0000 0.40070  0.97553  0.68728  Biso   1.000  H
  N8       1.0000 0.33451  0.17830  0.85121  Biso   1.000  N
  C61      1.0000 0.56513  0.29680  0.98792  Biso   1.000  C
  O19      1.0000 0.63668  0.32463  0.10113  Biso   1.000  O
  O20      1.0000 0.60908  0.16160  0.07681  Biso   1.000  O
  H53      1.0000 0.37609  0.02012  0.82137  Biso   1.000  H
  S8       1.0000 0.36487  0.18950  0.95050  Biso   1.000  S
  H54      1.0000 0.30728  0.19043  0.84549  Biso   1.000  H
  C62      1.0000 0.52984  0.24422  0.99453  Biso   1.000  C
  C63      1.0000 0.56047  0.38699  0.94092  Biso   1.000  C
  O21      1.0000 0.38120  0.09682  0.98089  Biso   1.000  O
  C64      1.0000 0.41052  0.25728  0.93341  Biso   1.000  C
  O22      1.0000 0.33998  0.24279  0.00673  Biso   1.000  O
  C65      1.0000 0.48779  0.27647  0.95801  Biso   1.000  C
  H55      1.0000 0.53319  0.18529  0.02382  Biso   1.000  H
  C66      1.0000 0.52060  0.41881  0.90502  Biso   1.000  C
  O23      1.0000 0.59820  0.43422  0.93782  Biso   1.000  O
  C67      1.0000 0.44967  0.22439  0.96718  Biso   1.000  C
  C68      1.0000 0.40554  0.34782  0.88821  Biso   1.000  C
  C69      1.0000 0.48320  0.36551  0.91233  Biso   1.000  C
  H56      1.0000 0.51771  0.47731  0.87491  Biso   1.000  H
  C70      1.0000 0.59497  0.52811  0.89931  Biso   1.000  C
  H57      1.0000 0.45230  0.16588  0.99750  Biso   1.000  H
  O24      1.0000 0.36387  0.37357  0.85941  Biso   1.000  O
  C71      1.0000 0.44149  0.39897  0.87650  Biso   1.000  C
  H58      1.0000 0.62351  0.55401  0.90103  Biso   1.000  H
  H59      1.0000 0.58029  0.52533  0.83660  Biso   1.000  H
  H60      1.0000 0.57889  0.56807  0.93452  Biso   1.000  H
  C72      1.0000 0.35589  0.45498  0.80022  Biso   1.000  C
  H61      1.0000 0.43832  0.45648  0.84452  Biso   1.000  H
  H62      1.0000 0.32532  0.46590  0.78513  Biso   1.000  H
  H63      1.0000 0.36960  0.51013  0.83102  Biso   1.000  H
  H64      1.0000 0.36741  0.44356  0.74468  Biso   1.000  H
  O25      1.0000 0.83999  0.25721  0.50667  Biso   1.000  O
  S9       1.0000 0.86486  0.31050  0.45051  Biso   1.000  S
  N9       1.0000 0.83453  0.32170  0.35122  Biso   1.000  N
  O26      1.0000 0.88118  0.40318  0.48090  Biso   1.000  O
  C73      1.0000 0.91050  0.24272  0.43342  Biso   1.000  C
  H65      1.0000 0.80730  0.30957  0.34550  Biso   1.000  H
  C74      1.0000 0.85240  0.35131  0.27218  Biso   1.000  C
  C75      1.0000 0.94965  0.27561  0.46719  Biso   1.000  C
  C76      1.0000 0.90553  0.15218  0.38822  Biso   1.000  C
  C77      1.0000 0.87250  0.43971  0.27039  Biso   1.000  C
  C78      1.0000 0.84755  0.29238  0.19542  Biso   1.000  C
  C79      1.0000 0.98778  0.22353  0.45802  Biso   1.000  C
  H66      1.0000 0.95231  0.33412  0.49751  Biso   1.000  H
  O27      1.0000 0.86386  0.12643  0.35942  Biso   1.000  O
  C80      1.0000 0.94151  0.10103  0.37651  Biso   1.000  C
  C81      1.0000 0.88708  0.46582  0.18963  Biso   1.000  C
  H67      1.0000 0.87611  0.47988  0.32138  Biso   1.000  H
  C82      1.0000 0.86238  0.31949  0.11659  Biso   1.000  C
  H68      1.0000 0.83401  0.23352  0.19742  Biso   1.000  H
  C83      1.0000 0.98318  0.13449  0.41227  Biso   1.000  C
  C84      1.0000 0.02982  0.25578  0.49448  Biso   1.000  C
  C85      1.0000 0.85591  0.04502  0.30023  Biso   1.000  C
  H69      1.0000 0.93830  0.04352  0.34447  Biso   1.000  H
  C86      1.0000 0.88216  0.40832  0.11321  Biso   1.000  C
  H70      1.0000 0.90069  0.52447  0.18729  Biso   1.000  H
  N10      1.0000 0.85431  0.25678  0.03879  Biso   1.000  N
  C87      1.0000 0.02058  0.08119  0.40497  Biso   1.000  C
  C88      1.0000 0.06512  0.20320  0.48793  Biso   1.000  C
  H71      1.0000 0.03321  0.31471  0.52383  Biso   1.000  H
  H72      1.0000 0.82530  0.03410  0.28507  Biso   1.000  H
  H73      1.0000 0.86739  0.05644  0.24469  Biso   1.000  H
  H74      1.0000 0.86962  0.98987  0.33103  Biso   1.000  H
  H75      1.0000 0.89191  0.42822  0.06002  Biso   1.000  H
  H76      1.0000 0.83160  0.22160  0.03370  Biso   1.000  H
  S10      1.0000 0.88411  0.24629  0.95990  Biso   1.000  S
  H77      1.0000 0.01769  0.02269  0.37492  Biso   1.000  H
  C89      1.0000 0.06048  0.11301  0.44087  Biso   1.000  C
  S11      1.0000 0.11589  0.24629  0.54009  Biso   1.000  S
  C90      1.0000 0.93488  0.20320  0.01213  Biso   1.000  C
  O28      1.0000 0.86331  0.17537  0.89891  Biso   1.000  O
  O29      1.0000 0.89093  0.33840  0.92317  Biso   1.000  O
  O30      1.0000 0.09822  0.06578  0.43777  Biso   1.000  O
  O31      1.0000 0.13669  0.17537  0.60108  Biso   1.000  O
  O32      1.0000 0.10907  0.33840  0.57682  Biso   1.000  O
  N11      1.0000 0.14569  0.25678  0.46119  Biso   1.000  N
  C91      1.0000 0.97018  0.25578  0.00551  Biso   1.000  C
  C92      1.0000 0.93952  0.11301  0.05912  Biso   1.000  C
  C93      1.0000 0.09498  0.97189  0.39932  Biso   1.000  C
  H78      1.0000 0.16840  0.22160  0.46629  Biso   1.000  H
  C94      1.0000 0.13762  0.31949  0.38340  Biso   1.000  C
  H79      1.0000 0.96680  0.31471  0.97623  Biso   1.000  H
  C95      1.0000 0.01223  0.22353  0.04203  Biso   1.000  C
  O33      1.0000 0.90178  0.06578  0.06222  Biso   1.000  O
  C96      1.0000 0.97941  0.08119  0.09502  Biso   1.000  C
  H80      1.0000 0.12349  0.94599  0.40097  Biso   1.000  H
  H81      1.0000 0.08031  0.97467  0.33661  Biso   1.000  H
  H82      1.0000 0.07891  0.93193  0.43453  Biso   1.000  H
  C97      1.0000 0.11784  0.40832  0.38677  Biso   1.000  C
  C98      1.0000 0.15245  0.29238  0.30457  Biso   1.000  C
  C99      1.0000 0.05034  0.27561  0.03280  Biso   1.000  C
  C100     1.0000 0.01682  0.13449  0.08772  Biso   1.000  C
  C101     1.0000 0.90502  0.97189  0.10067  Biso   1.000  C
  H83      1.0000 0.98231  0.02269  0.12507  Biso   1.000  H
  H84      1.0000 0.10809  0.42822  0.43997  Biso   1.000  H
  C102     1.0000 0.11292  0.46582  0.31043  Biso   1.000  C
  C103     1.0000 0.14759  0.35131  0.22781  Biso   1.000  C
  H85      1.0000 0.16599  0.23352  0.30257  Biso   1.000  H
  H86      1.0000 0.04768  0.33412  0.00248  Biso   1.000  H
  C104     1.0000 0.08950  0.24272  0.06663  Biso   1.000  C
  C105     1.0000 0.05849  0.10103  0.12348  Biso   1.000  C
  H87      1.0000 0.87651  0.94599  0.09902  Biso   1.000  H
  H88      1.0000 0.91969  0.97467  0.16338  Biso   1.000  H
  H89      1.0000 0.92110  0.93193  0.06553  Biso   1.000  H
  H90      1.0000 0.09931  0.52447  0.31270  Biso   1.000  H
  C106     1.0000 0.12750  0.43971  0.22960  Biso   1.000  C
  N12      1.0000 0.16547  0.32170  0.14877  Biso   1.000  N
  S12      1.0000 0.13514  0.31050  0.04948  Biso   1.000  S
  C107     1.0000 0.09447  0.15218  0.11177  Biso   1.000  C
  H91      1.0000 0.06170  0.04352  0.15552  Biso   1.000  H
  H92      1.0000 0.12389  0.47988  0.17861  Biso   1.000  H
  H93      1.0000 0.19270  0.30957  0.15449  Biso   1.000  H
  O34      1.0000 0.16001  0.25721  0.99332  Biso   1.000  O
  O35      1.0000 0.11881  0.40318  0.01909  Biso   1.000  O
  O36      1.0000 0.13614  0.12643  0.14057  Biso   1.000  O
  C108     1.0000 0.14410  0.04502  0.19983  Biso   1.000  C
  H94      1.0000 0.13039  0.98987  0.16903  Biso   1.000  H
  H95      1.0000 0.17470  0.03410  0.21492  Biso   1.000  H
  H96      1.0000 0.13261  0.05644  0.25530  Biso   1.000  H
  O37      1.0000 0.16001  0.74279  0.49331  Biso   1.000  O
  S13      1.0000 0.13514  0.68950  0.54946  Biso   1.000  S
  O38      1.0000 0.11881  0.59682  0.51908  Biso   1.000  O
  N13      1.0000 0.16548  0.67830  0.64883  Biso   1.000  N
  C109     1.0000 0.08950  0.75728  0.56662  Biso   1.000  C
  H97      1.0000 0.19270  0.69043  0.65448  Biso   1.000  H
  C110     1.0000 0.14759  0.64869  0.72780  Biso   1.000  C
  C111     1.0000 0.05034  0.72439  0.53279  Biso   1.000  C
  C112     1.0000 0.09447  0.84782  0.61183  Biso   1.000  C
  C113     1.0000 0.12750  0.56029  0.72959  Biso   1.000  C
  C114     1.0000 0.15246  0.70762  0.80463  Biso   1.000  C
  C115     1.0000 0.01222  0.77647  0.54202  Biso   1.000  C
  H98      1.0000 0.04768  0.66588  0.50247  Biso   1.000  H
  O39      1.0000 0.13614  0.87357  0.64063  Biso   1.000  O
  C116     1.0000 0.05849  0.89897  0.62347  Biso   1.000  C
  C117     1.0000 0.11292  0.53418  0.81041  Biso   1.000  C
  H99      1.0000 0.12389  0.52012  0.67860  Biso   1.000  H
  C118     1.0000 0.13762  0.68051  0.88339  Biso   1.000  C
  H100     1.0000 0.16599  0.76648  0.80263  Biso   1.000  H
  C119     1.0000 0.01682  0.86551  0.58771  Biso   1.000  C
  C120     1.0000 0.97017  0.74422  0.50550  Biso   1.000  C
  C121     1.0000 0.14410  0.95498  0.69982  Biso   1.000  C
  H101     1.0000 0.06170  0.95648  0.65551  Biso   1.000  H
  C122     1.0000 0.11788  0.59168  0.88683  Biso   1.000  C
  H102     1.0000 0.09931  0.47553  0.81269  Biso   1.000  H
  N14      1.0000 0.14569  0.74322  0.96118  Biso   1.000  N
  C123     1.0000 0.97941  0.91881  0.59501  Biso   1.000  C
  C124     1.0000 0.93488  0.79680  0.51212  Biso   1.000  C
  H103     1.0000 0.96680  0.68529  0.47622  Biso   1.000  H
  H104     1.0000 0.17470  0.96590  0.71491  Biso   1.000  H
  H105     1.0000 0.13261  0.94356  0.75529  Biso   1.000  H
  H106     1.0000 0.13039  0.01013  0.66902  Biso   1.000  H
  H107     1.0000 0.10809  0.57178  0.94003  Biso   1.000  H
  H108     1.0000 0.16839  0.77840  0.96628  Biso   1.000  H
  S14      1.0000 0.11590  0.75371  0.04015  Biso   1.000  S
  H109     1.0000 0.98231  0.97731  0.62512  Biso   1.000  H
  C125     1.0000 0.93952  0.88699  0.55911  Biso   1.000  C
  S15      1.0000 0.88410  0.75371  0.45989  Biso   1.000  S
  C126     1.0000 0.06512  0.79680  0.98792  Biso   1.000  C
  O40      1.0000 0.13669  0.82463  0.10113  Biso   1.000  O
  O41      1.0000 0.10906  0.66160  0.07681  Biso   1.000  O
  O42      1.0000 0.90178  0.93422  0.56221  Biso   1.000  O
  O43      1.0000 0.86331  0.82463  0.39890  Biso   1.000  O
  O44      1.0000 0.89094  0.66160  0.42323  Biso   1.000  O
  N15      1.0000 0.85431  0.74322  0.53878  Biso   1.000  N
  C127     1.0000 0.02983  0.74422  0.99453  Biso   1.000  C
  C128     1.0000 0.06048  0.88699  0.94092  Biso   1.000  C
  C129     1.0000 0.90502  0.02811  0.60073  Biso   1.000  C
  H110     1.0000 0.83160  0.77840  0.53368  Biso   1.000  H
  C130     1.0000 0.86238  0.68051  0.61658  Biso   1.000  C
  C131     1.0000 0.98778  0.77647  0.95801  Biso   1.000  C
  H111     1.0000 0.03320  0.68529  0.02382  Biso   1.000  H
  O45      1.0000 0.09822  0.93422  0.93782  Biso   1.000  O
  C132     1.0000 0.02059  0.91881  0.90502  Biso   1.000  C
  H112     1.0000 0.87651  0.05401  0.59901  Biso   1.000  H
  H113     1.0000 0.91969  0.02533  0.66337  Biso   1.000  H
  H114     1.0000 0.92109  0.06807  0.56552  Biso   1.000  H
  C133     1.0000 0.88215  0.59168  0.61320  Biso   1.000  C
  C134     1.0000 0.84754  0.70762  0.69541  Biso   1.000  C
  C135     1.0000 0.94965  0.72439  0.96718  Biso   1.000  C
  C136     1.0000 0.98318  0.86551  0.91233  Biso   1.000  C
  C137     1.0000 0.09498  0.02811  0.89931  Biso   1.000  C
  H115     1.0000 0.01769  0.97731  0.87491  Biso   1.000  H
  H116     1.0000 0.89191  0.57178  0.56001  Biso   1.000  H
  C138     1.0000 0.88708  0.53418  0.68962  Biso   1.000  C
  C139     1.0000 0.85240  0.64869  0.77217  Biso   1.000  C
  H117     1.0000 0.83401  0.76648  0.69741  Biso   1.000  H
  H118     1.0000 0.95231  0.66588  0.99750  Biso   1.000  H
  C140     1.0000 0.91050  0.75728  0.93341  Biso   1.000  C
  C141     1.0000 0.94150  0.89897  0.87650  Biso   1.000  C
  H119     1.0000 0.12349  0.05401  0.90103  Biso   1.000  H
  H120     1.0000 0.08031  0.02533  0.83660  Biso   1.000  H
  H121     1.0000 0.07891  0.06807  0.93452  Biso   1.000  H
  H122     1.0000 0.90069  0.47553  0.68728  Biso   1.000  H
  C142     1.0000 0.87250  0.56029  0.77038  Biso   1.000  C
  N16      1.0000 0.83452  0.67830  0.85121  Biso   1.000  N
  S16      1.0000 0.86486  0.68950  0.95050  Biso   1.000  S
  C143     1.0000 0.90553  0.84782  0.88821  Biso   1.000  C
  H123     1.0000 0.93830  0.95648  0.84452  Biso   1.000  H
  H124     1.0000 0.87610  0.52012  0.82137  Biso   1.000  H
  H125     1.0000 0.80730  0.69043  0.84549  Biso   1.000  H
  O46      1.0000 0.88122  0.59682  0.98089  Biso   1.000  O
  O47      1.0000 0.83999  0.74279  0.00673  Biso   1.000  O
  O48      1.0000 0.86386  0.87357  0.85941  Biso   1.000  O
  C144     1.0000 0.85591  0.95498  0.80022  Biso   1.000  C
  H126     1.0000 0.82530  0.96590  0.78513  Biso   1.000  H
  H127     1.0000 0.86739  0.94356  0.74468  Biso   1.000  H
  H128     1.0000 0.86961  0.01013  0.83102  Biso   1.000  H
