data_image0
_cell_length_a       12.697
_cell_length_b       19.087
_cell_length_c       31.168
_cell_angle_alpha    90
_cell_angle_beta     90
_cell_angle_gamma    90

_symmetry_space_group_name_H-M    "P 1"
_symmetry_int_tables_number       1

loop_
  _symmetry_equiv_pos_as_xyz
  'x, y, z'

loop_
  _atom_site_label
  _atom_site_occupancy
  _atom_site_fract_x
  _atom_site_fract_y
  _atom_site_fract_z
  _atom_site_thermal_displace_type
  _atom_site_B_iso_or_equiv
  _atom_site_type_symbol
  N1       1.0000 0.77286  0.78289  0.22751  Biso   1.000  N
  C1       1.0000 0.76089  0.72510  0.20720  Biso   1.000  C
  C2       1.0000 0.87099  0.78797  0.25270  Biso   1.000  C
  C3       1.0000 0.66386  0.70760  0.18179  Biso   1.000  C
  H1       1.0000 0.81610  0.69157  0.20829  Biso   1.000  H
  C4       1.0000 0.93250  0.85058  0.23412  Biso   1.000  C
  H2       1.0000 0.91258  0.74428  0.25000  Biso   1.000  H
  H3       1.0000 0.85485  0.79578  0.28340  Biso   1.000  H
  C5       1.0000 0.65291  0.64049  0.16742  Biso   1.000  C
  C6       1.0000 0.58880  0.75690  0.17342  Biso   1.000  C
  N2       1.0000 0.98511  0.83308  0.19491  Biso   1.000  N
  H4       1.0000 0.88312  0.88977  0.22870  Biso   1.000  H
  H5       1.0000 0.98511  0.86656  0.25529  Biso   1.000  H
  C7       1.0000 0.56320  0.62147  0.14512  Biso   1.000  C
  H6       1.0000 0.70670  0.60701  0.17261  Biso   1.000  H
  C8       1.0000 0.49941  0.73919  0.14980  Biso   1.000  C
  H7       1.0000 0.59746  0.80337  0.18371  Biso   1.000  H
  C9       1.0000 0.08498  0.79520  0.20229  Biso   1.000  C
  C10      1.0000 0.00158  0.89569  0.16960  Biso   1.000  C
  C11      1.0000 0.48437  0.67140  0.13581  Biso   1.000  C
  H8       1.0000 0.55446  0.57437  0.13591  Biso   1.000  H
  H9       1.0000 0.44853  0.77409  0.14329  Biso   1.000  H
  C12      1.0000 0.11601  0.75088  0.16369  Biso   1.000  C
  H10      1.0000 0.07742  0.76460  0.22770  Biso   1.000  H
  H11      1.0000 0.14161  0.82936  0.20829  Biso   1.000  H
  C13      1.0000 0.90391  0.91570  0.14431  Biso   1.000  C
  H12      1.0000 0.06080  0.88788  0.14951  Biso   1.000  H
  H13      1.0000 0.02111  0.93477  0.18891  Biso   1.000  H
  C14      1.0000 0.39143  0.65097  0.10979  Biso   1.000  C
  N3       1.0000 0.04970  0.68586  0.16190  Biso   1.000  N
  H14      1.0000 0.10632  0.77828  0.13710  Biso   1.000  H
  H15      1.0000 0.19131  0.73778  0.16591  Biso   1.000  H
  N4       1.0000 0.89415  0.87237  0.10559  Biso   1.000  N
  H16      1.0000 0.84067  0.90926  0.16251  Biso   1.000  H
  H17      1.0000 0.90801  0.96568  0.13610  Biso   1.000  H
  C15      1.0000 0.33000  0.59150  0.11942  Biso   1.000  C
  C16      1.0000 0.36670  0.69057  0.07299  Biso   1.000  C
  C17      1.0000 0.99898  0.67538  0.12830  Biso   1.000  C
  C18      1.0000 0.81051  0.83486  0.10180  Biso   1.000  C
  C19      1.0000 0.24801  0.57159  0.09539  Biso   1.000  C
  H18      1.0000 0.34772  0.56431  0.14390  Biso   1.000  H
  C20      1.0000 0.27967  0.67140  0.04809  Biso   1.000  C
  H19      1.0000 0.40860  0.72976  0.06520  Biso   1.000  H
  C21      1.0000 0.93518  0.61450  0.12089  Biso   1.000  C
  H20      1.0000 0.00268  0.70970  0.10620  Biso   1.000  H
  H21      1.0000 0.75979  0.83497  0.12420  Biso   1.000  H
  C22      1.0000 0.79200  0.79201  0.06359  Biso   1.000  C
  C23      1.0000 0.18469  0.50788  0.10479  Biso   1.000  C
  C24      1.0000 0.22076  0.61141  0.05820  Biso   1.000  C
  C25      1.0000 0.25573  0.71368  0.00860  Biso   1.000  C
  C26      1.0000 0.91250  0.56457  0.15372  Biso   1.000  C
  C27      1.0000 0.89667  0.59947  0.08092  Biso   1.000  C
  C28      1.0000 0.86682  0.78126  0.03340  Biso   1.000  C
  C29      1.0000 0.69142  0.75957  0.05910  Biso   1.000  C
  C30      1.0000 0.15004  0.49447  0.14569  Biso   1.000  C
  C31      1.0000 0.16342  0.46000  0.07200  Biso   1.000  C
  H22      1.0000 0.16358  0.59737  0.04049  Biso   1.000  H
  C32      1.0000 0.15681  0.74129  0.00260  Biso   1.000  C
  C33      1.0000 0.33110  0.72421  0.97712  Biso   1.000  C
  C34      1.0000 0.84996  0.50547  0.14569  Biso   1.000  C
  H23      1.0000 0.94038  0.57159  0.18169  Biso   1.000  H
  C35      1.0000 0.83658  0.54000  0.07200  Biso   1.000  C
  H24      1.0000 0.91155  0.63101  0.05810  Biso   1.000  H
  H25      1.0000 0.93502  0.80096  0.03670  Biso   1.000  H
  C36      1.0000 0.84319  0.74129  0.99740  Biso   1.000  C
  C37      1.0000 0.66890  0.72421  0.02291  Biso   1.000  C
  H26      1.0000 0.64086  0.76277  0.08149  Biso   1.000  H
  C38      1.0000 0.08750  0.43537  0.15372  Biso   1.000  C
  H27      1.0000 0.16831  0.52517  0.16851  Biso   1.000  H
  C39      1.0000 0.10333  0.40048  0.08092  Biso   1.000  C
  H28      1.0000 0.18957  0.46791  0.04379  Biso   1.000  H
  H29      1.0000 0.10373  0.73291  0.02339  Biso   1.000  H
  C40      1.0000 0.13318  0.78126  0.96660  Biso   1.000  C
  H30      1.0000 0.40002  0.70608  0.98120  Biso   1.000  H
  C41      1.0000 0.30858  0.75957  0.94090  Biso   1.000  C
  C42      1.0000 0.81531  0.49212  0.10479  Biso   1.000  C
  H31      1.0000 0.83169  0.47477  0.16851  Biso   1.000  H
  H32      1.0000 0.81035  0.53209  0.04379  Biso   1.000  H
  H33      1.0000 0.89627  0.73291  0.97661  Biso   1.000  H
  C43      1.0000 0.74427  0.71368  0.99140  Biso   1.000  C
  H34      1.0000 0.59998  0.70608  0.01880  Biso   1.000  H
  C44      1.0000 0.06482  0.38550  0.12089  Biso   1.000  C
  H35      1.0000 0.05962  0.42841  0.18169  Biso   1.000  H
  H36      1.0000 0.08837  0.36899  0.05810  Biso   1.000  H
  C45      1.0000 0.20800  0.79201  0.93641  Biso   1.000  C
  H37      1.0000 0.06498  0.80096  0.96333  Biso   1.000  H
  H38      1.0000 0.35906  0.76277  0.91851  Biso   1.000  H
  C46      1.0000 0.75199  0.42841  0.09539  Biso   1.000  C
  C47      1.0000 0.72033  0.67140  0.95191  Biso   1.000  C
  C48      1.0000 0.00102  0.32462  0.12830  Biso   1.000  C
  C49      1.0000 0.18949  0.83486  0.89820  Biso   1.000  C
  C50      1.0000 0.67000  0.40850  0.11942  Biso   1.000  C
  C51      1.0000 0.77916  0.38859  0.05820  Biso   1.000  C
  C52      1.0000 0.77916  0.61141  0.94180  Biso   1.000  C
  C53      1.0000 0.63330  0.69057  0.92701  Biso   1.000  C
  N5       1.0000 0.95030  0.31409  0.16190  Biso   1.000  N
  H39      1.0000 0.99732  0.29030  0.10620  Biso   1.000  H
  N6       1.0000 0.10577  0.87237  0.89441  Biso   1.000  N
  H40      1.0000 0.24021  0.83497  0.87580  Biso   1.000  H
  C54      1.0000 0.60857  0.34898  0.10979  Biso   1.000  C
  H41      1.0000 0.65228  0.43569  0.14390  Biso   1.000  H
  C55      1.0000 0.72033  0.32860  0.04809  Biso   1.000  C
  H42      1.0000 0.83642  0.40258  0.04049  Biso   1.000  H
  C56      1.0000 0.75199  0.57159  0.90461  Biso   1.000  C
  H43      1.0000 0.83642  0.59737  0.95951  Biso   1.000  H
  C57      1.0000 0.60857  0.65097  0.89021  Biso   1.000  C
  H44      1.0000 0.59140  0.72976  0.93480  Biso   1.000  H
  C58      1.0000 0.88399  0.24907  0.16369  Biso   1.000  C
  C59      1.0000 0.09609  0.91570  0.85572  Biso   1.000  C
  C60      1.0000 0.51555  0.32860  0.13581  Biso   1.000  C
  C61      1.0000 0.63330  0.30937  0.07299  Biso   1.000  C
  C62      1.0000 0.74427  0.28627  0.00860  Biso   1.000  C
  C63      1.0000 0.81531  0.50788  0.89521  Biso   1.000  C
  C64      1.0000 0.67000  0.59150  0.88061  Biso   1.000  C
  C65      1.0000 0.51555  0.67140  0.86422  Biso   1.000  C
  C66      1.0000 0.91502  0.20480  0.20229  Biso   1.000  C
  H45      1.0000 0.89368  0.22167  0.13710  Biso   1.000  H
  H46      1.0000 0.80869  0.26222  0.16591  Biso   1.000  H
  C67      1.0000 0.99835  0.89569  0.83040  Biso   1.000  C
  H47      1.0000 0.15933  0.90926  0.83753  Biso   1.000  H
  H48      1.0000 0.09199  0.96568  0.86390  Biso   1.000  H
  C68      1.0000 0.43680  0.37848  0.14512  Biso   1.000  C
  C69      1.0000 0.50059  0.26081  0.14980  Biso   1.000  C
  H49      1.0000 0.59140  0.27018  0.06520  Biso   1.000  H
  C70      1.0000 0.84319  0.25871  0.00260  Biso   1.000  C
  C71      1.0000 0.66890  0.27579  0.97712  Biso   1.000  C
  C72      1.0000 0.84996  0.49447  0.85431  Biso   1.000  C
  C73      1.0000 0.83658  0.46000  0.92800  Biso   1.000  C
  H50      1.0000 0.65228  0.56431  0.85610  Biso   1.000  H
  C74      1.0000 0.43680  0.62147  0.85492  Biso   1.000  C
  C75      1.0000 0.50059  0.73919  0.85020  Biso   1.000  C
  N7       1.0000 0.01489  0.16692  0.19491  Biso   1.000  N
  H51      1.0000 0.92258  0.23540  0.22770  Biso   1.000  H
  H52      1.0000 0.85839  0.17059  0.20829  Biso   1.000  H
  H53      1.0000 0.93920  0.88788  0.85052  Biso   1.000  H
  H54      1.0000 0.97889  0.93477  0.81112  Biso   1.000  H
  N8       1.0000 0.01489  0.83308  0.80512  Biso   1.000  N
  C76      1.0000 0.34709  0.35951  0.16742  Biso   1.000  C
  H55      1.0000 0.44546  0.42558  0.13591  Biso   1.000  H
  C77      1.0000 0.41120  0.24310  0.17342  Biso   1.000  C
  H56      1.0000 0.55147  0.22591  0.14329  Biso   1.000  H
  H57      1.0000 0.89627  0.26709  0.02339  Biso   1.000  H
  C78      1.0000 0.86682  0.21868  0.96660  Biso   1.000  C
  H58      1.0000 0.59998  0.29392  0.98120  Biso   1.000  H
  C79      1.0000 0.69142  0.24037  0.94090  Biso   1.000  C
  C80      1.0000 0.91250  0.43537  0.84632  Biso   1.000  C
  H59      1.0000 0.83169  0.52517  0.83153  Biso   1.000  H
  C81      1.0000 0.89667  0.40048  0.91912  Biso   1.000  C
  H60      1.0000 0.81035  0.46791  0.95621  Biso   1.000  H
  C82      1.0000 0.34709  0.64049  0.83262  Biso   1.000  C
  H61      1.0000 0.44546  0.57437  0.86412  Biso   1.000  H
  C83      1.0000 0.41120  0.75690  0.82662  Biso   1.000  C
  H62      1.0000 0.55147  0.77409  0.85671  Biso   1.000  H
  C84      1.0000 0.06750  0.14942  0.23412  Biso   1.000  C
  C85      1.0000 0.99835  0.10431  0.16960  Biso   1.000  C
  C86      1.0000 0.91502  0.79520  0.79771  Biso   1.000  C
  C87      1.0000 0.06750  0.85058  0.76591  Biso   1.000  C
  C88      1.0000 0.33606  0.29240  0.18179  Biso   1.000  C
  H63      1.0000 0.29330  0.39299  0.17261  Biso   1.000  H
  H64      1.0000 0.40246  0.19657  0.18371  Biso   1.000  H
  C89      1.0000 0.79200  0.20799  0.93641  Biso   1.000  C
  H65      1.0000 0.93502  0.19898  0.96333  Biso   1.000  H
  H66      1.0000 0.64086  0.23718  0.91851  Biso   1.000  H
  C90      1.0000 0.93518  0.38550  0.87911  Biso   1.000  C
  H67      1.0000 0.94038  0.42841  0.81831  Biso   1.000  H
  H68      1.0000 0.91155  0.36899  0.94193  Biso   1.000  H
  C91      1.0000 0.33606  0.70760  0.81821  Biso   1.000  C
  H69      1.0000 0.29330  0.60701  0.82742  Biso   1.000  H
  H70      1.0000 0.40246  0.80337  0.81632  Biso   1.000  H
  C92      1.0000 0.12901  0.21198  0.25270  Biso   1.000  C
  H71      1.0000 0.11688  0.11018  0.22870  Biso   1.000  H
  H72      1.0000 0.01489  0.13339  0.25529  Biso   1.000  H
  C93      1.0000 0.09609  0.08430  0.14431  Biso   1.000  C
  H73      1.0000 0.93920  0.11212  0.14951  Biso   1.000  H
  H74      1.0000 0.97889  0.06518  0.18891  Biso   1.000  H
  C94      1.0000 0.88399  0.75088  0.83631  Biso   1.000  C
  H75      1.0000 0.92258  0.76460  0.77230  Biso   1.000  H
  H76      1.0000 0.85839  0.82936  0.79171  Biso   1.000  H
  H77      1.0000 0.11688  0.88977  0.77130  Biso   1.000  H
  H78      1.0000 0.01489  0.86656  0.74471  Biso   1.000  H
  C95      1.0000 0.12901  0.78797  0.74730  Biso   1.000  C
  C96      1.0000 0.23911  0.27490  0.20720  Biso   1.000  C
  C97      1.0000 0.81051  0.16509  0.89820  Biso   1.000  C
  C98      1.0000 0.99898  0.32462  0.87170  Biso   1.000  C
  C99      1.0000 0.23911  0.72510  0.79280  Biso   1.000  C
  N9       1.0000 0.22706  0.21711  0.22751  Biso   1.000  N
  H79      1.0000 0.08742  0.25567  0.25000  Biso   1.000  H
  H80      1.0000 0.14507  0.20417  0.28340  Biso   1.000  H
  N10      1.0000 0.10577  0.12757  0.10559  Biso   1.000  N
  H81      1.0000 0.15933  0.09069  0.16251  Biso   1.000  H
  H82      1.0000 0.09199  0.03432  0.13610  Biso   1.000  H
  N11      1.0000 0.95030  0.68586  0.83810  Biso   1.000  N
  H83      1.0000 0.89368  0.77828  0.86290  Biso   1.000  H
  H84      1.0000 0.80869  0.73778  0.83412  Biso   1.000  H
  N12      1.0000 0.22706  0.78289  0.77252  Biso   1.000  N
  H85      1.0000 0.08742  0.74428  0.75000  Biso   1.000  H
  H86      1.0000 0.14507  0.79578  0.71660  Biso   1.000  H
  H87      1.0000 0.18390  0.30838  0.20829  Biso   1.000  H
  N13      1.0000 0.89415  0.12757  0.89441  Biso   1.000  N
  H88      1.0000 0.75979  0.16498  0.87580  Biso   1.000  H
  N14      1.0000 0.04970  0.31409  0.83810  Biso   1.000  N
  H89      1.0000 0.00268  0.29030  0.89380  Biso   1.000  H
  H90      1.0000 0.18390  0.69157  0.79171  Biso   1.000  H
  C100     1.0000 0.18949  0.16509  0.10180  Biso   1.000  C
  C101     1.0000 0.00102  0.67538  0.87170  Biso   1.000  C
  C102     1.0000 0.90391  0.08430  0.85572  Biso   1.000  C
  C103     1.0000 0.11601  0.24907  0.83631  Biso   1.000  C
  H91      1.0000 0.24021  0.16498  0.12420  Biso   1.000  H
  C104     1.0000 0.20800  0.20799  0.06359  Biso   1.000  C
  C105     1.0000 0.06482  0.61450  0.87911  Biso   1.000  C
  H92      1.0000 0.99732  0.70970  0.89380  Biso   1.000  H
  H93      1.0000 0.84067  0.09069  0.83753  Biso   1.000  H
  H94      1.0000 0.90801  0.03432  0.86390  Biso   1.000  H
  C106     1.0000 0.00158  0.10431  0.83040  Biso   1.000  C
  C107     1.0000 0.08498  0.20480  0.79771  Biso   1.000  C
  H95      1.0000 0.10632  0.22167  0.86290  Biso   1.000  H
  H96      1.0000 0.19131  0.26222  0.83412  Biso   1.000  H
  C108     1.0000 0.13318  0.21868  0.03340  Biso   1.000  C
  C109     1.0000 0.30858  0.24037  0.05910  Biso   1.000  C
  C110     1.0000 0.08750  0.56457  0.84632  Biso   1.000  C
  C111     1.0000 0.10333  0.59947  0.91912  Biso   1.000  C
  N15      1.0000 0.98511  0.16692  0.80512  Biso   1.000  N
  H97      1.0000 0.06080  0.11212  0.85052  Biso   1.000  H
  H98      1.0000 0.02111  0.06518  0.81112  Biso   1.000  H
  H99      1.0000 0.07742  0.23540  0.77230  Biso   1.000  H
  H100     1.0000 0.14161  0.17059  0.79171  Biso   1.000  H
  H101     1.0000 0.06498  0.19898  0.03670  Biso   1.000  H
  C112     1.0000 0.15681  0.25871  0.99740  Biso   1.000  C
  C113     1.0000 0.33110  0.27579  0.02291  Biso   1.000  C
  H102     1.0000 0.35906  0.23718  0.08149  Biso   1.000  H
  C114     1.0000 0.15004  0.50547  0.85431  Biso   1.000  C
  H103     1.0000 0.05962  0.57159  0.81831  Biso   1.000  H
  C115     1.0000 0.16342  0.54000  0.92800  Biso   1.000  C
  H104     1.0000 0.08837  0.63101  0.94193  Biso   1.000  H
  C116     1.0000 0.93250  0.14942  0.76591  Biso   1.000  C
  H105     1.0000 0.10373  0.26709  0.97661  Biso   1.000  H
  C117     1.0000 0.25573  0.28627  0.99140  Biso   1.000  C
  H106     1.0000 0.40002  0.29392  0.01880  Biso   1.000  H
  C118     1.0000 0.18469  0.49212  0.89521  Biso   1.000  C
  H107     1.0000 0.16831  0.47477  0.83153  Biso   1.000  H
  H108     1.0000 0.18957  0.53209  0.95621  Biso   1.000  H
  H109     1.0000 0.88312  0.11018  0.77130  Biso   1.000  H
  H110     1.0000 0.98511  0.13339  0.74471  Biso   1.000  H
  C119     1.0000 0.87099  0.21198  0.74730  Biso   1.000  C
  C120     1.0000 0.27967  0.32860  0.95191  Biso   1.000  C
  C121     1.0000 0.24801  0.42841  0.90461  Biso   1.000  C
  N16      1.0000 0.77286  0.21711  0.77252  Biso   1.000  N
  H111     1.0000 0.91258  0.25567  0.75000  Biso   1.000  H
  H112     1.0000 0.85485  0.20417  0.71660  Biso   1.000  H
  C122     1.0000 0.22076  0.38859  0.94180  Biso   1.000  C
  C123     1.0000 0.36670  0.30937  0.92701  Biso   1.000  C
  C124     1.0000 0.33000  0.40850  0.88061  Biso   1.000  C
  C125     1.0000 0.76089  0.27490  0.79280  Biso   1.000  C
  H113     1.0000 0.16358  0.40258  0.95951  Biso   1.000  H
  C126     1.0000 0.39143  0.34898  0.89021  Biso   1.000  C
  H114     1.0000 0.40860  0.27018  0.93480  Biso   1.000  H
  H115     1.0000 0.34772  0.43569  0.85610  Biso   1.000  H
  C127     1.0000 0.66386  0.29240  0.81821  Biso   1.000  C
  H116     1.0000 0.81610  0.30838  0.79171  Biso   1.000  H
  C128     1.0000 0.48437  0.32860  0.86422  Biso   1.000  C
  C129     1.0000 0.65291  0.35951  0.83262  Biso   1.000  C
  C130     1.0000 0.58880  0.24310  0.82662  Biso   1.000  C
  C131     1.0000 0.56320  0.37848  0.85492  Biso   1.000  C
  C132     1.0000 0.49941  0.26081  0.85020  Biso   1.000  C
  H117     1.0000 0.70670  0.39299  0.82742  Biso   1.000  H
  H118     1.0000 0.59746  0.19657  0.81632  Biso   1.000  H
  H119     1.0000 0.55446  0.42558  0.86412  Biso   1.000  H
  H120     1.0000 0.44853  0.22591  0.85671  Biso   1.000  H
  C133     1.0000 0.99937  0.76078  0.35020  Biso   1.000  C
  C134     1.0000 0.98441  0.82857  0.36422  Biso   1.000  C
  H121     1.0000 0.94849  0.72589  0.35671  Biso   1.000  H
  C135     1.0000 0.08876  0.74307  0.32662  Biso   1.000  C
  C136     1.0000 0.89139  0.84901  0.39021  Biso   1.000  C
  C137     1.0000 0.06316  0.87850  0.35492  Biso   1.000  C
  C138     1.0000 0.16390  0.79237  0.31821  Biso   1.000  C
  H122     1.0000 0.09750  0.69660  0.31632  Biso   1.000  H
  C139     1.0000 0.86666  0.80940  0.42701  Biso   1.000  C
  C140     1.0000 0.82996  0.90847  0.38061  Biso   1.000  C
  H123     1.0000 0.05450  0.92560  0.36409  Biso   1.000  H
  C141     1.0000 0.15287  0.85949  0.33262  Biso   1.000  C
  C142     1.0000 0.26093  0.77487  0.29280  Biso   1.000  C
  C143     1.0000 0.77971  0.82857  0.45191  Biso   1.000  C
  H124     1.0000 0.90856  0.77016  0.43480  Biso   1.000  H
  C144     1.0000 0.74797  0.92838  0.40461  Biso   1.000  C
  H125     1.0000 0.84768  0.93566  0.35610  Biso   1.000  H
  H126     1.0000 0.20666  0.89296  0.32742  Biso   1.000  H
  N17      1.0000 0.27290  0.71708  0.27249  Biso   1.000  N
  H127     1.0000 0.31606  0.80840  0.29171  Biso   1.000  H
  C145     1.0000 0.75569  0.78629  0.49140  Biso   1.000  C
  C146     1.0000 0.72080  0.88856  0.44180  Biso   1.000  C
  C147     1.0000 0.68465  0.99209  0.39521  Biso   1.000  C
  C148     1.0000 0.37103  0.71200  0.24730  Biso   1.000  C
  C149     1.0000 0.65677  0.75868  0.49740  Biso   1.000  C
  C150     1.0000 0.83106  0.77576  0.52291  Biso   1.000  C
  H128     1.0000 0.66362  0.90260  0.45951  Biso   1.000  H
  C151     1.0000 0.65000  0.00550  0.35431  Biso   1.000  C
  C152     1.0000 0.66339  0.03997  0.42800  Biso   1.000  C
  C153     1.0000 0.43246  0.64939  0.26591  Biso   1.000  C
  H129     1.0000 0.41262  0.75570  0.25000  Biso   1.000  H
  H130     1.0000 0.35489  0.70420  0.21660  Biso   1.000  H
  C154     1.0000 0.63322  0.71871  0.53340  Biso   1.000  C
  H131     1.0000 0.60369  0.76707  0.47661  Biso   1.000  H
  C155     1.0000 0.80862  0.74040  0.55910  Biso   1.000  C
  H132     1.0000 0.89998  0.79389  0.51880  Biso   1.000  H
  H133     1.0000 0.66827  0.97480  0.33149  Biso   1.000  H
  C156     1.0000 0.58746  0.06460  0.34632  Biso   1.000  C
  H134     1.0000 0.68961  0.03212  0.45621  Biso   1.000  H
  C157     1.0000 0.60329  0.09949  0.41912  Biso   1.000  C
  N18      1.0000 0.48508  0.66689  0.30509  Biso   1.000  N
  H135     1.0000 0.38308  0.61021  0.27130  Biso   1.000  H
  H136     1.0000 0.48508  0.63336  0.24471  Biso   1.000  H
  C158     1.0000 0.70796  0.70797  0.56362  Biso   1.000  C
  H137     1.0000 0.56502  0.69901  0.53670  Biso   1.000  H
  H138     1.0000 0.85910  0.73720  0.58149  Biso   1.000  H
  H139     1.0000 0.55958  0.07162  0.31831  Biso   1.000  H
  C159     1.0000 0.56478  0.11448  0.37911  Biso   1.000  C
  H140     1.0000 0.58841  0.13098  0.44190  Biso   1.000  H
  C160     1.0000 0.58502  0.70477  0.29771  Biso   1.000  C
  C161     1.0000 0.50161  0.60429  0.33040  Biso   1.000  C
  C162     1.0000 0.68945  0.66506  0.60180  Biso   1.000  C
  C163     1.0000 0.50098  0.17541  0.37170  Biso   1.000  C
  C164     1.0000 0.61597  0.74910  0.33631  Biso   1.000  C
  H141     1.0000 0.57738  0.73537  0.27230  Biso   1.000  H
  H142     1.0000 0.64157  0.67056  0.29171  Biso   1.000  H
  H143     1.0000 0.56076  0.61209  0.35052  Biso   1.000  H
  H144     1.0000 0.52107  0.56520  0.31109  Biso   1.000  H
  C165     1.0000 0.40387  0.58427  0.35572  Biso   1.000  C
  N19      1.0000 0.60581  0.62760  0.60562  Biso   1.000  N
  H145     1.0000 0.74017  0.66501  0.62420  Biso   1.000  H
  N20      1.0000 0.45026  0.18589  0.33810  Biso   1.000  N
  H146     1.0000 0.49728  0.20967  0.39380  Biso   1.000  H
  N21      1.0000 0.54966  0.81406  0.33810  Biso   1.000  N
  H147     1.0000 0.60628  0.72170  0.36290  Biso   1.000  H
  H148     1.0000 0.69127  0.76219  0.33409  Biso   1.000  H
  N22      1.0000 0.39419  0.62760  0.39441  Biso   1.000  N
  H149     1.0000 0.34071  0.59066  0.33749  Biso   1.000  H
  H150     1.0000 0.40797  0.53429  0.36390  Biso   1.000  H
  C166     1.0000 0.59613  0.58427  0.64431  Biso   1.000  C
  C167     1.0000 0.38403  0.25090  0.33631  Biso   1.000  C
  C168     1.0000 0.49902  0.82459  0.37170  Biso   1.000  C
  C169     1.0000 0.31047  0.66506  0.39820  Biso   1.000  C
  C170     1.0000 0.49839  0.60429  0.66960  Biso   1.000  C
  H151     1.0000 0.65929  0.59066  0.66251  Biso   1.000  H
  H152     1.0000 0.59203  0.53429  0.63610  Biso   1.000  H
  H153     1.0000 0.39372  0.27830  0.36290  Biso   1.000  H
  H154     1.0000 0.30873  0.23781  0.33409  Biso   1.000  H
  C171     1.0000 0.41498  0.29517  0.29771  Biso   1.000  C
  C172     1.0000 0.43522  0.88547  0.37911  Biso   1.000  C
  H155     1.0000 0.50272  0.79028  0.39380  Biso   1.000  H
  H156     1.0000 0.25983  0.66501  0.37580  Biso   1.000  H
  C173     1.0000 0.29196  0.70797  0.43641  Biso   1.000  C
  N23      1.0000 0.51492  0.66689  0.69491  Biso   1.000  N
  H157     1.0000 0.43916  0.61209  0.64951  Biso   1.000  H
  H158     1.0000 0.47885  0.56520  0.68891  Biso   1.000  H
  N24      1.0000 0.51492  0.33311  0.30509  Biso   1.000  N
  H159     1.0000 0.42262  0.26458  0.27230  Biso   1.000  H
  H160     1.0000 0.35843  0.32939  0.29171  Biso   1.000  H
  C174     1.0000 0.41246  0.93540  0.34632  Biso   1.000  C
  C175     1.0000 0.39671  0.90046  0.41912  Biso   1.000  C
  C176     1.0000 0.36678  0.71871  0.46660  Biso   1.000  C
  C177     1.0000 0.19138  0.74040  0.44090  Biso   1.000  C
  C178     1.0000 0.41498  0.70477  0.70232  Biso   1.000  C
  C179     1.0000 0.56746  0.64939  0.73412  Biso   1.000  C
  C180     1.0000 0.56746  0.35061  0.26591  Biso   1.000  C
  C181     1.0000 0.49839  0.39571  0.33040  Biso   1.000  C
  H161     1.0000 0.44042  0.92838  0.31831  Biso   1.000  H
  C182     1.0000 0.35000  0.99450  0.35431  Biso   1.000  C
  C183     1.0000 0.33661  0.95997  0.42800  Biso   1.000  C
  H162     1.0000 0.41159  0.86897  0.44190  Biso   1.000  H
  C184     1.0000 0.34323  0.75868  0.50260  Biso   1.000  C
  H163     1.0000 0.43498  0.69901  0.46330  Biso   1.000  H
  C185     1.0000 0.16886  0.77576  0.47709  Biso   1.000  C
  H164     1.0000 0.14090  0.73720  0.41851  Biso   1.000  H
  C186     1.0000 0.38403  0.74910  0.66369  Biso   1.000  C
  H165     1.0000 0.42262  0.73537  0.72770  Biso   1.000  H
  H166     1.0000 0.35843  0.67056  0.70832  Biso   1.000  H
  H167     1.0000 0.61692  0.61021  0.72870  Biso   1.000  H
  H168     1.0000 0.51492  0.63336  0.75529  Biso   1.000  H
  C187     1.0000 0.62897  0.71200  0.75270  Biso   1.000  C
  H169     1.0000 0.61692  0.38979  0.27130  Biso   1.000  H
  H170     1.0000 0.51492  0.36658  0.24471  Biso   1.000  H
  C188     1.0000 0.62897  0.28800  0.24730  Biso   1.000  C
  H171     1.0000 0.43916  0.38791  0.35052  Biso   1.000  H
  H172     1.0000 0.47885  0.43480  0.31109  Biso   1.000  H
  C189     1.0000 0.59613  0.41568  0.35572  Biso   1.000  C
  H173     1.0000 0.33173  0.02520  0.33149  Biso   1.000  H
  C190     1.0000 0.31527  0.00791  0.39521  Biso   1.000  C
  H174     1.0000 0.31039  0.96788  0.45621  Biso   1.000  H
  C191     1.0000 0.24431  0.78629  0.50860  Biso   1.000  C
  H175     1.0000 0.39631  0.76707  0.52342  Biso   1.000  H
  H176     1.0000 0.10002  0.79389  0.48120  Biso   1.000  H
  N25      1.0000 0.45026  0.81406  0.66190  Biso   1.000  N
  H177     1.0000 0.39372  0.72170  0.63710  Biso   1.000  H
  H178     1.0000 0.30873  0.76219  0.66591  Biso   1.000  H
  N26      1.0000 0.72710  0.71708  0.72751  Biso   1.000  N
  H179     1.0000 0.58738  0.75570  0.75000  Biso   1.000  H
  H180     1.0000 0.64511  0.70420  0.78340  Biso   1.000  H
  N27      1.0000 0.72710  0.28292  0.27249  Biso   1.000  N
  H181     1.0000 0.58738  0.24430  0.25000  Biso   1.000  H
  H182     1.0000 0.64511  0.29580  0.21660  Biso   1.000  H
  N28      1.0000 0.60581  0.37240  0.39441  Biso   1.000  N
  H183     1.0000 0.65929  0.40928  0.33749  Biso   1.000  H
  H184     1.0000 0.59203  0.46571  0.36390  Biso   1.000  H
  C192     1.0000 0.25203  0.07162  0.40461  Biso   1.000  C
  C193     1.0000 0.22029  0.82857  0.54809  Biso   1.000  C
  C194     1.0000 0.50098  0.82459  0.62830  Biso   1.000  C
  C195     1.0000 0.73907  0.77487  0.70720  Biso   1.000  C
  C196     1.0000 0.73907  0.22507  0.29280  Biso   1.000  C
  C197     1.0000 0.68945  0.33489  0.39820  Biso   1.000  C
  C198     1.0000 0.16996  0.09148  0.38061  Biso   1.000  C
  C199     1.0000 0.27920  0.11138  0.44180  Biso   1.000  C
  C200     1.0000 0.13326  0.80940  0.57299  Biso   1.000  C
  C201     1.0000 0.27920  0.88856  0.55820  Biso   1.000  C
  C202     1.0000 0.56478  0.88547  0.62089  Biso   1.000  C
  H185     1.0000 0.49728  0.79028  0.60620  Biso   1.000  H
  H186     1.0000 0.68386  0.80840  0.70832  Biso   1.000  H
  C203     1.0000 0.83610  0.79237  0.68182  Biso   1.000  C
  H187     1.0000 0.68386  0.19160  0.29171  Biso   1.000  H
  C204     1.0000 0.83610  0.20758  0.31821  Biso   1.000  C
  H188     1.0000 0.74017  0.33499  0.37580  Biso   1.000  H
  C205     1.0000 0.70796  0.29198  0.43641  Biso   1.000  C
  C206     1.0000 0.10861  0.15099  0.39021  Biso   1.000  C
  H189     1.0000 0.15232  0.06428  0.35610  Biso   1.000  H
  C207     1.0000 0.22029  0.17137  0.45191  Biso   1.000  C
  H190     1.0000 0.33638  0.09740  0.45951  Biso   1.000  H
  C208     1.0000 0.10861  0.84901  0.60979  Biso   1.000  C
  H191     1.0000 0.09136  0.77016  0.56520  Biso   1.000  H
  C209     1.0000 0.25203  0.92838  0.59542  Biso   1.000  C
  H192     1.0000 0.33638  0.90260  0.54052  Biso   1.000  H
  C210     1.0000 0.58746  0.93540  0.65372  Biso   1.000  C
  C211     1.0000 0.60329  0.90046  0.58092  Biso   1.000  C
  C212     1.0000 0.84705  0.85949  0.66742  Biso   1.000  C
  C213     1.0000 0.91116  0.74307  0.67342  Biso   1.000  C
  C214     1.0000 0.84705  0.14051  0.33262  Biso   1.000  C
  C215     1.0000 0.91116  0.25688  0.32662  Biso   1.000  C
  C216     1.0000 0.63322  0.28129  0.46660  Biso   1.000  C
  C217     1.0000 0.80862  0.25960  0.44090  Biso   1.000  C
  C218     1.0000 0.01559  0.17137  0.36422  Biso   1.000  C
  C219     1.0000 0.13326  0.19060  0.42701  Biso   1.000  C
  C220     1.0000 0.24431  0.21371  0.49140  Biso   1.000  C
  C221     1.0000 0.01559  0.82857  0.63581  Biso   1.000  C
  C222     1.0000 0.16996  0.90847  0.61942  Biso   1.000  C
  C223     1.0000 0.31527  0.99209  0.60482  Biso   1.000  C
  H193     1.0000 0.55958  0.92838  0.68169  Biso   1.000  H
  C224     1.0000 0.65000  0.99450  0.64569  Biso   1.000  C
  C225     1.0000 0.66339  0.95997  0.57200  Biso   1.000  C
  H194     1.0000 0.58841  0.86897  0.55810  Biso   1.000  H
  C226     1.0000 0.93676  0.87850  0.64512  Biso   1.000  C
  H195     1.0000 0.79326  0.89296  0.67261  Biso   1.000  H
  H196     1.0000 0.90250  0.69660  0.68371  Biso   1.000  H
  C227     1.0000 0.00063  0.76078  0.64980  Biso   1.000  C
  C228     1.0000 0.93676  0.12150  0.35492  Biso   1.000  C
  H197     1.0000 0.79326  0.10698  0.32742  Biso   1.000  H
  H198     1.0000 0.90250  0.30340  0.31632  Biso   1.000  H
  C229     1.0000 0.00063  0.23922  0.35020  Biso   1.000  C
  C230     1.0000 0.65677  0.24132  0.50260  Biso   1.000  C
  H199     1.0000 0.56502  0.30099  0.46330  Biso   1.000  H
  C231     1.0000 0.83106  0.22418  0.47709  Biso   1.000  C
  H200     1.0000 0.85910  0.26280  0.41851  Biso   1.000  H
  H201     1.0000 0.09136  0.22979  0.43480  Biso   1.000  H
  C232     1.0000 0.34323  0.24132  0.49740  Biso   1.000  C
  C233     1.0000 0.16886  0.22418  0.52291  Biso   1.000  C
  H202     1.0000 0.15232  0.93566  0.64390  Biso   1.000  H
  C234     1.0000 0.35000  0.00550  0.64569  Biso   1.000  C
  C235     1.0000 0.33661  0.03997  0.57200  Biso   1.000  C
  H203     1.0000 0.66827  0.02520  0.66851  Biso   1.000  H
  C236     1.0000 0.68465  0.00791  0.60482  Biso   1.000  C
  H204     1.0000 0.68961  0.96788  0.54379  Biso   1.000  H
  H205     1.0000 0.94550  0.92560  0.63591  Biso   1.000  H
  H206     1.0000 0.05151  0.72589  0.64332  Biso   1.000  H
  H207     1.0000 0.94550  0.07440  0.36409  Biso   1.000  H
  H208     1.0000 0.05151  0.27411  0.35671  Biso   1.000  H
  C237     1.0000 0.75569  0.21371  0.50860  Biso   1.000  C
  H209     1.0000 0.60369  0.23288  0.52342  Biso   1.000  H
  H210     1.0000 0.89998  0.20611  0.48120  Biso   1.000  H
  C238     1.0000 0.36678  0.28129  0.53340  Biso   1.000  C
  H211     1.0000 0.39631  0.23288  0.47661  Biso   1.000  H
  H212     1.0000 0.10002  0.20611  0.51880  Biso   1.000  H
  C239     1.0000 0.19138  0.25960  0.55910  Biso   1.000  C
  H213     1.0000 0.33173  0.97480  0.66851  Biso   1.000  H
  C240     1.0000 0.41246  0.06460  0.65372  Biso   1.000  C
  H214     1.0000 0.31039  0.03212  0.54379  Biso   1.000  H
  C241     1.0000 0.39671  0.09949  0.58092  Biso   1.000  C
  C242     1.0000 0.74797  0.07162  0.59542  Biso   1.000  C
  C243     1.0000 0.77971  0.17137  0.54809  Biso   1.000  C
  C244     1.0000 0.29196  0.29198  0.56362  Biso   1.000  C
  H215     1.0000 0.43498  0.30099  0.53670  Biso   1.000  H
  H216     1.0000 0.14090  0.26280  0.58149  Biso   1.000  H
  H217     1.0000 0.44042  0.07162  0.68169  Biso   1.000  H
  C245     1.0000 0.43522  0.11448  0.62089  Biso   1.000  C
  H218     1.0000 0.41159  0.13098  0.55810  Biso   1.000  H
  C246     1.0000 0.72080  0.11138  0.55820  Biso   1.000  C
  C247     1.0000 0.82996  0.09148  0.61942  Biso   1.000  C
  C248     1.0000 0.86666  0.19060  0.57299  Biso   1.000  C
  C249     1.0000 0.31047  0.33489  0.60180  Biso   1.000  C
  C250     1.0000 0.49902  0.17541  0.62830  Biso   1.000  C
  H219     1.0000 0.66362  0.09740  0.54052  Biso   1.000  H
  H220     1.0000 0.84768  0.06428  0.64390  Biso   1.000  H
  C251     1.0000 0.89139  0.15099  0.60979  Biso   1.000  C
  H221     1.0000 0.90856  0.22979  0.56520  Biso   1.000  H
  N29      1.0000 0.39419  0.37240  0.60562  Biso   1.000  N
  H222     1.0000 0.25983  0.33499  0.62420  Biso   1.000  H
  N30      1.0000 0.54966  0.18589  0.66190  Biso   1.000  N
  H223     1.0000 0.50272  0.20967  0.60620  Biso   1.000  H
  C252     1.0000 0.98441  0.17137  0.63581  Biso   1.000  C
  C253     1.0000 0.40387  0.41568  0.64431  Biso   1.000  C
  C254     1.0000 0.61597  0.25090  0.66369  Biso   1.000  C
  C255     1.0000 0.99937  0.23922  0.64980  Biso   1.000  C
  C256     1.0000 0.06316  0.12150  0.64512  Biso   1.000  C
  C257     1.0000 0.50161  0.39571  0.66960  Biso   1.000  C
  H224     1.0000 0.34071  0.40928  0.66251  Biso   1.000  H
  H225     1.0000 0.40797  0.46571  0.63610  Biso   1.000  H
  H226     1.0000 0.60628  0.27830  0.63710  Biso   1.000  H
  H227     1.0000 0.69127  0.23781  0.66591  Biso   1.000  H
  C258     1.0000 0.58502  0.29517  0.70232  Biso   1.000  C
  H228     1.0000 0.94849  0.27411  0.64332  Biso   1.000  H
  C259     1.0000 0.08876  0.25688  0.67342  Biso   1.000  C
  H229     1.0000 0.05450  0.07440  0.63591  Biso   1.000  H
  C260     1.0000 0.15287  0.14051  0.66742  Biso   1.000  C
  N31      1.0000 0.48508  0.33311  0.69491  Biso   1.000  N
  H230     1.0000 0.56076  0.38791  0.64951  Biso   1.000  H
  H231     1.0000 0.52107  0.43480  0.68891  Biso   1.000  H
  H232     1.0000 0.57738  0.26458  0.72770  Biso   1.000  H
  H233     1.0000 0.64157  0.32939  0.70832  Biso   1.000  H
  C261     1.0000 0.16390  0.20758  0.68182  Biso   1.000  C
  H234     1.0000 0.09750  0.30340  0.68371  Biso   1.000  H
  H235     1.0000 0.20666  0.10698  0.67261  Biso   1.000  H
  C262     1.0000 0.43246  0.35061  0.73412  Biso   1.000  C
  C263     1.0000 0.26093  0.22507  0.70720  Biso   1.000  C
  C264     1.0000 0.37103  0.28800  0.75270  Biso   1.000  C
  H236     1.0000 0.38308  0.38979  0.72870  Biso   1.000  H
  H237     1.0000 0.48508  0.36658  0.75529  Biso   1.000  H
  N32      1.0000 0.27290  0.28292  0.72751  Biso   1.000  N
  H238     1.0000 0.31606  0.19160  0.70832  Biso   1.000  H
  H239     1.0000 0.41262  0.24430  0.75000  Biso   1.000  H
  H240     1.0000 0.35489  0.29580  0.78340  Biso   1.000  H
