data_image0
_cell_length_a       13.125
_cell_length_b       18.869
_cell_length_c       31.177
_cell_angle_alpha    90
_cell_angle_beta     90
_cell_angle_gamma    90

_symmetry_space_group_name_H-M    "P 1"
_symmetry_int_tables_number       1

loop_
  _symmetry_equiv_pos_as_xyz
  'x, y, z'

loop_
  _atom_site_label
  _atom_site_occupancy
  _atom_site_fract_x
  _atom_site_fract_y
  _atom_site_fract_z
  _atom_site_thermal_displace_type
  _atom_site_B_iso_or_equiv
  _atom_site_type_symbol
  C1       1.0000 0.16381  0.28671  0.67909  Biso   1.000  C
  C2       1.0000 0.25691  0.27479  0.70369  Biso   1.000  C
  C3       1.0000 0.08267  0.24029  0.67871  Biso   1.000  C
  C4       1.0000 0.15611  0.34941  0.65600  Biso   1.000  C
  N1       1.0000 0.26903  0.22100  0.72845  Biso   1.000  N
  H1       1.0000 0.31070  0.30828  0.70125  Biso   1.000  H
  H2       1.0000 0.08762  0.19662  0.69378  Biso   1.000  H
  C5       1.0000 0.99482  0.25629  0.65670  Biso   1.000  C
  H3       1.0000 0.21074  0.38248  0.65654  Biso   1.000  H
  C6       1.0000 0.06880  0.36420  0.63210  Biso   1.000  C
  C7       1.0000 0.36747  0.21490  0.75119  Biso   1.000  C
  C8       1.0000 0.98438  0.31909  0.63338  Biso   1.000  C
  H4       1.0000 0.93958  0.22375  0.65738  Biso   1.000  H
  H5       1.0000 0.06674  0.40543  0.61462  Biso   1.000  H
  C9       1.0000 0.43048  0.15348  0.73461  Biso   1.000  C
  H6       1.0000 0.35451  0.20807  0.78224  Biso   1.000  H
  H7       1.0000 0.40632  0.25942  0.74767  Biso   1.000  H
  C10      1.0000 0.88914  0.33801  0.61048  Biso   1.000  C
  N2       1.0000 0.47939  0.16880  0.69352  Biso   1.000  N
  H8       1.0000 0.48358  0.14171  0.75597  Biso   1.000  H
  H9       1.0000 0.38598  0.11151  0.73128  Biso   1.000  H
  C11      1.0000 0.85608  0.29721  0.57491  Biso   1.000  C
  C12      1.0000 0.83238  0.39732  0.62341  Biso   1.000  C
  C13      1.0000 0.49768  0.10271  0.66988  Biso   1.000  C
  C14      1.0000 0.57638  0.20770  0.70061  Biso   1.000  C
  C15      1.0000 0.77074  0.31941  0.55041  Biso   1.000  C
  C16      1.0000 0.91840  0.23361  0.56109  Biso   1.000  C
  C17      1.0000 0.75139  0.42191  0.59871  Biso   1.000  C
  C18      1.0000 0.86438  0.44290  0.66100  Biso   1.000  C
  C19      1.0000 0.40312  0.08040  0.64580  Biso   1.000  C
  H10      1.0000 0.51764  0.06487  0.69019  Biso   1.000  H
  H11      1.0000 0.55436  0.10970  0.64932  Biso   1.000  H
  H12      1.0000 0.63177  0.17351  0.70664  Biso   1.000  H
  H13      1.0000 0.56930  0.23928  0.72582  Biso   1.000  H
  C20      1.0000 0.60328  0.25131  0.66138  Biso   1.000  C
  C21      1.0000 0.74309  0.27972  0.51140  Biso   1.000  C
  C22      1.0000 0.71703  0.38110  0.56330  Biso   1.000  C
  H14      1.0000 0.88282  0.19005  0.56933  Biso   1.000  H
  H15      1.0000 0.98514  0.23509  0.57523  Biso   1.000  H
  H16      1.0000 0.92777  0.23456  0.52994  Biso   1.000  H
  C23      1.0000 0.69684  0.48789  0.60878  Biso   1.000  C
  H17      1.0000 0.83482  0.42376  0.68746  Biso   1.000  H
  H18      1.0000 0.84030  0.49149  0.65667  Biso   1.000  H
  H19      1.0000 0.93890  0.44279  0.66337  Biso   1.000  H
  N3       1.0000 0.39352  0.11771  0.60670  Biso   1.000  N
  H20      1.0000 0.40632  0.02888  0.63989  Biso   1.000  H
  H21      1.0000 0.34240  0.08941  0.66382  Biso   1.000  H
  N4       1.0000 0.54377  0.31692  0.66052  Biso   1.000  N
  H22      1.0000 0.67688  0.26287  0.66193  Biso   1.000  H
  H23      1.0000 0.58933  0.22338  0.63521  Biso   1.000  H
  C24      1.0000 0.80312  0.28512  0.47471  Biso   1.000  C
  C25      1.0000 0.65890  0.23382  0.50980  Biso   1.000  C
  C26      1.0000 0.62309  0.40140  0.53879  Biso   1.000  C
  C27      1.0000 0.64328  0.49769  0.64730  Biso   1.000  C
  C28      1.0000 0.69341  0.54380  0.57902  Biso   1.000  C
  C29      1.0000 0.31840  0.15862  0.60169  Biso   1.000  C
  C30      1.0000 0.48343  0.32498  0.62989  Biso   1.000  C
  C31      1.0000 0.78309  0.24638  0.43869  Biso   1.000  C
  H24      1.0000 0.85958  0.31655  0.47474  Biso   1.000  H
  C32      1.0000 0.64091  0.19619  0.47429  Biso   1.000  C
  H25      1.0000 0.61493  0.22942  0.53389  Biso   1.000  H
  H26      1.0000 0.64114  0.43553  0.51634  Biso   1.000  H
  H27      1.0000 0.57356  0.42297  0.55839  Biso   1.000  H
  H28      1.0000 0.59322  0.35911  0.52564  Biso   1.000  H
  H29      1.0000 0.64411  0.46155  0.66851  Biso   1.000  H
  C33      1.0000 0.58872  0.56050  0.65491  Biso   1.000  C
  C34      1.0000 0.63680  0.60220  0.58649  Biso   1.000  C
  H30      1.0000 0.73173  0.54046  0.55323  Biso   1.000  H
  C35      1.0000 0.30080  0.20160  0.56269  Biso   1.000  C
  H31      1.0000 0.27017  0.16201  0.62427  Biso   1.000  H
  C36      1.0000 0.41829  0.38863  0.62379  Biso   1.000  C
  H32      1.0000 0.47893  0.28820  0.60917  Biso   1.000  H
  C37      1.0000 0.69920  0.20160  0.43731  Biso   1.000  C
  H33      1.0000 0.82682  0.25020  0.41454  Biso   1.000  H
  H34      1.0000 0.58522  0.16408  0.47432  Biso   1.000  H
  C38      1.0000 0.58171  0.61143  0.62379  Biso   1.000  C
  H35      1.0000 0.55634  0.56765  0.68182  Biso   1.000  H
  H36      1.0000 0.63474  0.63830  0.56526  Biso   1.000  H
  C39      1.0000 0.21691  0.24638  0.56131  Biso   1.000  C
  C40      1.0000 0.35909  0.19619  0.52571  Biso   1.000  C
  C41      1.0000 0.41128  0.43950  0.65491  Biso   1.000  C
  C42      1.0000 0.36320  0.39780  0.58649  Biso   1.000  C
  C43      1.0000 0.68160  0.15862  0.39831  Biso   1.000  C
  C44      1.0000 0.51657  0.67502  0.62989  Biso   1.000  C
  C45      1.0000 0.19688  0.28512  0.52529  Biso   1.000  C
  H37      1.0000 0.17318  0.25020  0.58546  Biso   1.000  H
  C46      1.0000 0.34110  0.23382  0.49020  Biso   1.000  C
  H38      1.0000 0.41486  0.16408  0.52568  Biso   1.000  H
  C47      1.0000 0.35672  0.50231  0.64730  Biso   1.000  C
  H39      1.0000 0.44366  0.43235  0.68182  Biso   1.000  H
  H40      1.0000 0.36526  0.36170  0.56526  Biso   1.000  H
  C48      1.0000 0.30659  0.45620  0.57902  Biso   1.000  C
  N5       1.0000 0.60648  0.11771  0.39330  Biso   1.000  N
  H41      1.0000 0.72983  0.16201  0.37573  Biso   1.000  H
  N6       1.0000 0.45623  0.68308  0.66052  Biso   1.000  N
  H42      1.0000 0.52107  0.71180  0.60917  Biso   1.000  H
  C49      1.0000 0.25691  0.27972  0.48860  Biso   1.000  C
  H43      1.0000 0.14042  0.31655  0.52526  Biso   1.000  H
  H44      1.0000 0.38507  0.22942  0.46611  Biso   1.000  H
  C50      1.0000 0.30324  0.51211  0.60878  Biso   1.000  C
  H45      1.0000 0.35589  0.53845  0.66851  Biso   1.000  H
  H46      1.0000 0.26827  0.45954  0.55323  Biso   1.000  H
  C51      1.0000 0.59688  0.08040  0.35420  Biso   1.000  C
  C52      1.0000 0.39672  0.74869  0.66138  Biso   1.000  C
  C53      1.0000 0.22933  0.31941  0.44959  Biso   1.000  C
  C54      1.0000 0.24861  0.57809  0.59871  Biso   1.000  C
  C55      1.0000 0.50232  0.10271  0.33008  Biso   1.000  C
  H47      1.0000 0.59368  0.02888  0.36011  Biso   1.000  H
  H48      1.0000 0.65760  0.08941  0.33615  Biso   1.000  H
  C56      1.0000 0.42362  0.79230  0.70061  Biso   1.000  C
  H49      1.0000 0.32312  0.73713  0.66193  Biso   1.000  H
  H50      1.0000 0.41067  0.77662  0.63521  Biso   1.000  H
  C57      1.0000 0.14392  0.29721  0.42509  Biso   1.000  C
  C58      1.0000 0.28297  0.38110  0.43670  Biso   1.000  C
  C59      1.0000 0.28297  0.61890  0.56330  Biso   1.000  C
  C60      1.0000 0.16762  0.60268  0.62341  Biso   1.000  C
  N7       1.0000 0.52061  0.16880  0.30648  Biso   1.000  N
  H51      1.0000 0.48236  0.06487  0.30981  Biso   1.000  H
  H52      1.0000 0.44564  0.10970  0.35064  Biso   1.000  H
  N8       1.0000 0.52061  0.83120  0.69352  Biso   1.000  N
  H53      1.0000 0.36823  0.82649  0.70664  Biso   1.000  H
  H54      1.0000 0.43070  0.76072  0.72582  Biso   1.000  H
  C61      1.0000 0.11093  0.33801  0.38949  Biso   1.000  C
  C62      1.0000 0.08160  0.23361  0.43891  Biso   1.000  C
  C63      1.0000 0.24861  0.42191  0.40129  Biso   1.000  C
  C64      1.0000 0.37691  0.40140  0.46121  Biso   1.000  C
  C65      1.0000 0.22933  0.68059  0.55041  Biso   1.000  C
  C66      1.0000 0.37691  0.59860  0.53879  Biso   1.000  C
  C67      1.0000 0.13562  0.55710  0.66100  Biso   1.000  C
  C68      1.0000 0.11093  0.66199  0.61048  Biso   1.000  C
  C69      1.0000 0.56952  0.15348  0.26539  Biso   1.000  C
  C70      1.0000 0.42362  0.20770  0.29939  Biso   1.000  C
  C71      1.0000 0.50232  0.89729  0.66988  Biso   1.000  C
  C72      1.0000 0.56952  0.84652  0.73461  Biso   1.000  C
  C73      1.0000 0.01562  0.31909  0.36658  Biso   1.000  C
  C74      1.0000 0.16762  0.39732  0.37659  Biso   1.000  C
  H55      1.0000 0.11718  0.19005  0.43067  Biso   1.000  H
  H56      1.0000 0.01486  0.23509  0.42477  Biso   1.000  H
  H57      1.0000 0.07230  0.23456  0.47006  Biso   1.000  H
  C75      1.0000 0.30324  0.48789  0.39119  Biso   1.000  C
  H58      1.0000 0.35886  0.43553  0.48366  Biso   1.000  H
  H59      1.0000 0.42644  0.42297  0.44161  Biso   1.000  H
  H60      1.0000 0.40678  0.35911  0.47436  Biso   1.000  H
  C76      1.0000 0.25691  0.72028  0.51140  Biso   1.000  C
  C77      1.0000 0.14392  0.70279  0.57491  Biso   1.000  C
  H61      1.0000 0.35886  0.56447  0.51634  Biso   1.000  H
  H62      1.0000 0.42644  0.57703  0.55839  Biso   1.000  H
  H63      1.0000 0.40678  0.64089  0.52564  Biso   1.000  H
  H64      1.0000 0.16526  0.57629  0.68746  Biso   1.000  H
  H65      1.0000 0.15970  0.50856  0.65667  Biso   1.000  H
  H66      1.0000 0.06110  0.55721  0.66337  Biso   1.000  H
  C78      1.0000 0.01562  0.68091  0.63338  Biso   1.000  C
  C79      1.0000 0.63253  0.21490  0.24881  Biso   1.000  C
  H67      1.0000 0.51642  0.14171  0.24403  Biso   1.000  H
  H68      1.0000 0.61410  0.11151  0.26872  Biso   1.000  H
  H69      1.0000 0.36823  0.17351  0.29336  Biso   1.000  H
  H70      1.0000 0.43070  0.23928  0.27418  Biso   1.000  H
  C80      1.0000 0.39672  0.25131  0.33858  Biso   1.000  C
  C81      1.0000 0.59688  0.91960  0.64580  Biso   1.000  C
  H71      1.0000 0.48236  0.93513  0.69019  Biso   1.000  H
  H72      1.0000 0.44564  0.89030  0.64932  Biso   1.000  H
  C82      1.0000 0.63253  0.78510  0.75119  Biso   1.000  C
  H73      1.0000 0.51642  0.85829  0.75597  Biso   1.000  H
  H74      1.0000 0.61410  0.88849  0.73128  Biso   1.000  H
  C83      1.0000 0.00518  0.25629  0.34330  Biso   1.000  C
  C84      1.0000 0.93120  0.36420  0.36790  Biso   1.000  C
  C85      1.0000 0.13562  0.44290  0.33900  Biso   1.000  C
  C86      1.0000 0.35672  0.49769  0.35270  Biso   1.000  C
  C87      1.0000 0.30659  0.54380  0.42098  Biso   1.000  C
  C88      1.0000 0.19688  0.71493  0.47471  Biso   1.000  C
  C89      1.0000 0.34110  0.76623  0.50980  Biso   1.000  C
  C90      1.0000 0.08160  0.76639  0.56109  Biso   1.000  C
  C91      1.0000 0.00518  0.74371  0.65670  Biso   1.000  C
  C92      1.0000 0.93120  0.63580  0.63210  Biso   1.000  C
  N9       1.0000 0.73097  0.22100  0.27155  Biso   1.000  N
  H75      1.0000 0.64549  0.20807  0.21772  Biso   1.000  H
  H76      1.0000 0.59368  0.25942  0.25230  Biso   1.000  H
  N10      1.0000 0.45623  0.31692  0.33948  Biso   1.000  N
  H77      1.0000 0.32312  0.26287  0.33807  Biso   1.000  H
  H78      1.0000 0.41067  0.22338  0.36479  Biso   1.000  H
  N11      1.0000 0.60648  0.88229  0.60670  Biso   1.000  N
  H79      1.0000 0.59368  0.97112  0.63989  Biso   1.000  H
  H80      1.0000 0.65760  0.91059  0.66382  Biso   1.000  H
  N12      1.0000 0.73097  0.77900  0.72845  Biso   1.000  N
  H81      1.0000 0.64549  0.79193  0.78224  Biso   1.000  H
  H82      1.0000 0.59368  0.74058  0.74767  Biso   1.000  H
  H83      1.0000 0.06042  0.22375  0.34262  Biso   1.000  H
  C93      1.0000 0.91733  0.24029  0.32129  Biso   1.000  C
  C94      1.0000 0.84389  0.34941  0.34400  Biso   1.000  C
  H84      1.0000 0.93326  0.40543  0.38538  Biso   1.000  H
  H85      1.0000 0.16526  0.42376  0.31254  Biso   1.000  H
  H86      1.0000 0.15970  0.49149  0.34333  Biso   1.000  H
  H87      1.0000 0.06110  0.44279  0.33663  Biso   1.000  H
  H88      1.0000 0.35589  0.46155  0.33146  Biso   1.000  H
  C95      1.0000 0.41128  0.56050  0.34509  Biso   1.000  C
  C96      1.0000 0.36320  0.60220  0.41351  Biso   1.000  C
  H89      1.0000 0.26827  0.54046  0.44677  Biso   1.000  H
  C97      1.0000 0.21691  0.75362  0.43869  Biso   1.000  C
  H90      1.0000 0.14042  0.68345  0.47474  Biso   1.000  H
  C98      1.0000 0.35909  0.80381  0.47429  Biso   1.000  C
  H91      1.0000 0.38507  0.77058  0.53389  Biso   1.000  H
  H92      1.0000 0.11718  0.81001  0.56933  Biso   1.000  H
  H93      1.0000 0.01486  0.76491  0.57523  Biso   1.000  H
  H94      1.0000 0.07230  0.76544  0.52994  Biso   1.000  H
  H95      1.0000 0.06042  0.77625  0.65738  Biso   1.000  H
  C99      1.0000 0.91733  0.75971  0.67871  Biso   1.000  C
  C100     1.0000 0.84389  0.65059  0.65600  Biso   1.000  C
  H96      1.0000 0.93326  0.59457  0.61462  Biso   1.000  H
  C101     1.0000 0.74309  0.27479  0.29631  Biso   1.000  C
  C102     1.0000 0.51657  0.32498  0.37011  Biso   1.000  C
  C103     1.0000 0.68160  0.84138  0.60169  Biso   1.000  C
  C104     1.0000 0.74309  0.72521  0.70369  Biso   1.000  C
  H97      1.0000 0.91246  0.19662  0.30622  Biso   1.000  H
  C105     1.0000 0.83619  0.28671  0.32091  Biso   1.000  C
  H98      1.0000 0.78933  0.38248  0.34346  Biso   1.000  H
  C106     1.0000 0.41829  0.61143  0.37621  Biso   1.000  C
  H99      1.0000 0.44366  0.56765  0.31818  Biso   1.000  H
  H100     1.0000 0.36526  0.63830  0.43474  Biso   1.000  H
  C107     1.0000 0.30080  0.79840  0.43731  Biso   1.000  C
  H101     1.0000 0.17318  0.74985  0.41454  Biso   1.000  H
  H102     1.0000 0.41486  0.83592  0.47432  Biso   1.000  H
  H103     1.0000 0.91246  0.80338  0.69378  Biso   1.000  H
  C108     1.0000 0.83619  0.71329  0.67909  Biso   1.000  C
  H104     1.0000 0.78933  0.61752  0.65654  Biso   1.000  H
  H105     1.0000 0.68930  0.30828  0.29875  Biso   1.000  H
  C109     1.0000 0.58171  0.38863  0.37621  Biso   1.000  C
  H106     1.0000 0.52107  0.28820  0.39083  Biso   1.000  H
  C110     1.0000 0.69920  0.79840  0.56269  Biso   1.000  C
  H107     1.0000 0.72983  0.83799  0.62427  Biso   1.000  H
  H108     1.0000 0.68930  0.69172  0.70125  Biso   1.000  H
  C111     1.0000 0.48343  0.67502  0.37011  Biso   1.000  C
  C112     1.0000 0.31840  0.84138  0.39831  Biso   1.000  C
  C113     1.0000 0.58872  0.43950  0.34509  Biso   1.000  C
  C114     1.0000 0.63680  0.39780  0.41351  Biso   1.000  C
  C115     1.0000 0.78309  0.75362  0.56131  Biso   1.000  C
  C116     1.0000 0.64091  0.80381  0.52571  Biso   1.000  C
  N13      1.0000 0.54377  0.68308  0.33948  Biso   1.000  N
  H109     1.0000 0.47893  0.71180  0.39083  Biso   1.000  H
  N14      1.0000 0.39352  0.88229  0.39330  Biso   1.000  N
  H110     1.0000 0.27017  0.83799  0.37573  Biso   1.000  H
  C117     1.0000 0.64328  0.50231  0.35270  Biso   1.000  C
  H111     1.0000 0.55634  0.43235  0.31818  Biso   1.000  H
  H112     1.0000 0.63474  0.36170  0.43474  Biso   1.000  H
  C118     1.0000 0.69341  0.45620  0.42098  Biso   1.000  C
  C119     1.0000 0.80312  0.71493  0.52529  Biso   1.000  C
  H113     1.0000 0.82682  0.74985  0.58546  Biso   1.000  H
  C120     1.0000 0.65890  0.76623  0.49020  Biso   1.000  C
  H114     1.0000 0.58522  0.83592  0.52568  Biso   1.000  H
  C121     1.0000 0.60328  0.74869  0.33858  Biso   1.000  C
  C122     1.0000 0.40312  0.91960  0.35420  Biso   1.000  C
  C123     1.0000 0.69684  0.51211  0.39119  Biso   1.000  C
  H115     1.0000 0.64411  0.53845  0.33146  Biso   1.000  H
  H116     1.0000 0.73173  0.45954  0.44677  Biso   1.000  H
  C124     1.0000 0.74309  0.72028  0.48860  Biso   1.000  C
  H117     1.0000 0.85958  0.68345  0.52526  Biso   1.000  H
  H118     1.0000 0.61493  0.77058  0.46611  Biso   1.000  H
  C125     1.0000 0.57638  0.79230  0.29939  Biso   1.000  C
  H119     1.0000 0.67688  0.73713  0.33807  Biso   1.000  H
  H120     1.0000 0.58933  0.77662  0.36479  Biso   1.000  H
  C126     1.0000 0.49768  0.89729  0.33008  Biso   1.000  C
  H121     1.0000 0.40632  0.97112  0.36011  Biso   1.000  H
  H122     1.0000 0.34240  0.91059  0.33615  Biso   1.000  H
  C127     1.0000 0.75139  0.57809  0.40129  Biso   1.000  C
  C128     1.0000 0.77074  0.68059  0.44959  Biso   1.000  C
  N15      1.0000 0.47939  0.83120  0.30648  Biso   1.000  N
  H123     1.0000 0.63177  0.82649  0.29336  Biso   1.000  H
  H124     1.0000 0.56930  0.76072  0.27418  Biso   1.000  H
  H125     1.0000 0.51764  0.93513  0.30981  Biso   1.000  H
  H126     1.0000 0.55436  0.89030  0.35064  Biso   1.000  H
  C129     1.0000 0.71703  0.61890  0.43670  Biso   1.000  C
  C130     1.0000 0.83238  0.60268  0.37659  Biso   1.000  C
  C131     1.0000 0.85608  0.70279  0.42509  Biso   1.000  C
  C132     1.0000 0.43048  0.84652  0.26539  Biso   1.000  C
  C133     1.0000 0.62309  0.59860  0.46121  Biso   1.000  C
  C134     1.0000 0.86438  0.55710  0.33900  Biso   1.000  C
  C135     1.0000 0.88914  0.66199  0.38949  Biso   1.000  C
  C136     1.0000 0.91840  0.76639  0.43891  Biso   1.000  C
  C137     1.0000 0.36747  0.78510  0.24881  Biso   1.000  C
  H127     1.0000 0.48358  0.85829  0.24403  Biso   1.000  H
  H128     1.0000 0.38598  0.88849  0.26872  Biso   1.000  H
  H129     1.0000 0.64114  0.56447  0.48366  Biso   1.000  H
  H130     1.0000 0.57356  0.57703  0.44161  Biso   1.000  H
  H131     1.0000 0.59322  0.64089  0.47436  Biso   1.000  H
  H132     1.0000 0.83482  0.57629  0.31254  Biso   1.000  H
  H133     1.0000 0.84030  0.50856  0.34333  Biso   1.000  H
  H134     1.0000 0.93890  0.55721  0.33663  Biso   1.000  H
  C138     1.0000 0.98438  0.68091  0.36658  Biso   1.000  C
  H135     1.0000 0.88282  0.81001  0.43067  Biso   1.000  H
  H136     1.0000 0.98514  0.76491  0.42477  Biso   1.000  H
  H137     1.0000 0.92777  0.76544  0.47006  Biso   1.000  H
  N16      1.0000 0.26903  0.77900  0.27155  Biso   1.000  N
  H138     1.0000 0.35451  0.79193  0.21772  Biso   1.000  H
  H139     1.0000 0.40632  0.74058  0.25230  Biso   1.000  H
  C139     1.0000 0.99482  0.74371  0.34330  Biso   1.000  C
  C140     1.0000 0.06880  0.63580  0.36790  Biso   1.000  C
  C141     1.0000 0.25691  0.72521  0.29631  Biso   1.000  C
  C142     1.0000 0.08267  0.75971  0.32129  Biso   1.000  C
  H140     1.0000 0.93958  0.77625  0.34262  Biso   1.000  H
  C143     1.0000 0.15611  0.65059  0.34400  Biso   1.000  C
  H141     1.0000 0.06674  0.59457  0.38538  Biso   1.000  H
  H142     1.0000 0.31070  0.69172  0.29875  Biso   1.000  H
  C144     1.0000 0.16381  0.71329  0.32091  Biso   1.000  C
  H143     1.0000 0.08762  0.80338  0.30622  Biso   1.000  H
  H144     1.0000 0.21074  0.61752  0.34346  Biso   1.000  H
  C145     1.0000 0.49478  0.24368  0.84328  Biso   1.000  C
  C146     1.0000 0.58270  0.25969  0.82131  Biso   1.000  C
  C147     1.0000 0.48442  0.18088  0.86660  Biso   1.000  C
  H145     1.0000 0.43962  0.27622  0.84264  Biso   1.000  H
  C148     1.0000 0.66377  0.21331  0.82089  Biso   1.000  C
  H146     1.0000 0.58758  0.30335  0.80620  Biso   1.000  H
  C149     1.0000 0.56884  0.13578  0.86788  Biso   1.000  C
  C150     1.0000 0.38910  0.16201  0.88950  Biso   1.000  C
  C151     1.0000 0.75688  0.22518  0.79629  Biso   1.000  C
  C152     1.0000 0.65608  0.15062  0.84399  Biso   1.000  C
  H147     1.0000 0.56678  0.09455  0.88536  Biso   1.000  H
  C153     1.0000 0.35611  0.20282  0.92511  Biso   1.000  C
  C154     1.0000 0.33242  0.10271  0.87661  Biso   1.000  C
  N17      1.0000 0.76899  0.27898  0.77156  Biso   1.000  N
  H148     1.0000 0.81074  0.19174  0.79876  Biso   1.000  H
  H149     1.0000 0.71070  0.11755  0.84344  Biso   1.000  H
  C155     1.0000 0.27070  0.18061  0.94961  Biso   1.000  C
  C156     1.0000 0.41844  0.26642  0.93890  Biso   1.000  C
  C157     1.0000 0.36442  0.05708  0.83898  Biso   1.000  C
  C158     1.0000 0.25143  0.07812  0.90131  Biso   1.000  C
  C159     1.0000 0.86750  0.28512  0.74879  Biso   1.000  C
  C160     1.0000 0.21699  0.11893  0.93668  Biso   1.000  C
  C161     1.0000 0.24312  0.22031  0.98858  Biso   1.000  C
  H150     1.0000 0.38286  0.30998  0.93069  Biso   1.000  H
  H151     1.0000 0.48518  0.26488  0.92475  Biso   1.000  H
  H152     1.0000 0.42773  0.26541  0.97004  Biso   1.000  H
  H153     1.0000 0.33478  0.07626  0.81252  Biso   1.000  H
  H154     1.0000 0.34027  0.00853  0.84335  Biso   1.000  H
  H155     1.0000 0.43886  0.05718  0.83664  Biso   1.000  H
  C162     1.0000 0.19680  0.01208  0.89120  Biso   1.000  C
  H156     1.0000 0.85455  0.29191  0.71774  Biso   1.000  H
  H157     1.0000 0.90636  0.24055  0.75232  Biso   1.000  H
  C163     1.0000 0.93051  0.34649  0.76540  Biso   1.000  C
  C164     1.0000 0.12312  0.09857  0.96119  Biso   1.000  C
  C165     1.0000 0.15893  0.26620  0.99019  Biso   1.000  C
  C166     1.0000 0.30309  0.21490  0.02531  Biso   1.000  C
  C167     1.0000 0.14331  0.00228  0.85271  Biso   1.000  C
  C168     1.0000 0.19337  0.95622  0.92100  Biso   1.000  C
  N18      1.0000 0.97943  0.33118  0.80649  Biso   1.000  N
  H158     1.0000 0.98354  0.35831  0.74401  Biso   1.000  H
  H159     1.0000 0.88594  0.38847  0.76874  Biso   1.000  H
  H160     1.0000 0.14118  0.06444  0.98364  Biso   1.000  H
  H161     1.0000 0.07360  0.07700  0.94162  Biso   1.000  H
  H162     1.0000 0.09318  0.14092  0.97437  Biso   1.000  H
  H163     1.0000 0.11490  0.27060  0.96610  Biso   1.000  H
  C169     1.0000 0.14088  0.30378  0.02569  Biso   1.000  C
  C170     1.0000 0.28312  0.25359  0.06130  Biso   1.000  C
  H164     1.0000 0.35954  0.18348  0.02524  Biso   1.000  H
  H165     1.0000 0.14408  0.03842  0.83148  Biso   1.000  H
  C171     1.0000 0.08869  0.93953  0.84511  Biso   1.000  C
  C172     1.0000 0.13684  0.89782  0.91349  Biso   1.000  C
  H166     1.0000 0.23177  0.95956  0.94676  Biso   1.000  H
  C173     1.0000 0.99771  0.39732  0.83010  Biso   1.000  C
  C174     1.0000 0.07642  0.29228  0.79940  Biso   1.000  C
  C175     1.0000 0.19924  0.29843  0.06271  Biso   1.000  C
  H167     1.0000 0.08518  0.33595  0.02569  Biso   1.000  H
  H168     1.0000 0.32686  0.24983  0.08545  Biso   1.000  H
  C176     1.0000 0.08168  0.88860  0.87619  Biso   1.000  C
  H169     1.0000 0.05638  0.93238  0.81820  Biso   1.000  H
  H170     1.0000 0.13470  0.86168  0.93473  Biso   1.000  H
  C177     1.0000 0.90309  0.41958  0.85419  Biso   1.000  C
  H171     1.0000 0.01760  0.43516  0.80983  Biso   1.000  H
  H172     1.0000 0.05432  0.39032  0.85066  Biso   1.000  H
  H173     1.0000 0.13181  0.32646  0.79334  Biso   1.000  H
  H174     1.0000 0.06926  0.26069  0.77419  Biso   1.000  H
  C178     1.0000 0.10331  0.24871  0.83860  Biso   1.000  C
  C179     1.0000 0.18164  0.34141  0.10171  Biso   1.000  C
  C180     1.0000 0.01661  0.82500  0.87010  Biso   1.000  C
  N19      1.0000 0.89349  0.38232  0.89329  Biso   1.000  N
  H175     1.0000 0.90636  0.47114  0.86012  Biso   1.000  H
  H176     1.0000 0.84244  0.41062  0.83616  Biso   1.000  H
  N20      1.0000 0.04381  0.18310  0.83946  Biso   1.000  N
  H177     1.0000 0.17691  0.23716  0.83805  Biso   1.000  H
  H178     1.0000 0.08937  0.27659  0.86480  Biso   1.000  H
  N21      1.0000 0.10651  0.38232  0.10671  Biso   1.000  N
  H179     1.0000 0.22987  0.33801  0.12429  Biso   1.000  H
  N22      1.0000 0.95619  0.81690  0.83946  Biso   1.000  N
  H180     1.0000 0.02103  0.78817  0.89082  Biso   1.000  H
  C181     1.0000 0.81844  0.34141  0.89829  Biso   1.000  C
  C182     1.0000 0.98339  0.17500  0.87010  Biso   1.000  C
  C183     1.0000 0.09691  0.41958  0.14581  Biso   1.000  C
  C184     1.0000 0.89669  0.75129  0.83860  Biso   1.000  C
  C185     1.0000 0.80084  0.29843  0.93729  Biso   1.000  C
  H181     1.0000 0.77013  0.33801  0.87571  Biso   1.000  H
  C186     1.0000 0.91832  0.11140  0.87619  Biso   1.000  C
  H182     1.0000 0.97897  0.21183  0.89082  Biso   1.000  H
  C187     1.0000 0.00229  0.39732  0.16990  Biso   1.000  C
  H183     1.0000 0.09364  0.47114  0.13988  Biso   1.000  H
  H184     1.0000 0.15756  0.41062  0.16384  Biso   1.000  H
  C188     1.0000 0.92358  0.70772  0.79940  Biso   1.000  C
  H185     1.0000 0.82309  0.76284  0.83805  Biso   1.000  H
  H186     1.0000 0.91063  0.72341  0.86480  Biso   1.000  H
  C189     1.0000 0.71688  0.25359  0.93870  Biso   1.000  C
  C190     1.0000 0.85912  0.30378  0.97431  Biso   1.000  C
  C191     1.0000 0.91131  0.06052  0.84511  Biso   1.000  C
  C192     1.0000 0.86324  0.10218  0.91349  Biso   1.000  C
  H187     1.0000 0.98240  0.43516  0.19017  Biso   1.000  H
  H188     1.0000 0.94568  0.39032  0.14934  Biso   1.000  H
  N23      1.0000 0.02057  0.33118  0.19351  Biso   1.000  N
  H189     1.0000 0.86819  0.67354  0.79334  Biso   1.000  H
  H190     1.0000 0.93074  0.73931  0.77419  Biso   1.000  H
  N24      1.0000 0.02057  0.66882  0.80649  Biso   1.000  N
  H191     1.0000 0.67314  0.24983  0.91455  Biso   1.000  H
  C193     1.0000 0.69691  0.21490  0.97469  Biso   1.000  C
  H192     1.0000 0.91482  0.33595  0.97431  Biso   1.000  H
  C194     1.0000 0.84114  0.26620  0.00981  Biso   1.000  C
  H193     1.0000 0.94362  0.06762  0.81820  Biso   1.000  H
  C195     1.0000 0.85669  0.99772  0.85271  Biso   1.000  C
  H194     1.0000 0.86530  0.13832  0.93473  Biso   1.000  H
  C196     1.0000 0.80663  0.04378  0.92100  Biso   1.000  C
  C197     1.0000 0.92358  0.29228  0.20060  Biso   1.000  C
  C198     1.0000 0.06949  0.34649  0.23460  Biso   1.000  C
  C199     1.0000 0.00229  0.60268  0.83010  Biso   1.000  C
  C200     1.0000 0.06949  0.65351  0.76540  Biso   1.000  C
  H195     1.0000 0.64046  0.18348  0.97476  Biso   1.000  H
  C201     1.0000 0.75688  0.22031  0.01139  Biso   1.000  C
  H196     1.0000 0.88510  0.27060  0.03387  Biso   1.000  H
  C202     1.0000 0.80320  0.98792  0.89120  Biso   1.000  C
  H197     1.0000 0.85592  0.96158  0.83148  Biso   1.000  H
  H198     1.0000 0.76830  0.04049  0.94676  Biso   1.000  H
  H199     1.0000 0.86819  0.32646  0.20663  Biso   1.000  H
  H200     1.0000 0.93074  0.26069  0.22581  Biso   1.000  H
  C203     1.0000 0.89669  0.24871  0.16140  Biso   1.000  C
  C204     1.0000 0.13250  0.28512  0.25121  Biso   1.000  C
  H201     1.0000 0.01646  0.35831  0.25599  Biso   1.000  H
  H202     1.0000 0.11406  0.38847  0.23126  Biso   1.000  H
  H203     1.0000 0.98240  0.56484  0.80983  Biso   1.000  H
  H204     1.0000 0.94568  0.60968  0.85066  Biso   1.000  H
  C205     1.0000 0.09691  0.58042  0.85419  Biso   1.000  C
  C206     1.0000 0.13250  0.71493  0.74879  Biso   1.000  C
  H205     1.0000 0.01646  0.64169  0.74401  Biso   1.000  H
  H206     1.0000 0.11406  0.61153  0.76874  Biso   1.000  H
  C207     1.0000 0.72930  0.18061  0.05039  Biso   1.000  C
  C208     1.0000 0.74857  0.92188  0.90131  Biso   1.000  C
  N25      1.0000 0.95619  0.18310  0.16054  Biso   1.000  N
  H207     1.0000 0.82309  0.23716  0.16195  Biso   1.000  H
  H208     1.0000 0.91063  0.27659  0.13520  Biso   1.000  H
  N26      1.0000 0.23101  0.27898  0.22844  Biso   1.000  N
  H209     1.0000 0.14545  0.29191  0.28226  Biso   1.000  H
  H210     1.0000 0.09364  0.24055  0.24768  Biso   1.000  H
  N27      1.0000 0.10651  0.61768  0.89329  Biso   1.000  N
  H211     1.0000 0.09364  0.52886  0.86012  Biso   1.000  H
  H212     1.0000 0.15756  0.58938  0.83616  Biso   1.000  H
  N28      1.0000 0.23101  0.72102  0.77156  Biso   1.000  N
  H213     1.0000 0.14545  0.70809  0.71774  Biso   1.000  H
  H214     1.0000 0.09364  0.75945  0.75232  Biso   1.000  H
  C209     1.0000 0.78301  0.11893  0.06328  Biso   1.000  C
  C210     1.0000 0.64389  0.20282  0.07489  Biso   1.000  C
  C211     1.0000 0.78301  0.88113  0.93668  Biso   1.000  C
  C212     1.0000 0.66758  0.89729  0.87661  Biso   1.000  C
  C213     1.0000 0.01661  0.17500  0.12990  Biso   1.000  C
  C214     1.0000 0.24312  0.22518  0.20371  Biso   1.000  C
  C215     1.0000 0.18164  0.65859  0.89829  Biso   1.000  C
  C216     1.0000 0.24312  0.77482  0.79629  Biso   1.000  C
  C217     1.0000 0.87688  0.09857  0.03881  Biso   1.000  C
  C218     1.0000 0.74857  0.07812  0.09869  Biso   1.000  C
  C219     1.0000 0.61090  0.16201  0.11050  Biso   1.000  C
  C220     1.0000 0.58164  0.26642  0.06110  Biso   1.000  C
  C221     1.0000 0.72930  0.81939  0.94961  Biso   1.000  C
  C222     1.0000 0.87688  0.90143  0.96119  Biso   1.000  C
  C223     1.0000 0.63558  0.94292  0.83898  Biso   1.000  C
  C224     1.0000 0.61090  0.83799  0.88950  Biso   1.000  C
  C225     1.0000 0.08168  0.11140  0.12381  Biso   1.000  C
  H215     1.0000 0.02103  0.21183  0.10915  Biso   1.000  H
  C226     1.0000 0.33623  0.21331  0.17911  Biso   1.000  C
  H216     1.0000 0.18926  0.19174  0.20124  Biso   1.000  H
  C227     1.0000 0.19924  0.70163  0.93729  Biso   1.000  C
  H217     1.0000 0.22987  0.66204  0.87571  Biso   1.000  H
  C228     1.0000 0.33623  0.78669  0.82089  Biso   1.000  C
  H218     1.0000 0.18926  0.80826  0.79876  Biso   1.000  H
  H219     1.0000 0.85882  0.06444  0.01636  Biso   1.000  H
  H220     1.0000 0.92640  0.07700  0.05838  Biso   1.000  H
  H221     1.0000 0.90682  0.14092  0.02563  Biso   1.000  H
  C229     1.0000 0.80320  0.01208  0.10880  Biso   1.000  C
  C230     1.0000 0.66758  0.10271  0.12339  Biso   1.000  C
  C231     1.0000 0.51558  0.18088  0.13340  Biso   1.000  C
  H222     1.0000 0.61714  0.30998  0.06931  Biso   1.000  H
  H223     1.0000 0.51482  0.26488  0.07525  Biso   1.000  H
  H224     1.0000 0.57227  0.26541  0.02996  Biso   1.000  H
  C232     1.0000 0.75688  0.77969  0.98858  Biso   1.000  C
  C233     1.0000 0.64389  0.79718  0.92511  Biso   1.000  C
  H225     1.0000 0.85882  0.93556  0.98364  Biso   1.000  H
  H226     1.0000 0.92640  0.92300  0.94162  Biso   1.000  H
  H227     1.0000 0.90682  0.85913  0.97437  Biso   1.000  H
  H228     1.0000 0.66522  0.92374  0.81252  Biso   1.000  H
  H229     1.0000 0.65973  0.99147  0.84335  Biso   1.000  H
  H230     1.0000 0.56114  0.94282  0.83664  Biso   1.000  H
  C234     1.0000 0.51558  0.81912  0.86660  Biso   1.000  C
  C235     1.0000 0.08869  0.06052  0.15489  Biso   1.000  C
  C236     1.0000 0.13684  0.10218  0.08651  Biso   1.000  C
  C237     1.0000 0.41730  0.25969  0.17869  Biso   1.000  C
  C238     1.0000 0.34392  0.15062  0.15601  Biso   1.000  C
  C239     1.0000 0.28312  0.74641  0.93870  Biso   1.000  C
  C240     1.0000 0.14088  0.69622  0.97431  Biso   1.000  C
  C241     1.0000 0.41730  0.74031  0.82131  Biso   1.000  C
  C242     1.0000 0.34392  0.84938  0.84399  Biso   1.000  C
  C243     1.0000 0.80663  0.95622  0.07900  Biso   1.000  C
  C244     1.0000 0.85669  0.00228  0.14729  Biso   1.000  C
  C245     1.0000 0.63558  0.05708  0.16098  Biso   1.000  C
  C246     1.0000 0.50522  0.24368  0.15669  Biso   1.000  C
  C247     1.0000 0.43124  0.13578  0.13208  Biso   1.000  C
  C248     1.0000 0.84114  0.73380  0.99019  Biso   1.000  C
  C249     1.0000 0.69691  0.78510  0.02531  Biso   1.000  C
  C250     1.0000 0.58164  0.73358  0.93890  Biso   1.000  C
  C251     1.0000 0.50522  0.75632  0.84328  Biso   1.000  C
  C252     1.0000 0.43124  0.86422  0.86788  Biso   1.000  C
  C253     1.0000 0.14331  0.99772  0.14729  Biso   1.000  C
  H231     1.0000 0.05638  0.06762  0.18180  Biso   1.000  H
  H232     1.0000 0.13470  0.13832  0.06524  Biso   1.000  H
  C254     1.0000 0.19337  0.04378  0.07900  Biso   1.000  C
  H233     1.0000 0.41242  0.30335  0.19376  Biso   1.000  H
  H234     1.0000 0.28930  0.11755  0.15656  Biso   1.000  H
  H235     1.0000 0.32686  0.75017  0.91455  Biso   1.000  H
  C255     1.0000 0.30309  0.78510  0.97469  Biso   1.000  C
  H236     1.0000 0.08518  0.66411  0.97431  Biso   1.000  H
  C256     1.0000 0.15893  0.73380  0.00981  Biso   1.000  C
  H237     1.0000 0.41242  0.69665  0.80620  Biso   1.000  H
  H238     1.0000 0.28930  0.88245  0.84344  Biso   1.000  H
  C257     1.0000 0.86324  0.89782  0.08651  Biso   1.000  C
  H239     1.0000 0.76830  0.95956  0.05324  Biso   1.000  H
  C258     1.0000 0.91131  0.93953  0.15489  Biso   1.000  C
  H240     1.0000 0.85592  0.03842  0.16852  Biso   1.000  H
  H241     1.0000 0.66522  0.07626  0.18748  Biso   1.000  H
  H242     1.0000 0.65973  0.00853  0.15665  Biso   1.000  H
  H243     1.0000 0.56114  0.05718  0.16336  Biso   1.000  H
  H244     1.0000 0.56046  0.27622  0.15736  Biso   1.000  H
  H245     1.0000 0.43322  0.09455  0.11464  Biso   1.000  H
  H246     1.0000 0.88510  0.72940  0.96610  Biso   1.000  H
  C259     1.0000 0.85912  0.69622  0.02569  Biso   1.000  C
  C260     1.0000 0.71688  0.74641  0.06130  Biso   1.000  C
  H247     1.0000 0.64046  0.81658  0.02524  Biso   1.000  H
  H248     1.0000 0.61714  0.69002  0.93069  Biso   1.000  H
  H249     1.0000 0.51482  0.73512  0.92475  Biso   1.000  H
  H250     1.0000 0.57227  0.73459  0.97004  Biso   1.000  H
  H251     1.0000 0.56046  0.72378  0.84264  Biso   1.000  H
  H252     1.0000 0.43322  0.90545  0.88536  Biso   1.000  H
  C261     1.0000 0.19680  0.98792  0.10880  Biso   1.000  C
  H253     1.0000 0.14408  0.96158  0.16852  Biso   1.000  H
  H254     1.0000 0.23177  0.04049  0.05324  Biso   1.000  H
  H255     1.0000 0.35954  0.81658  0.97476  Biso   1.000  H
  C262     1.0000 0.24312  0.77969  0.01139  Biso   1.000  C
  H256     1.0000 0.11490  0.72940  0.03387  Biso   1.000  H
  C263     1.0000 0.91832  0.88860  0.12381  Biso   1.000  C
  H257     1.0000 0.86530  0.86168  0.06524  Biso   1.000  H
  H258     1.0000 0.94362  0.93238  0.18180  Biso   1.000  H
  C264     1.0000 0.80084  0.70163  0.06271  Biso   1.000  C
  H259     1.0000 0.91482  0.66411  0.02569  Biso   1.000  H
  H260     1.0000 0.67314  0.75017  0.08545  Biso   1.000  H
  C265     1.0000 0.25143  0.92188  0.09869  Biso   1.000  C
  C266     1.0000 0.27070  0.81939  0.05039  Biso   1.000  C
  C267     1.0000 0.98339  0.82500  0.12990  Biso   1.000  C
  C268     1.0000 0.81844  0.65859  0.10171  Biso   1.000  C
  C269     1.0000 0.21699  0.88113  0.06328  Biso   1.000  C
  C270     1.0000 0.33242  0.89729  0.12339  Biso   1.000  C
  C271     1.0000 0.35611  0.79718  0.07489  Biso   1.000  C
  H261     1.0000 0.97897  0.78817  0.10915  Biso   1.000  H
  N29      1.0000 0.04381  0.81690  0.16054  Biso   1.000  N
  N30      1.0000 0.89349  0.61768  0.10671  Biso   1.000  N
  H262     1.0000 0.77013  0.66204  0.12429  Biso   1.000  H
  C272     1.0000 0.12312  0.90143  0.03881  Biso   1.000  C
  C273     1.0000 0.36442  0.94292  0.16098  Biso   1.000  C
  C274     1.0000 0.38910  0.83799  0.11050  Biso   1.000  C
  C275     1.0000 0.41844  0.73358  0.06110  Biso   1.000  C
  C276     1.0000 0.10331  0.75129  0.16140  Biso   1.000  C
  C277     1.0000 0.90309  0.58042  0.14581  Biso   1.000  C
  H263     1.0000 0.14118  0.93556  0.01636  Biso   1.000  H
  H264     1.0000 0.07360  0.92300  0.05838  Biso   1.000  H
  H265     1.0000 0.09318  0.85913  0.02563  Biso   1.000  H
  H266     1.0000 0.33478  0.92374  0.18748  Biso   1.000  H
  H267     1.0000 0.34027  0.99147  0.15665  Biso   1.000  H
  H268     1.0000 0.43886  0.94282  0.16336  Biso   1.000  H
  C278     1.0000 0.48442  0.81912  0.13340  Biso   1.000  C
  H269     1.0000 0.38286  0.69002  0.06931  Biso   1.000  H
  H270     1.0000 0.48518  0.73512  0.07525  Biso   1.000  H
  H271     1.0000 0.42773  0.73459  0.02996  Biso   1.000  H
  C279     1.0000 0.07642  0.70772  0.20060  Biso   1.000  C
  H272     1.0000 0.17691  0.76284  0.16195  Biso   1.000  H
  H273     1.0000 0.08937  0.72341  0.13520  Biso   1.000  H
  C280     1.0000 0.99771  0.60268  0.16990  Biso   1.000  C
  H274     1.0000 0.90636  0.52886  0.13988  Biso   1.000  H
  H275     1.0000 0.84244  0.58938  0.16384  Biso   1.000  H
  C281     1.0000 0.49478  0.75632  0.15669  Biso   1.000  C
  C282     1.0000 0.56884  0.86422  0.13208  Biso   1.000  C
  N31      1.0000 0.97943  0.66882  0.19351  Biso   1.000  N
  H276     1.0000 0.13181  0.67354  0.20663  Biso   1.000  H
  H277     1.0000 0.06926  0.73931  0.22581  Biso   1.000  H
  H278     1.0000 0.01760  0.56484  0.19017  Biso   1.000  H
  H279     1.0000 0.05432  0.60968  0.14934  Biso   1.000  H
  C283     1.0000 0.58270  0.74031  0.17869  Biso   1.000  C
  H280     1.0000 0.43962  0.72378  0.15736  Biso   1.000  H
  C284     1.0000 0.65608  0.84938  0.15601  Biso   1.000  C
  H281     1.0000 0.56678  0.90545  0.11464  Biso   1.000  H
  C285     1.0000 0.93051  0.65351  0.23460  Biso   1.000  C
  C286     1.0000 0.66377  0.78669  0.17911  Biso   1.000  C
  H282     1.0000 0.58758  0.69665  0.19376  Biso   1.000  H
  H283     1.0000 0.71070  0.88245  0.15656  Biso   1.000  H
  C287     1.0000 0.86750  0.71493  0.25121  Biso   1.000  C
  H284     1.0000 0.98354  0.64169  0.25599  Biso   1.000  H
  H285     1.0000 0.88594  0.61153  0.23126  Biso   1.000  H
  C288     1.0000 0.75688  0.77482  0.20371  Biso   1.000  C
  N32      1.0000 0.76899  0.72102  0.22844  Biso   1.000  N
  H286     1.0000 0.85455  0.70809  0.28226  Biso   1.000  H
  H287     1.0000 0.90636  0.75945  0.24768  Biso   1.000  H
  H288     1.0000 0.81074  0.80826  0.20124  Biso   1.000  H
  Ne1      1.0000 0.00000  0.50000  0.50000  Biso   1.000  Ne
  He1      1.0000 0.95224  0.23843  0.48147  Biso   1.000  He
  He2      1.0000 0.35739  0.51302  0.48118  Biso   1.000  He
  He3      1.0000 0.98878  0.69934  0.50482  Biso   1.000  He
  Ar1      1.0000 0.00000  0.50000  0.50000  Biso   1.000  Ar
  Ne2      1.0000 0.50001  0.00000  1.00000  Biso   1.000  Ne
  He4      1.0000 0.45227  0.73845  0.98147  Biso   1.000  He
  He5      1.0000 0.85735  0.01303  0.98120  Biso   1.000  He
  He6      1.0000 0.48872  0.19936  0.00482  Biso   1.000  He
  Ar2      1.0000 0.50003  0.00001  0.00000  Biso   1.000  Ar
