data_image0
_cell_length_a       16.186
_cell_length_b       16.186
_cell_length_c       16.61
_cell_angle_alpha    90
_cell_angle_beta     90
_cell_angle_gamma    120

_symmetry_space_group_name_H-M    "P 1"
_symmetry_int_tables_number       1

loop_
  _symmetry_equiv_pos_as_xyz
  'x, y, z'

loop_
  _atom_site_label
  _atom_site_occupancy
  _atom_site_fract_x
  _atom_site_fract_y
  _atom_site_fract_z
  _atom_site_thermal_displace_type
  _atom_site_B_iso_or_equiv
  _atom_site_type_symbol
  C1       1.0000 0.30189  0.33280  0.57459  Biso   1.000  C
  C2       1.0000 0.28777  0.41120  0.57321  Biso   1.000  C
  C3       1.0000 0.30790  0.29292  0.50000  Biso   1.000  C
  H1       1.0000 0.30746  0.30676  0.62420  Biso   1.000  H
  C4       1.0000 0.28159  0.45222  0.50000  Biso   1.000  C
  C5       1.0000 0.28421  0.45301  0.64901  Biso   1.000  C
  C6       1.0000 0.30189  0.33280  0.42541  Biso   1.000  C
  Br1      1.0000 0.33180  0.19098  0.50000  Biso   1.000  Br
  C7       1.0000 0.28777  0.41120  0.42679  Biso   1.000  C
  H2       1.0000 0.27323  0.50630  0.50000  Biso   1.000  H
  N1       1.0000 0.28989  0.41976  0.71583  Biso   1.000  N
  H3       1.0000 0.27742  0.50801  0.64834  Biso   1.000  H
  H4       1.0000 0.30746  0.30676  0.37580  Biso   1.000  H
  C8       1.0000 0.28421  0.45301  0.35099  Biso   1.000  C
  C9       1.0000 0.28747  0.46670  0.79055  Biso   1.000  C
  N2       1.0000 0.28989  0.41976  0.28423  Biso   1.000  N
  H5       1.0000 0.27742  0.50801  0.35172  Biso   1.000  H
  H6       1.0000 0.22300  0.42832  0.81403  Biso   1.000  H
  H7       1.0000 0.33291  0.46342  0.82860  Biso   1.000  H
  C10      1.0000 0.31072  0.57250  0.78784  Biso   1.000  C
  C11      1.0000 0.28747  0.46670  0.20951  Biso   1.000  C
  C12      1.0000 0.40630  0.64641  0.78591  Biso   1.000  C
  C13      1.0000 0.24007  0.59369  0.78591  Biso   1.000  C
  H8       1.0000 0.22300  0.42832  0.18603  Biso   1.000  H
  H9       1.0000 0.33291  0.46342  0.17140  Biso   1.000  H
  C14      1.0000 0.31072  0.57250  0.21222  Biso   1.000  C
  C15      1.0000 0.48590  0.62001  0.78110  Biso   1.000  C
  C16      1.0000 0.42749  0.73822  0.78784  Biso   1.000  C
  C17      1.0000 0.26179  0.68928  0.78784  Biso   1.000  C
  C18      1.0000 0.13409  0.51407  0.78110  Biso   1.000  C
  C19      1.0000 0.40630  0.64641  0.21409  Biso   1.000  C
  C20      1.0000 0.24007  0.59369  0.21409  Biso   1.000  C
  H10      1.0000 0.52280  0.63870  0.83125  Biso   1.000  H
  H11      1.0000 0.45699  0.55095  0.77339  Biso   1.000  H
  H12      1.0000 0.52821  0.65347  0.73570  Biso   1.000  H
  C21      1.0000 0.53326  0.82076  0.79055  Biso   1.000  C
  C22      1.0000 0.35363  0.75991  0.78591  Biso   1.000  C
  C23      1.0000 0.17917  0.71247  0.79055  Biso   1.000  C
  H13      1.0000 0.11590  0.47719  0.83125  Biso   1.000  H
  H14      1.0000 0.09398  0.54296  0.77339  Biso   1.000  H
  H15      1.0000 0.12529  0.47177  0.73570  Biso   1.000  H
  C24      1.0000 0.48590  0.62001  0.21890  Biso   1.000  C
  C25      1.0000 0.42749  0.73822  0.21222  Biso   1.000  C
  C26      1.0000 0.26179  0.68928  0.21222  Biso   1.000  C
  C27      1.0000 0.13409  0.51407  0.21890  Biso   1.000  C
  N3       1.0000 0.58015  0.87006  0.71583  Biso   1.000  N
  H16      1.0000 0.57167  0.79465  0.81403  Biso   1.000  H
  H17      1.0000 0.53662  0.86949  0.82860  Biso   1.000  H
  C28      1.0000 0.38001  0.86592  0.78110  Biso   1.000  C
  N4       1.0000 0.12992  0.71011  0.71583  Biso   1.000  N
  H18      1.0000 0.20530  0.77696  0.81403  Biso   1.000  H
  H19      1.0000 0.13047  0.66710  0.82860  Biso   1.000  H
  H20      1.0000 0.52280  0.63870  0.16881  Biso   1.000  H
  H21      1.0000 0.45699  0.55095  0.22661  Biso   1.000  H
  H22      1.0000 0.52821  0.65347  0.26430  Biso   1.000  H
  C29      1.0000 0.53326  0.82076  0.20951  Biso   1.000  C
  C30      1.0000 0.35363  0.75991  0.21409  Biso   1.000  C
  C31      1.0000 0.17917  0.71247  0.20951  Biso   1.000  C
  H23      1.0000 0.11590  0.47719  0.16881  Biso   1.000  H
  H24      1.0000 0.09398  0.54296  0.22661  Biso   1.000  H
  H25      1.0000 0.12529  0.47177  0.26430  Biso   1.000  H
  C32      1.0000 0.54700  0.83118  0.64901  Biso   1.000  C
  H26      1.0000 0.36131  0.88411  0.83125  Biso   1.000  H
  H27      1.0000 0.44899  0.90601  0.77339  Biso   1.000  H
  H28      1.0000 0.34653  0.87469  0.73570  Biso   1.000  H
  C33      1.0000 0.16880  0.71582  0.64901  Biso   1.000  C
  N5       1.0000 0.58015  0.87006  0.28423  Biso   1.000  N
  H29      1.0000 0.57167  0.79465  0.18603  Biso   1.000  H
  H30      1.0000 0.53662  0.86949  0.17140  Biso   1.000  H
  C34      1.0000 0.38001  0.86592  0.21890  Biso   1.000  C
  N6       1.0000 0.12992  0.71011  0.28423  Biso   1.000  N
  H31      1.0000 0.20530  0.77696  0.18603  Biso   1.000  H
  H32      1.0000 0.13047  0.66710  0.17140  Biso   1.000  H
  C35      1.0000 0.58881  0.87662  0.57321  Biso   1.000  C
  H33      1.0000 0.49201  0.76940  0.64834  Biso   1.000  H
  C36      1.0000 0.12342  0.71218  0.57321  Biso   1.000  C
  H34      1.0000 0.23063  0.72260  0.64834  Biso   1.000  H
  C37      1.0000 0.54700  0.83118  0.35099  Biso   1.000  C
  H35      1.0000 0.36131  0.88411  0.16881  Biso   1.000  H
  H36      1.0000 0.44899  0.90601  0.22661  Biso   1.000  H
  H37      1.0000 0.34653  0.87469  0.26430  Biso   1.000  H
  C38      1.0000 0.16880  0.71582  0.35099  Biso   1.000  C
  C39      1.0000 0.54777  0.82939  0.50000  Biso   1.000  C
  C40      1.0000 0.66716  0.96908  0.57459  Biso   1.000  C
  C41      1.0000 0.17057  0.71839  0.50000  Biso   1.000  C
  C42      1.0000 0.03091  0.69806  0.57459  Biso   1.000  C
  C43      1.0000 0.58881  0.87662  0.42679  Biso   1.000  C
  H38      1.0000 0.49201  0.76940  0.35172  Biso   1.000  H
  C44      1.0000 0.12342  0.71218  0.42679  Biso   1.000  C
  H39      1.0000 0.23063  0.72260  0.35172  Biso   1.000  H
  H40      1.0000 0.49367  0.76690  0.50000  Biso   1.000  H
  C45      1.0000 0.70709  0.01495  0.50000  Biso   1.000  C
  H41      1.0000 0.69316  0.00068  0.62420  Biso   1.000  H
  H42      1.0000 0.23311  0.72681  0.50000  Biso   1.000  H
  C46      1.0000 0.98498  0.69206  0.50000  Biso   1.000  C
  H43      1.0000 0.99928  0.69249  0.62420  Biso   1.000  H
  C47      1.0000 0.66716  0.96908  0.42541  Biso   1.000  C
  C48      1.0000 0.03091  0.69806  0.42541  Biso   1.000  C
  Br2      1.0000 0.80900  0.14079  0.50000  Biso   1.000  Br
  Br3      1.0000 0.85917  0.66817  0.50000  Biso   1.000  Br
  H44      1.0000 0.69316  0.00068  0.37580  Biso   1.000  H
  H45      1.0000 0.99928  0.69249  0.37580  Biso   1.000  H
  C49      1.0000 0.09691  0.06877  0.78374  Biso   1.000  C
  C50      1.0000 0.09694  0.06884  0.78374  Biso   1.000  C
  C51      1.0000 0.09685  0.06877  0.78374  Biso   1.000  C
  C52      1.0000 0.09688  0.06884  0.78374  Biso   1.000  C
  H46      1.0000 0.21520  0.20403  0.76321  Biso   1.000  H
  H47      1.0000 0.23284  0.14824  0.83462  Biso   1.000  H
  H48      1.0000 0.23652  0.11978  0.74293  Biso   1.000  H
  H49      1.0000 0.23274  0.14817  0.83462  Biso   1.000  H
  C53      1.0000 0.03060  0.09752  0.78663  Biso   1.000  C
  C54      1.0000 0.06693  0.96940  0.78663  Biso   1.000  C
  C55      1.0000 0.20526  0.14189  0.78079  Biso   1.000  C
  C56      1.0000 0.06165  0.20004  0.79284  Biso   1.000  C
  C57      1.0000 0.06159  0.20004  0.79284  Biso   1.000  C
  C58      1.0000 0.93120  0.02811  0.78374  Biso   1.000  C
  C59      1.0000 0.97189  0.90312  0.78374  Biso   1.000  C
  C60      1.0000 0.97195  0.90312  0.78374  Biso   1.000  C
  C61      1.0000 0.13838  0.93843  0.79284  Biso   1.000  C
  N7       1.0000 0.06090  0.24969  0.71674  Biso   1.000  N
  H50      1.0000 0.12719  0.23349  0.81481  Biso   1.000  H
  H51      1.0000 0.02003  0.20724  0.83251  Biso   1.000  H
  C62      1.0000 0.90247  0.93308  0.78663  Biso   1.000  C
  C63      1.0000 0.85810  0.06342  0.78079  Biso   1.000  C
  C64      1.0000 0.93657  0.79469  0.78079  Biso   1.000  C
  H52      1.0000 0.18722  0.98002  0.83251  Biso   1.000  H
  H53      1.0000 0.10630  0.87280  0.81481  Biso   1.000  H
  N8       1.0000 0.18884  0.93915  0.71674  Biso   1.000  N
  N9       1.0000 0.18874  0.93908  0.71674  Biso   1.000  N
  C65      1.0000 0.05397  0.21038  0.64901  Biso   1.000  C
  C66      1.0000 0.80001  0.86160  0.79284  Biso   1.000  C
  H54      1.0000 0.79604  0.01120  0.76321  Biso   1.000  H
  H55      1.0000 0.85177  0.08461  0.83462  Biso   1.000  H
  H56      1.0000 0.88018  0.11671  0.74293  Biso   1.000  H
  H57      1.0000 0.91543  0.76722  0.83462  Biso   1.000  H
  H58      1.0000 0.88330  0.76351  0.74293  Biso   1.000  H
  H59      1.0000 0.98880  0.78484  0.76321  Biso   1.000  H
  H60      1.0000 0.91537  0.76722  0.83462  Biso   1.000  H
  C67      1.0000 0.15643  0.94600  0.64901  Biso   1.000  C
  C68      1.0000 0.05169  0.25611  0.57261  Biso   1.000  C
  H61      1.0000 0.05042  0.15003  0.64744  Biso   1.000  H
  H62      1.0000 0.79279  0.81281  0.83251  Biso   1.000  H
  H63      1.0000 0.76651  0.89370  0.81481  Biso   1.000  H
  N10      1.0000 0.75036  0.81124  0.71674  Biso   1.000  N
  C69      1.0000 0.20444  0.94835  0.57261  Biso   1.000  C
  C70      1.0000 0.20434  0.94828  0.57261  Biso   1.000  C
  H64      1.0000 0.09962  0.94963  0.64744  Biso   1.000  H
  C71      1.0000 0.05942  0.21659  0.50000  Biso   1.000  C
  C72      1.0000 0.05936  0.21659  0.50000  Biso   1.000  C
  C73      1.0000 0.03710  0.33294  0.57134  Biso   1.000  C
  C74      1.0000 0.78960  0.84362  0.64901  Biso   1.000  C
  C75      1.0000 0.15718  0.94057  0.50000  Biso   1.000  C
  C76      1.0000 0.15721  0.94065  0.50000  Biso   1.000  C
  C77      1.0000 0.29580  0.96290  0.57134  Biso   1.000  C
  C78      1.0000 0.05169  0.25611  0.42739  Biso   1.000  C
  H65      1.0000 0.06991  0.16380  0.50000  Biso   1.000  H
  H66      1.0000 0.06985  0.16380  0.50000  Biso   1.000  H
  C79      1.0000 0.03132  0.37068  0.50000  Biso   1.000  C
  C80      1.0000 0.03126  0.37068  0.50000  Biso   1.000  C
  H67      1.0000 0.03109  0.35948  0.62041  Biso   1.000  H
  C81      1.0000 0.74391  0.79561  0.57261  Biso   1.000  C
  H68      1.0000 0.84999  0.90041  0.64744  Biso   1.000  H
  C82      1.0000 0.20444  0.94835  0.42739  Biso   1.000  C
  C83      1.0000 0.20434  0.94828  0.42739  Biso   1.000  C
  H69      1.0000 0.09386  0.93009  0.50000  Biso   1.000  H
  C84      1.0000 0.33934  0.96868  0.50000  Biso   1.000  C
  H70      1.0000 0.32839  0.96890  0.62041  Biso   1.000  H
  C85      1.0000 0.05397  0.21038  0.35099  Biso   1.000  C
  C86      1.0000 0.03710  0.33294  0.42872  Biso   1.000  C
  Br4      1.0000 0.00680  0.47312  0.50000  Biso   1.000  Br
  C87      1.0000 0.78336  0.84277  0.50000  Biso   1.000  C
  C88      1.0000 0.78340  0.84284  0.50000  Biso   1.000  C
  C89      1.0000 0.66708  0.70423  0.57134  Biso   1.000  C
  C90      1.0000 0.15643  0.94600  0.35099  Biso   1.000  C
  C91      1.0000 0.29580  0.96290  0.42872  Biso   1.000  C
  Br5      1.0000 0.46634  0.99322  0.50000  Biso   1.000  Br
  N11      1.0000 0.06090  0.24969  0.28332  Biso   1.000  N
  H71      1.0000 0.05042  0.15003  0.35262  Biso   1.000  H
  H72      1.0000 0.03109  0.35948  0.37959  Biso   1.000  H
  C92      1.0000 0.74391  0.79561  0.42739  Biso   1.000  C
  H73      1.0000 0.83617  0.90612  0.50000  Biso   1.000  H
  C93      1.0000 0.62928  0.66064  0.50000  Biso   1.000  C
  H74      1.0000 0.64052  0.67162  0.62041  Biso   1.000  H
  N12      1.0000 0.18884  0.93915  0.28332  Biso   1.000  N
  N13      1.0000 0.18874  0.93908  0.28332  Biso   1.000  N
  H75      1.0000 0.09962  0.94963  0.35262  Biso   1.000  H
  H76      1.0000 0.32839  0.96890  0.37959  Biso   1.000  H
  C94      1.0000 0.06165  0.20004  0.20722  Biso   1.000  C
  C95      1.0000 0.06159  0.20004  0.20722  Biso   1.000  C
  C96      1.0000 0.78960  0.84362  0.35099  Biso   1.000  C
  C97      1.0000 0.66708  0.70423  0.42872  Biso   1.000  C
  Br6      1.0000 0.52690  0.53373  0.50000  Biso   1.000  Br
  C98      1.0000 0.13838  0.93843  0.20722  Biso   1.000  C
  C99      1.0000 0.03060  0.09752  0.21343  Biso   1.000  C
  H77      1.0000 0.12719  0.23349  0.18519  Biso   1.000  H
  H78      1.0000 0.02003  0.20724  0.16749  Biso   1.000  H
  N14      1.0000 0.75036  0.81124  0.28332  Biso   1.000  N
  H79      1.0000 0.84999  0.90041  0.35262  Biso   1.000  H
  H80      1.0000 0.64052  0.67162  0.37959  Biso   1.000  H
  C100     1.0000 0.06693  0.96940  0.21343  Biso   1.000  C
  H81      1.0000 0.18722  0.98002  0.16749  Biso   1.000  H
  H82      1.0000 0.10630  0.87280  0.18519  Biso   1.000  H
  C101     1.0000 0.93120  0.02811  0.21632  Biso   1.000  C
  C102     1.0000 0.09691  0.06877  0.21632  Biso   1.000  C
  C103     1.0000 0.09694  0.06884  0.21632  Biso   1.000  C
  C104     1.0000 0.09685  0.06877  0.21632  Biso   1.000  C
  C105     1.0000 0.09688  0.06884  0.21632  Biso   1.000  C
  C106     1.0000 0.80001  0.86160  0.20722  Biso   1.000  C
  C107     1.0000 0.97189  0.90312  0.21632  Biso   1.000  C
  C108     1.0000 0.97195  0.90312  0.21632  Biso   1.000  C
  C109     1.0000 0.90247  0.93308  0.21343  Biso   1.000  C
  C110     1.0000 0.85810  0.06342  0.21921  Biso   1.000  C
  C111     1.0000 0.20526  0.14189  0.21921  Biso   1.000  C
  H83      1.0000 0.79279  0.81281  0.16749  Biso   1.000  H
  H84      1.0000 0.76651  0.89370  0.18519  Biso   1.000  H
  C112     1.0000 0.93657  0.79469  0.21921  Biso   1.000  C
  H85      1.0000 0.79604  0.01120  0.23679  Biso   1.000  H
  H86      1.0000 0.85177  0.08461  0.16538  Biso   1.000  H
  H87      1.0000 0.88018  0.11671  0.25713  Biso   1.000  H
  H88      1.0000 0.21520  0.20403  0.23679  Biso   1.000  H
  H89      1.0000 0.23284  0.14824  0.16538  Biso   1.000  H
  H90      1.0000 0.23652  0.11978  0.25713  Biso   1.000  H
  H91      1.0000 0.23274  0.14817  0.16538  Biso   1.000  H
  H92      1.0000 0.91543  0.76722  0.16538  Biso   1.000  H
  H93      1.0000 0.88330  0.76351  0.25713  Biso   1.000  H
  H94      1.0000 0.98880  0.78484  0.23679  Biso   1.000  H
  H95      1.0000 0.91537  0.76722  0.16538  Biso   1.000  H
  C113     1.0000 0.49458  0.35392  0.71300  Biso   1.000  C
  H96      1.0000 0.48052  0.36683  0.65852  Biso   1.000  H
  H97      1.0000 0.44098  0.29392  0.73257  Biso   1.000  H
  H98      1.0000 0.44098  0.29392  0.73263  Biso   1.000  H
  H99      1.0000 0.50448  0.40621  0.74895  Biso   1.000  H
  C114     1.0000 0.58628  0.34593  0.71114  Biso   1.000  C
  C115     1.0000 0.67209  0.42190  0.71060  Biso   1.000  C
  C116     1.0000 0.57808  0.25019  0.71060  Biso   1.000  C
  C117     1.0000 0.68338  0.52121  0.70584  Biso   1.000  C
  C118     1.0000 0.75961  0.41370  0.71114  Biso   1.000  C
  C119     1.0000 0.47880  0.16223  0.70584  Biso   1.000  C
  C120     1.0000 0.65413  0.24041  0.71114  Biso   1.000  C
  H100     1.0000 0.74372  0.56380  0.67730  Biso   1.000  H
  N15      1.0000 0.68411  0.56579  0.78423  Biso   1.000  N
  H101     1.0000 0.63059  0.51721  0.67273  Biso   1.000  H
  C121     1.0000 0.85926  0.50537  0.71300  Biso   1.000  C
  C122     1.0000 0.74975  0.32788  0.71060  Biso   1.000  C
  H102     1.0000 0.43618  0.17992  0.67730  Biso   1.000  H
  N16      1.0000 0.43416  0.11828  0.78423  Biso   1.000  N
  H103     1.0000 0.48282  0.11343  0.67273  Biso   1.000  H
  C123     1.0000 0.64609  0.14068  0.71300  Biso   1.000  C
  C124     1.0000 0.68492  0.52863  0.84871  Biso   1.000  C
  H104     1.0000 0.88628  0.51949  0.65852  Biso   1.000  H
  H105     1.0000 0.85290  0.55902  0.73257  Biso   1.000  H
  H106     1.0000 0.85290  0.55902  0.73263  Biso   1.000  H
  H107     1.0000 0.90172  0.49552  0.74895  Biso   1.000  H
  C125     1.0000 0.83778  0.31660  0.70584  Biso   1.000  C
  C126     1.0000 0.47139  0.15630  0.84871  Biso   1.000  C
  H108     1.0000 0.63322  0.11372  0.65852  Biso   1.000  H
  H109     1.0000 0.70607  0.14710  0.73257  Biso   1.000  H
  H110     1.0000 0.70607  0.14710  0.73263  Biso   1.000  H
  H111     1.0000 0.59382  0.09831  0.74895  Biso   1.000  H
  H112     1.0000 0.68769  0.47127  0.84901  Biso   1.000  H
  C127     1.0000 0.68161  0.57328  0.92667  Biso   1.000  C
  C128     1.0000 0.68161  0.57328  0.92673  Biso   1.000  C
  H113     1.0000 0.82012  0.25632  0.67730  Biso   1.000  H
  N17      1.0000 0.88166  0.31589  0.78423  Biso   1.000  N
  H114     1.0000 0.88660  0.36940  0.67273  Biso   1.000  H
  H115     1.0000 0.52867  0.21637  0.84901  Biso   1.000  H
  C129     1.0000 0.42669  0.10829  0.92667  Biso   1.000  C
  C130     1.0000 0.42669  0.10829  0.92673  Biso   1.000  C
  C131     1.0000 0.66908  0.64990  0.92800  Biso   1.000  C
  C132     1.0000 0.68588  0.53141  0.00000  Biso   1.000  C
  C133     1.0000 0.84370  0.31511  0.84871  Biso   1.000  C
  C134     1.0000 0.35007  0.01919  0.92800  Biso   1.000  C
  C135     1.0000 0.46859  0.15452  0.00000  Biso   1.000  C
  H116     1.0000 0.66318  0.67665  0.87899  Biso   1.000  H
  C136     1.0000 0.66498  0.68878  0.00000  Biso   1.000  C
  H117     1.0000 0.66318  0.67665  0.87905  Biso   1.000  H
  H118     1.0000 0.69167  0.47576  0.00000  Biso   1.000  H
  C137     1.0000 0.68161  0.57328  0.07333  Biso   1.000  C
  H119     1.0000 0.78362  0.31232  0.84901  Biso   1.000  H
  C138     1.0000 0.89168  0.31839  0.92667  Biso   1.000  C
  C139     1.0000 0.89168  0.31839  0.92673  Biso   1.000  C
  H120     1.0000 0.32330  0.98652  0.87899  Biso   1.000  H
  C140     1.0000 0.31121  0.97617  0.00000  Biso   1.000  C
  H121     1.0000 0.32330  0.98652  0.87905  Biso   1.000  H
  H122     1.0000 0.52416  0.21587  0.00000  Biso   1.000  H
  C141     1.0000 0.42669  0.10829  0.07333  Biso   1.000  C
  Br7      1.0000 0.65263  0.80000  0.00000  Biso   1.000  Br
  C142     1.0000 0.66908  0.64990  0.07200  Biso   1.000  C
  C143     1.0000 0.68492  0.52863  0.15135  Biso   1.000  C
  C144     1.0000 0.98077  0.33087  0.92800  Biso   1.000  C
  C145     1.0000 0.84549  0.31411  0.00000  Biso   1.000  C
  Br8      1.0000 0.20000  0.85261  0.00000  Biso   1.000  Br
  C146     1.0000 0.35007  0.01919  0.07200  Biso   1.000  C
  C147     1.0000 0.47139  0.15630  0.15135  Biso   1.000  C
  H123     1.0000 0.66318  0.67665  0.12101  Biso   1.000  H
  N18      1.0000 0.68411  0.56579  0.21583  Biso   1.000  N
  H124     1.0000 0.68769  0.47127  0.15099  Biso   1.000  H
  H125     1.0000 0.68769  0.47127  0.15105  Biso   1.000  H
  H126     1.0000 0.01351  0.33679  0.87899  Biso   1.000  H
  C148     1.0000 0.02380  0.33501  0.00000  Biso   1.000  C
  H127     1.0000 0.01351  0.33679  0.87905  Biso   1.000  H
  H128     1.0000 0.78409  0.30833  0.00000  Biso   1.000  H
  C149     1.0000 0.89168  0.31839  0.07333  Biso   1.000  C
  H129     1.0000 0.32330  0.98652  0.12101  Biso   1.000  H
  N19      1.0000 0.43416  0.11828  0.21583  Biso   1.000  N
  H130     1.0000 0.52867  0.21637  0.15099  Biso   1.000  H
  H131     1.0000 0.52867  0.21637  0.15105  Biso   1.000  H
  C150     1.0000 0.68338  0.52121  0.29422  Biso   1.000  C
  C151     1.0000 0.98077  0.33087  0.07200  Biso   1.000  C
  Br9      1.0000 0.14739  0.34742  0.00000  Biso   1.000  Br
  C152     1.0000 0.84370  0.31511  0.15135  Biso   1.000  C
  C153     1.0000 0.47880  0.16223  0.29422  Biso   1.000  C
  H132     1.0000 0.63059  0.51721  0.32733  Biso   1.000  H
  H133     1.0000 0.74372  0.56380  0.32270  Biso   1.000  H
  C154     1.0000 0.67209  0.42190  0.28940  Biso   1.000  C
  H134     1.0000 0.74372  0.56380  0.32276  Biso   1.000  H
  H135     1.0000 0.01351  0.33679  0.12101  Biso   1.000  H
  N20      1.0000 0.88166  0.31589  0.21583  Biso   1.000  N
  H136     1.0000 0.78362  0.31232  0.15099  Biso   1.000  H
  H137     1.0000 0.78362  0.31232  0.15105  Biso   1.000  H
  H138     1.0000 0.48282  0.11343  0.32733  Biso   1.000  H
  H139     1.0000 0.43618  0.17992  0.32270  Biso   1.000  H
  C155     1.0000 0.57808  0.25019  0.28940  Biso   1.000  C
  H140     1.0000 0.43618  0.17992  0.32276  Biso   1.000  H
  C156     1.0000 0.75961  0.41370  0.28892  Biso   1.000  C
  C157     1.0000 0.58628  0.34593  0.28892  Biso   1.000  C
  C158     1.0000 0.83778  0.31660  0.29422  Biso   1.000  C
  C159     1.0000 0.65413  0.24041  0.28892  Biso   1.000  C
  C160     1.0000 0.85926  0.50537  0.28700  Biso   1.000  C
  C161     1.0000 0.74975  0.32788  0.28940  Biso   1.000  C
  C162     1.0000 0.85926  0.50537  0.28706  Biso   1.000  C
  C163     1.0000 0.49458  0.35392  0.28700  Biso   1.000  C
  C164     1.0000 0.49458  0.35392  0.28706  Biso   1.000  C
  H141     1.0000 0.88660  0.36940  0.32733  Biso   1.000  H
  H142     1.0000 0.82012  0.25632  0.32270  Biso   1.000  H
  H143     1.0000 0.82012  0.25632  0.32276  Biso   1.000  H
  C165     1.0000 0.64609  0.14068  0.28700  Biso   1.000  C
  C166     1.0000 0.64609  0.14068  0.28706  Biso   1.000  C
  H144     1.0000 0.85290  0.55902  0.26743  Biso   1.000  H
  H145     1.0000 0.90172  0.49552  0.25111  Biso   1.000  H
  H146     1.0000 0.88628  0.51949  0.34148  Biso   1.000  H
  H147     1.0000 0.88628  0.51949  0.34154  Biso   1.000  H
  H148     1.0000 0.44098  0.29392  0.26743  Biso   1.000  H
  H149     1.0000 0.50448  0.40621  0.25111  Biso   1.000  H
  H150     1.0000 0.48052  0.36683  0.34148  Biso   1.000  H
  H151     1.0000 0.48052  0.36683  0.34154  Biso   1.000  H
  H152     1.0000 0.70607  0.14710  0.26743  Biso   1.000  H
  H153     1.0000 0.59382  0.09831  0.25111  Biso   1.000  H
  H154     1.0000 0.63322  0.11372  0.34148  Biso   1.000  H
  H155     1.0000 0.63322  0.11372  0.34154  Biso   1.000  H
