data_image0
_cell_length_a       19.51
_cell_length_b       19.51
_cell_length_c       14.116
_cell_angle_alpha    90
_cell_angle_beta     90
_cell_angle_gamma    120

_symmetry_space_group_name_H-M    "P 1"
_symmetry_int_tables_number       1

loop_
  _symmetry_equiv_pos_as_xyz
  'x, y, z'

loop_
  _atom_site_label
  _atom_site_occupancy
  _atom_site_fract_x
  _atom_site_fract_y
  _atom_site_fract_z
  _atom_site_thermal_displace_type
  _atom_site_B_iso_or_equiv
  _atom_site_type_symbol
  C1       1.0000 0.68062  0.57220  0.44928  Biso   1.000  C
  C2       1.0000 0.71061  0.63742  0.37596  Biso   1.000  C
  H1       1.0000 0.68614  0.59493  0.51261  Biso   1.000  H
  H2       1.0000 0.62471  0.53409  0.43702  Biso   1.000  H
  H3       1.0000 0.71140  0.54509  0.44559  Biso   1.000  H
  C3       1.0000 0.67999  0.61789  0.28337  Biso   1.000  C
  C4       1.0000 0.76602  0.71430  0.39912  Biso   1.000  C
  C5       1.0000 0.62810  0.53391  0.25489  Biso   1.000  C
  C6       1.0000 0.70374  0.67873  0.21593  Biso   1.000  C
  C7       1.0000 0.79083  0.77550  0.33168  Biso   1.000  C
  C8       1.0000 0.80505  0.73384  0.49610  Biso   1.000  C
  N1       1.0000 0.54299  0.50639  0.26778  Biso   1.000  N
  H4       1.0000 0.64210  0.50000  0.29279  Biso   1.000  H
  H5       1.0000 0.63802  0.52781  0.18738  Biso   1.000  H
  C9       1.0000 0.75911  0.75573  0.23831  Biso   1.000  C
  C10      1.0000 0.66621  0.65790  0.11710  Biso   1.000  C
  C11      1.0000 0.85020  0.85990  0.35527  Biso   1.000  C
  N2       1.0000 0.76763  0.75372  0.57368  Biso   1.000  N
  H6       1.0000 0.85953  0.77893  0.48817  Biso   1.000  H
  H7       1.0000 0.80982  0.68791  0.51679  Biso   1.000  H
  C12      1.0000 0.49882  0.46632  0.20232  Biso   1.000  C
  C13      1.0000 0.78801  0.81959  0.16428  Biso   1.000  C
  H8       1.0000 0.61173  0.61393  0.12199  Biso   1.000  H
  H9       1.0000 0.66621  0.70412  0.08990  Biso   1.000  H
  H10      1.0000 0.69680  0.64239  0.07630  Biso   1.000  H
  H11      1.0000 0.90265  0.87203  0.33281  Biso   1.000  H
  H12      1.0000 0.83491  0.89523  0.32438  Biso   1.000  H
  H13      1.0000 0.85180  0.86742  0.42406  Biso   1.000  H
  C14      1.0000 0.69659  0.73650  0.56617  Biso   1.000  C
  C15      1.0000 0.41131  0.42980  0.20310  Biso   1.000  C
  H14      1.0000 0.52249  0.45821  0.14778  Biso   1.000  H
  N3       1.0000 0.74662  0.86422  0.15451  Biso   1.000  N
  H15      1.0000 0.78612  0.79509  0.10230  Biso   1.000  H
  H16      1.0000 0.84435  0.85795  0.17788  Biso   1.000  H
  H17      1.0000 0.67008  0.71679  0.50751  Biso   1.000  H
  C16      1.0000 0.65311  0.74621  0.64622  Biso   1.000  C
  C17      1.0000 0.36771  0.37878  0.13226  Biso   1.000  C
  C18      1.0000 0.37193  0.44401  0.27699  Biso   1.000  C
  C19      1.0000 0.69222  0.85179  0.21118  Biso   1.000  C
  C20      1.0000 0.69254  0.78734  0.72655  Biso   1.000  C
  C21      1.0000 0.57150  0.71040  0.64190  Biso   1.000  C
  C22      1.0000 0.28631  0.34002  0.13361  Biso   1.000  C
  H18      1.0000 0.39411  0.37008  0.08111  Biso   1.000  H
  C23      1.0000 0.29052  0.40554  0.27720  Biso   1.000  C
  H19      1.0000 0.40119  0.47999  0.32637  Biso   1.000  H
  C24      1.0000 0.64843  0.89470  0.20742  Biso   1.000  C
  H20      1.0000 0.67852  0.81261  0.25878  Biso   1.000  H
  H21      1.0000 0.74862  0.81450  0.72861  Biso   1.000  H
  C25      1.0000 0.64952  0.78894  0.80526  Biso   1.000  C
  C26      1.0000 0.52813  0.71111  0.71996  Biso   1.000  C
  H22      1.0000 0.54472  0.68513  0.58508  Biso   1.000  H
  C27      1.0000 0.24629  0.35162  0.20742  Biso   1.000  C
  H23      1.0000 0.25723  0.30492  0.08338  Biso   1.000  H
  H24      1.0000 0.26401  0.41619  0.32651  Biso   1.000  H
  C28      1.0000 0.66003  0.94631  0.13361  Biso   1.000  C
  C29      1.0000 0.59452  0.88499  0.27720  Biso   1.000  C
  H25      1.0000 0.67653  0.81723  0.86058  Biso   1.000  H
  C30      1.0000 0.56800  0.74922  0.80228  Biso   1.000  C
  H26      1.0000 0.47212  0.68601  0.71699  Biso   1.000  H
  C31      1.0000 0.15960  0.30782  0.21118  Biso   1.000  C
  C32      1.0000 0.62122  0.98892  0.13226  Biso   1.000  C
  H27      1.0000 0.69514  0.95235  0.08338  Biso   1.000  H
  H28      1.0000 0.58383  0.84783  0.32651  Biso   1.000  H
  C33      1.0000 0.55601  0.92790  0.27699  Biso   1.000  C
  C34      1.0000 0.52119  0.74183  0.88998  Biso   1.000  C
  N4       1.0000 0.11759  0.25343  0.15451  Biso   1.000  N
  H29      1.0000 0.13409  0.32149  0.25878  Biso   1.000  H
  C35      1.0000 0.57021  0.98153  0.20310  Biso   1.000  C
  H30      1.0000 0.62990  0.02402  0.08111  Biso   1.000  H
  H31      1.0000 0.52001  0.92122  0.32637  Biso   1.000  H
  N5       1.0000 0.55361  0.76402  0.96798  Biso   1.000  N
  H32      1.0000 0.46550  0.71963  0.88538  Biso   1.000  H
  C36      1.0000 0.03158  0.21200  0.16428  Biso   1.000  C
  C37      1.0000 0.53372  0.03248  0.20232  Biso   1.000  C
  C38      1.0000 0.50601  0.75082  0.05327  Biso   1.000  C
  H33      1.0000 0.00900  0.21389  0.10230  Biso   1.000  H
  H34      1.0000 0.01358  0.15572  0.17788  Biso   1.000  H
  C39      1.0000 0.99661  0.24088  0.23831  Biso   1.000  C
  N6       1.0000 0.49358  0.03657  0.26778  Biso   1.000  N
  H35      1.0000 0.54177  0.06427  0.14778  Biso   1.000  H
  C40      1.0000 0.41590  0.70714  0.04520  Biso   1.000  C
  H36      1.0000 0.52012  0.72123  0.09882  Biso   1.000  H
  H37      1.0000 0.52274  0.80314  0.08189  Biso   1.000  H
  C41      1.0000 0.97500  0.29628  0.21593  Biso   1.000  C
  C42      1.0000 0.98472  0.20922  0.33168  Biso   1.000  C
  C43      1.0000 0.46612  0.09421  0.25489  Biso   1.000  C
  C44      1.0000 0.37361  0.62440  0.04378  Biso   1.000  C
  C45      1.0000 0.37564  0.74922  0.04378  Biso   1.000  C
  C46      1.0000 0.93792  0.32001  0.28337  Biso   1.000  C
  C47      1.0000 0.99171  0.33380  0.11710  Biso   1.000  C
  C48      1.0000 0.00970  0.14980  0.35527  Biso   1.000  C
  C49      1.0000 0.94833  0.23402  0.39912  Biso   1.000  C
  C50      1.0000 0.38209  0.06208  0.28337  Biso   1.000  C
  H38      1.0000 0.50001  0.14209  0.29279  Biso   1.000  H
  H39      1.0000 0.47222  0.11019  0.18738  Biso   1.000  H
  C51      1.0000 0.29118  0.58410  0.04520  Biso   1.000  C
  C52      1.0000 0.41761  0.57853  0.04272  Biso   1.000  C
  C53      1.0000 0.29289  0.70880  0.04520  Biso   1.000  C
  C54      1.0000 0.42151  0.83913  0.04272  Biso   1.000  C
  C55      1.0000 0.92682  0.28941  0.37596  Biso   1.000  C
  C56      1.0000 0.90585  0.37192  0.25489  Biso   1.000  C
  H40      1.0000 0.00220  0.38831  0.12199  Biso   1.000  H
  H41      1.0000 0.03789  0.33380  0.08990  Biso   1.000  H
  H42      1.0000 0.94561  0.30321  0.07630  Biso   1.000  H
  H43      1.0000 0.06032  0.16513  0.32438  Biso   1.000  H
  H44      1.0000 0.01562  0.14820  0.42406  Biso   1.000  H
  H45      1.0000 0.96942  0.09742  0.33281  Biso   1.000  H
  C57      1.0000 0.92882  0.19501  0.49610  Biso   1.000  C
  C58      1.0000 0.32130  0.02497  0.21593  Biso   1.000  C
  C59      1.0000 0.36259  0.07320  0.37596  Biso   1.000  C
  C60      1.0000 0.24480  0.49402  0.05327  Biso   1.000  C
  C61      1.0000 0.25083  0.62641  0.04378  Biso   1.000  C
  H46      1.0000 0.42509  0.56622  0.10789  Biso   1.000  H
  H47      1.0000 0.38681  0.52923  0.00708  Biso   1.000  H
  H48      1.0000 0.46932  0.61049  0.01247  Biso   1.000  H
  C62      1.0000 0.24920  0.75520  0.05327  Biso   1.000  C
  H49      1.0000 0.43380  0.85889  0.10789  Biso   1.000  H
  H50      1.0000 0.47077  0.85759  0.00708  Biso   1.000  H
  H51      1.0000 0.38954  0.85883  0.01247  Biso   1.000  H
  C63      1.0000 0.89164  0.31942  0.44928  Biso   1.000  C
  N7       1.0000 0.96342  0.45703  0.26778  Biso   1.000  N
  H52      1.0000 0.85793  0.35789  0.29279  Biso   1.000  H
  H53      1.0000 0.88983  0.36204  0.18738  Biso   1.000  H
  N8       1.0000 0.98612  0.23242  0.57368  Biso   1.000  N
  H54      1.0000 0.91941  0.14051  0.48817  Biso   1.000  H
  H55      1.0000 0.87814  0.19022  0.51679  Biso   1.000  H
  C64      1.0000 0.24428  0.00336  0.23831  Biso   1.000  C
  C65      1.0000 0.34212  0.00828  0.11710  Biso   1.000  C
  C66      1.0000 0.28573  0.05172  0.39912  Biso   1.000  C
  C67      1.0000 0.42781  0.10842  0.44928  Biso   1.000  C
  N9       1.0000 0.21040  0.44643  0.96798  Biso   1.000  N
  H56      1.0000 0.20111  0.47993  0.09882  Biso   1.000  H
  H57      1.0000 0.28044  0.47733  0.08189  Biso   1.000  H
  C68      1.0000 0.16093  0.58244  0.04272  Biso   1.000  C
  N10      1.0000 0.23600  0.78959  0.96798  Biso   1.000  N
  H58      1.0000 0.27881  0.79894  0.09882  Biso   1.000  H
  H59      1.0000 0.19692  0.71963  0.08189  Biso   1.000  H
  H60      1.0000 0.90883  0.31392  0.51261  Biso   1.000  H
  H61      1.0000 0.90943  0.37529  0.43702  Biso   1.000  H
  H62      1.0000 0.83368  0.28859  0.44559  Biso   1.000  H
  C69      1.0000 0.96753  0.50124  0.20232  Biso   1.000  C
  C70      1.0000 0.03990  0.30338  0.56617  Biso   1.000  C
  C71      1.0000 0.18043  0.96845  0.16428  Biso   1.000  C
  C72      1.0000 0.22452  0.01532  0.33168  Biso   1.000  C
  H63      1.0000 0.38609  0.99780  0.12199  Biso   1.000  H
  H64      1.0000 0.29592  0.96211  0.08990  Biso   1.000  H
  H65      1.0000 0.35759  0.05438  0.07630  Biso   1.000  H
  C73      1.0000 0.26619  0.07119  0.49610  Biso   1.000  C
  H66      1.0000 0.40511  0.09119  0.51261  Biso   1.000  H
  H67      1.0000 0.46591  0.09060  0.43702  Biso   1.000  H
  H68      1.0000 0.45491  0.16630  0.44559  Biso   1.000  H
  C74      1.0000 0.22059  0.47881  0.88998  Biso   1.000  C
  H69      1.0000 0.14113  0.57492  0.10789  Biso   1.000  H
  H70      1.0000 0.14238  0.61322  0.00708  Biso   1.000  H
  H71      1.0000 0.14121  0.53071  0.01247  Biso   1.000  H
  C75      1.0000 0.25818  0.77941  0.88998  Biso   1.000  C
  C76      1.0000 0.01850  0.58871  0.20310  Biso   1.000  C
  H72      1.0000 0.93573  0.47751  0.14778  Biso   1.000  H
  H73      1.0000 0.04670  0.32990  0.50751  Biso   1.000  H
  C77      1.0000 0.09307  0.34688  0.64622  Biso   1.000  C
  N11      1.0000 0.13581  0.88239  0.15451  Biso   1.000  N
  H74      1.0000 0.20488  0.99099  0.10230  Biso   1.000  H
  H75      1.0000 0.14212  0.98644  0.17788  Biso   1.000  H
  C78      1.0000 0.14012  0.99034  0.35527  Biso   1.000  C
  N12      1.0000 0.24631  0.01390  0.57368  Biso   1.000  N
  H76      1.0000 0.22108  0.08060  0.48817  Biso   1.000  H
  H77      1.0000 0.31211  0.12191  0.51679  Biso   1.000  H
  C79      1.0000 0.18119  0.43199  0.80228  Biso   1.000  C
  H78      1.0000 0.25408  0.53450  0.88538  Biso   1.000  H
  C80      1.0000 0.25083  0.81883  0.80228  Biso   1.000  C
  H79      1.0000 0.28039  0.74591  0.88538  Biso   1.000  H
  C81      1.0000 0.01109  0.63233  0.13226  Biso   1.000  C
  C82      1.0000 0.07209  0.62813  0.27699  Biso   1.000  C
  C83      1.0000 0.09482  0.30753  0.72655  Biso   1.000  C
  C84      1.0000 0.13890  0.42850  0.64190  Biso   1.000  C
  C85      1.0000 0.14820  0.84043  0.21118  Biso   1.000  C
  H80      1.0000 0.10483  0.93974  0.32438  Biso   1.000  H
  H81      1.0000 0.13260  0.98443  0.42406  Biso   1.000  H
  H82      1.0000 0.12801  0.03059  0.33281  Biso   1.000  H
  C86      1.0000 0.26349  0.96010  0.56617  Biso   1.000  C
  C87      1.0000 0.13942  0.35049  0.80526  Biso   1.000  C
  C88      1.0000 0.18299  0.47188  0.71996  Biso   1.000  C
  C89      1.0000 0.21108  0.86061  0.80526  Biso   1.000  C
  C90      1.0000 0.28892  0.81699  0.71996  Biso   1.000  C
  C91      1.0000 0.05368  0.71371  0.13361  Biso   1.000  C
  H83      1.0000 0.97601  0.60594  0.08111  Biso   1.000  H
  C92      1.0000 0.11498  0.70951  0.27720  Biso   1.000  C
  H84      1.0000 0.07881  0.59883  0.32637  Biso   1.000  H
  H85      1.0000 0.06589  0.25142  0.72861  Biso   1.000  H
  H86      1.0000 0.14042  0.45531  0.58508  Biso   1.000  H
  C93      1.0000 0.10531  0.75372  0.20742  Biso   1.000  C
  H87      1.0000 0.18740  0.86594  0.25878  Biso   1.000  H
  H88      1.0000 0.28321  0.95329  0.50751  Biso   1.000  H
  C94      1.0000 0.25381  0.90689  0.64622  Biso   1.000  C
  H89      1.0000 0.14069  0.32351  0.86058  Biso   1.000  H
  H90      1.0000 0.21394  0.52793  0.71699  Biso   1.000  H
  C95      1.0000 0.21269  0.90524  0.72655  Biso   1.000  C
  H91      1.0000 0.18281  0.85931  0.86058  Biso   1.000  H
  C96      1.0000 0.28962  0.86114  0.64190  Biso   1.000  C
  H92      1.0000 0.31401  0.78610  0.71699  Biso   1.000  H
  H93      1.0000 0.04768  0.74283  0.08338  Biso   1.000  H
  H94      1.0000 0.15223  0.73603  0.32651  Biso   1.000  H
  H95      1.0000 0.18551  0.93412  0.72861  Biso   1.000  H
  H96      1.0000 0.31489  0.85960  0.58508  Biso   1.000  H
  C97      1.0000 0.31938  0.42779  0.55065  Biso   1.000  C
  C98      1.0000 0.28941  0.36263  0.62397  Biso   1.000  C
  H97      1.0000 0.31389  0.40512  0.48739  Biso   1.000  H
  H98      1.0000 0.37529  0.46590  0.56298  Biso   1.000  H
  H99      1.0000 0.28860  0.45490  0.55441  Biso   1.000  H
  C99      1.0000 0.23398  0.28569  0.60088  Biso   1.000  C
  C100     1.0000 0.32001  0.38210  0.71656  Biso   1.000  C
  C101     1.0000 0.19502  0.26621  0.50390  Biso   1.000  C
  C102     1.0000 0.20922  0.22449  0.66825  Biso   1.000  C
  C103     1.0000 0.29633  0.32132  0.78407  Biso   1.000  C
  C104     1.0000 0.37189  0.46608  0.74511  Biso   1.000  C
  N13      1.0000 0.23244  0.24633  0.42625  Biso   1.000  N
  H100     1.0000 0.14049  0.22112  0.51176  Biso   1.000  H
  H101     1.0000 0.19018  0.31208  0.48321  Biso   1.000  H
  C105     1.0000 0.24092  0.24432  0.76169  Biso   1.000  C
  C106     1.0000 0.14980  0.14009  0.64466  Biso   1.000  C
  C107     1.0000 0.33378  0.34209  0.88290  Biso   1.000  C
  N14      1.0000 0.45700  0.49360  0.73215  Biso   1.000  N
  H102     1.0000 0.35789  0.50000  0.70721  Biso   1.000  H
  H103     1.0000 0.36200  0.47224  0.81255  Biso   1.000  H
  C108     1.0000 0.30340  0.26349  0.43376  Biso   1.000  C
  C109     1.0000 0.21198  0.18040  0.83565  Biso   1.000  C
  H104     1.0000 0.09743  0.12802  0.66719  Biso   1.000  H
  H105     1.0000 0.16512  0.10482  0.67555  Biso   1.000  H
  H106     1.0000 0.14819  0.13257  0.57587  Biso   1.000  H
  H107     1.0000 0.38829  0.38612  0.87794  Biso   1.000  H
  H108     1.0000 0.33382  0.29593  0.91010  Biso   1.000  H
  H109     1.0000 0.30320  0.35760  0.92370  Biso   1.000  H
  C110     1.0000 0.50121  0.53373  0.79768  Biso   1.000  C
  C111     1.0000 0.34688  0.25379  0.35378  Biso   1.000  C
  H110     1.0000 0.32991  0.28320  0.49249  Biso   1.000  H
  N15      1.0000 0.25341  0.13583  0.84549  Biso   1.000  N
  H111     1.0000 0.21388  0.20490  0.89770  Biso   1.000  H
  H112     1.0000 0.15573  0.14210  0.82205  Biso   1.000  H
  H113     1.0000 0.47753  0.54184  0.85215  Biso   1.000  H
  C112     1.0000 0.58868  0.57019  0.79690  Biso   1.000  C
  C113     1.0000 0.30753  0.21271  0.27338  Biso   1.000  C
  C114     1.0000 0.42850  0.28959  0.35810  Biso   1.000  C
  C115     1.0000 0.30783  0.14820  0.78875  Biso   1.000  C
  C116     1.0000 0.63228  0.62121  0.86767  Biso   1.000  C
  C117     1.0000 0.62812  0.55598  0.72301  Biso   1.000  C
  H114     1.0000 0.25138  0.18549  0.27139  Biso   1.000  H
  C118     1.0000 0.35051  0.21111  0.19467  Biso   1.000  C
  C119     1.0000 0.47191  0.28888  0.27997  Biso   1.000  C
  H115     1.0000 0.45531  0.31492  0.41492  Biso   1.000  H
  C120     1.0000 0.35162  0.10529  0.79258  Biso   1.000  C
  H116     1.0000 0.32147  0.18738  0.74114  Biso   1.000  H
  H117     1.0000 0.60593  0.62991  0.91889  Biso   1.000  H
  C121     1.0000 0.71372  0.66003  0.86639  Biso   1.000  C
  C122     1.0000 0.70951  0.59451  0.72280  Biso   1.000  C
  H118     1.0000 0.59880  0.52000  0.67356  Biso   1.000  H
  H119     1.0000 0.32350  0.18282  0.13942  Biso   1.000  H
  C123     1.0000 0.43203  0.25083  0.19772  Biso   1.000  C
  H120     1.0000 0.52790  0.31404  0.28301  Biso   1.000  H
  C124     1.0000 0.34001  0.05368  0.86639  Biso   1.000  C
  C125     1.0000 0.40552  0.11500  0.72280  Biso   1.000  C
  H121     1.0000 0.74280  0.69513  0.91655  Biso   1.000  H
  C126     1.0000 0.75374  0.64843  0.79258  Biso   1.000  C
  H122     1.0000 0.73603  0.58380  0.67349  Biso   1.000  H
  C127     1.0000 0.47883  0.25822  0.11002  Biso   1.000  C
  C128     1.0000 0.37881  0.01113  0.86767  Biso   1.000  C
  H123     1.0000 0.30489  0.04770  0.91655  Biso   1.000  H
  H124     1.0000 0.41619  0.15222  0.67349  Biso   1.000  H
  C129     1.0000 0.44399  0.07209  0.72301  Biso   1.000  C
  C130     1.0000 0.84042  0.69223  0.78875  Biso   1.000  C
  N16      1.0000 0.44641  0.23603  0.03202  Biso   1.000  N
  H125     1.0000 0.53452  0.28042  0.11462  Biso   1.000  H
  C131     1.0000 0.42982  0.01852  0.79690  Biso   1.000  C
  H126     1.0000 0.37013  0.97603  0.91889  Biso   1.000  H
  H127     1.0000 0.47998  0.07878  0.67356  Biso   1.000  H
  N17      1.0000 0.88243  0.74662  0.84549  Biso   1.000  N
  H128     1.0000 0.86590  0.67850  0.74114  Biso   1.000  H
  C132     1.0000 0.49401  0.24923  0.94666  Biso   1.000  C
  C133     1.0000 0.46633  0.96751  0.79768  Biso   1.000  C
  C134     1.0000 0.96842  0.78799  0.83565  Biso   1.000  C
  H129     1.0000 0.47990  0.27882  0.90118  Biso   1.000  H
  H130     1.0000 0.47734  0.19691  0.91811  Biso   1.000  H
  C135     1.0000 0.58413  0.29291  0.95480  Biso   1.000  C
  N18      1.0000 0.50642  0.96342  0.73215  Biso   1.000  N
  H131     1.0000 0.45823  0.93573  0.85215  Biso   1.000  H
  H132     1.0000 0.99100  0.78610  0.89770  Biso   1.000  H
  H133     1.0000 0.98644  0.84433  0.82205  Biso   1.000  H
  C136     1.0000 0.00339  0.75911  0.76169  Biso   1.000  C
  C137     1.0000 0.62639  0.37559  0.95615  Biso   1.000  C
  C138     1.0000 0.62444  0.25083  0.95615  Biso   1.000  C
  C139     1.0000 0.53390  0.90584  0.74511  Biso   1.000  C
  C140     1.0000 0.02500  0.70371  0.78407  Biso   1.000  C
  C141     1.0000 0.01530  0.79083  0.66825  Biso   1.000  C
  C142     1.0000 0.70882  0.41589  0.95480  Biso   1.000  C
  C143     1.0000 0.58241  0.42152  0.95728  Biso   1.000  C
  C144     1.0000 0.70710  0.29119  0.95480  Biso   1.000  C
  C145     1.0000 0.57851  0.16092  0.95728  Biso   1.000  C
  C146     1.0000 0.61791  0.93791  0.71656  Biso   1.000  C
  H134     1.0000 0.50002  0.85796  0.70721  Biso   1.000  H
  H135     1.0000 0.52781  0.88986  0.81255  Biso   1.000  H
  C147     1.0000 0.06211  0.68004  0.71656  Biso   1.000  C
  C148     1.0000 0.00829  0.66619  0.88290  Biso   1.000  C
  C149     1.0000 0.05170  0.76603  0.60088  Biso   1.000  C
  C150     1.0000 0.99029  0.85019  0.64466  Biso   1.000  C
  C151     1.0000 0.75522  0.50603  0.94666  Biso   1.000  C
  C152     1.0000 0.74925  0.37364  0.95615  Biso   1.000  C
  H136     1.0000 0.57493  0.43383  0.89211  Biso   1.000  H
  H137     1.0000 0.61321  0.47082  0.99284  Biso   1.000  H
  H138     1.0000 0.53073  0.38950  0.98746  Biso   1.000  H
  C153     1.0000 0.75079  0.24479  0.94666  Biso   1.000  C
  H139     1.0000 0.56619  0.14110  0.89211  Biso   1.000  H
  H140     1.0000 0.52922  0.14240  0.99284  Biso   1.000  H
  H141     1.0000 0.61054  0.14122  0.98746  Biso   1.000  H
  C154     1.0000 0.63744  0.92685  0.62397  Biso   1.000  C
  C155     1.0000 0.67870  0.97502  0.78407  Biso   1.000  C
  C156     1.0000 0.07321  0.71064  0.62397  Biso   1.000  C
  C157     1.0000 0.09423  0.62813  0.74511  Biso   1.000  C
  H142     1.0000 0.99782  0.61174  0.87794  Biso   1.000  H
  H143     1.0000 0.96210  0.66619  0.91010  Biso   1.000  H
  H144     1.0000 0.05439  0.69679  0.92370  Biso   1.000  H
  C158     1.0000 0.07120  0.80504  0.50390  Biso   1.000  C
  H145     1.0000 0.93971  0.83492  0.67555  Biso   1.000  H
  H146     1.0000 0.98443  0.85179  0.57587  Biso   1.000  H
  H147     1.0000 0.03061  0.90263  0.66719  Biso   1.000  H
  N19      1.0000 0.78962  0.55362  0.03202  Biso   1.000  N
  H148     1.0000 0.79891  0.52012  0.90118  Biso   1.000  H
  H149     1.0000 0.71964  0.52272  0.91811  Biso   1.000  H
  C159     1.0000 0.83910  0.41761  0.95728  Biso   1.000  C
  N20      1.0000 0.76399  0.21040  0.03202  Biso   1.000  N
  H150     1.0000 0.72121  0.20111  0.90118  Biso   1.000  H
  H151     1.0000 0.80310  0.28042  0.91811  Biso   1.000  H
  C160     1.0000 0.71430  0.94833  0.60088  Biso   1.000  C
  C161     1.0000 0.57221  0.89163  0.55065  Biso   1.000  C
  C162     1.0000 0.75572  0.99663  0.76169  Biso   1.000  C
  C163     1.0000 0.65793  0.99171  0.88290  Biso   1.000  C
  C164     1.0000 0.10843  0.68063  0.55065  Biso   1.000  C
  N21      1.0000 0.03661  0.54302  0.73215  Biso   1.000  N
  H152     1.0000 0.14212  0.64210  0.70721  Biso   1.000  H
  H153     1.0000 0.11019  0.63801  0.81255  Biso   1.000  H
  N22      1.0000 0.01390  0.76763  0.42625  Biso   1.000  N
  H154     1.0000 0.08062  0.85954  0.51176  Biso   1.000  H
  H155     1.0000 0.12193  0.80983  0.48321  Biso   1.000  H
  C165     1.0000 0.77940  0.52118  0.11002  Biso   1.000  C
  H156     1.0000 0.85895  0.42513  0.89211  Biso   1.000  H
  H157     1.0000 0.85764  0.38683  0.99284  Biso   1.000  H
  H158     1.0000 0.85881  0.46934  0.98746  Biso   1.000  H
  C166     1.0000 0.74181  0.22058  0.11002  Biso   1.000  C
  C167     1.0000 0.73380  0.92880  0.50390  Biso   1.000  C
  C168     1.0000 0.77550  0.98473  0.66825  Biso   1.000  C
  H159     1.0000 0.59492  0.90886  0.48739  Biso   1.000  H
  H160     1.0000 0.53412  0.90945  0.56298  Biso   1.000  H
  H161     1.0000 0.54512  0.83375  0.55441  Biso   1.000  H
  C169     1.0000 0.81960  0.03160  0.83565  Biso   1.000  C
  H162     1.0000 0.61391  0.00219  0.87794  Biso   1.000  H
  H163     1.0000 0.70413  0.03788  0.91010  Biso   1.000  H
  H164     1.0000 0.64241  0.94561  0.92370  Biso   1.000  H
  H165     1.0000 0.09120  0.68613  0.48739  Biso   1.000  H
  H166     1.0000 0.09062  0.62470  0.56298  Biso   1.000  H
  H167     1.0000 0.16631  0.71140  0.55441  Biso   1.000  H
  C170     1.0000 0.03249  0.49881  0.79768  Biso   1.000  C
  C171     1.0000 0.96009  0.69661  0.43376  Biso   1.000  C
  C172     1.0000 0.81880  0.56800  0.19772  Biso   1.000  C
  H168     1.0000 0.74592  0.46549  0.11462  Biso   1.000  H
  C173     1.0000 0.74925  0.18122  0.19772  Biso   1.000  C
  H169     1.0000 0.71961  0.25408  0.11462  Biso   1.000  H
  N23      1.0000 0.75371  0.98615  0.42625  Biso   1.000  N
  H170     1.0000 0.77895  0.91945  0.51176  Biso   1.000  H
  H171     1.0000 0.68792  0.87814  0.48321  Biso   1.000  H
  C174     1.0000 0.85990  0.00971  0.64466  Biso   1.000  C
  N24      1.0000 0.86423  0.11760  0.84549  Biso   1.000  N
  H172     1.0000 0.79512  0.00900  0.89770  Biso   1.000  H
  H173     1.0000 0.85791  0.01361  0.82205  Biso   1.000  H
  C175     1.0000 0.98153  0.41134  0.79690  Biso   1.000  C
  H174     1.0000 0.06427  0.52249  0.85215  Biso   1.000  H
  C176     1.0000 0.90692  0.65311  0.35378  Biso   1.000  C
  H175     1.0000 0.95329  0.67009  0.49249  Biso   1.000  H
  C177     1.0000 0.86063  0.64950  0.19467  Biso   1.000  C
  C178     1.0000 0.81700  0.52811  0.27997  Biso   1.000  C
  C179     1.0000 0.78891  0.13938  0.19467  Biso   1.000  C
  C180     1.0000 0.71113  0.18300  0.27997  Biso   1.000  C
  C181     1.0000 0.73650  0.03989  0.43376  Biso   1.000  C
  H176     1.0000 0.89520  0.06031  0.67555  Biso   1.000  H
  H177     1.0000 0.86742  0.01562  0.57587  Biso   1.000  H
  H178     1.0000 0.87199  0.96940  0.66719  Biso   1.000  H
  C182     1.0000 0.85183  0.15962  0.78875  Biso   1.000  C
  C183     1.0000 0.98893  0.36772  0.86767  Biso   1.000  C
  C184     1.0000 0.92794  0.37192  0.72301  Biso   1.000  C
  C185     1.0000 0.90521  0.69252  0.27338  Biso   1.000  C
  C186     1.0000 0.86109  0.57149  0.35810  Biso   1.000  C
  H179     1.0000 0.85931  0.67649  0.13942  Biso   1.000  H
  H180     1.0000 0.78614  0.47212  0.28301  Biso   1.000  H
  C187     1.0000 0.78734  0.09481  0.27338  Biso   1.000  C
  H181     1.0000 0.81719  0.14068  0.13942  Biso   1.000  H
  H182     1.0000 0.68598  0.21389  0.28301  Biso   1.000  H
  C188     1.0000 0.71041  0.13891  0.35810  Biso   1.000  C
  C189     1.0000 0.74619  0.09310  0.35378  Biso   1.000  C
  H183     1.0000 0.71679  0.04670  0.49249  Biso   1.000  H
  C190     1.0000 0.89472  0.24633  0.79258  Biso   1.000  C
  H184     1.0000 0.81262  0.13411  0.74114  Biso   1.000  H
  C191     1.0000 0.94632  0.28628  0.86639  Biso   1.000  C
  H185     1.0000 0.02402  0.39411  0.91889  Biso   1.000  H
  C192     1.0000 0.88501  0.29048  0.72280  Biso   1.000  C
  H186     1.0000 0.92121  0.40122  0.67356  Biso   1.000  H
  H187     1.0000 0.93413  0.74863  0.27139  Biso   1.000  H
  H188     1.0000 0.85961  0.54474  0.41492  Biso   1.000  H
  H189     1.0000 0.81448  0.06587  0.27139  Biso   1.000  H
  H190     1.0000 0.68511  0.14039  0.41492  Biso   1.000  H
  H191     1.0000 0.95234  0.25722  0.91655  Biso   1.000  H
  H192     1.0000 0.84785  0.26402  0.67349  Biso   1.000  H
