data_image0
_cell_length_a       15.989
_cell_length_b       17.472
_cell_length_c       31.697
_cell_angle_alpha    94.73
_cell_angle_beta     102.18
_cell_angle_gamma    109.01

_symmetry_space_group_name_H-M    "P 1"
_symmetry_int_tables_number       1

loop_
  _symmetry_equiv_pos_as_xyz
  'x, y, z'

loop_
  _atom_site_label
  _atom_site_occupancy
  _atom_site_fract_x
  _atom_site_fract_y
  _atom_site_fract_z
  _atom_site_thermal_displace_type
  _atom_site_B_iso_or_equiv
  _atom_site_type_symbol
  C1       1.0000 0.50256  0.49401  0.44543  Biso   1.000  C
  C2       1.0000 0.58584  0.48679  0.44301  Biso   1.000  C
  C3       1.0000 0.42860  0.42339  0.44235  Biso   1.000  C
  C4       1.0000 0.49137  0.57393  0.45040  Biso   1.000  C
  C5       1.0000 0.59441  0.41044  0.43800  Biso   1.000  C
  H1       1.0000 0.63719  0.53475  0.44481  Biso   1.000  H
  C6       1.0000 0.43659  0.34687  0.43761  Biso   1.000  C
  H2       1.0000 0.37130  0.42753  0.44360  Biso   1.000  H
  N1       1.0000 0.55381  0.63978  0.44916  Biso   1.000  N
  H3       1.0000 0.43525  0.57631  0.45478  Biso   1.000  H
  C7       1.0000 0.51924  0.33985  0.43483  Biso   1.000  C
  H4       1.0000 0.65159  0.40622  0.43669  Biso   1.000  H
  H5       1.0000 0.38537  0.29916  0.43620  Biso   1.000  H
  C8       1.0000 0.53334  0.71550  0.45210  Biso   1.000  C
  N2       1.0000 0.52640  0.25961  0.43022  Biso   1.000  N
  N3       1.0000 0.52997  0.27446  0.42060  Biso   1.000  N
  C9       1.0000 0.54211  0.75044  0.41029  Biso   1.000  C
  H6       1.0000 0.57666  0.75550  0.47769  Biso   1.000  H
  H7       1.0000 0.47063  0.70396  0.45570  Biso   1.000  H
  C10      1.0000 0.44773  0.19222  0.40669  Biso   1.000  C
  C11      1.0000 0.45936  0.21082  0.38860  Biso   1.000  C
  C12      1.0000 0.60491  0.24601  0.45020  Biso   1.000  C
  C13      1.0000 0.62941  0.79214  0.40574  Biso   1.000  C
  C14      1.0000 0.46518  0.73723  0.37653  Biso   1.000  C
  C15      1.0000 0.39987  0.19660  0.36554  Biso   1.000  C
  C16      1.0000 0.41875  0.12154  0.42492  Biso   1.000  C
  C17      1.0000 0.42597  0.22397  0.34679  Biso   1.000  C
  C18      1.0000 0.41871  0.13666  0.40178  Biso   1.000  C
  C19      1.0000 0.65768  0.28808  0.49123  Biso   1.000  C
  C20      1.0000 0.62981  0.18653  0.42936  Biso   1.000  C
  C21      1.0000 0.63995  0.82244  0.36717  Biso   1.000  C
  C22      1.0000 0.71199  0.80222  0.44252  Biso   1.000  C
  C23      1.0000 0.47565  0.76938  0.33786  Biso   1.000  C
  C24      1.0000 0.37050  0.68826  0.38009  Biso   1.000  C
  C25      1.0000 0.35187  0.16295  0.31800  Biso   1.000  C
  C26      1.0000 0.32410  0.13119  0.34293  Biso   1.000  C
  H8       1.0000 0.41946  0.24494  0.35301  Biso   1.000  H
  C27      1.0000 0.34457  0.07561  0.37309  Biso   1.000  C
  C28      1.0000 0.34354  0.05515  0.40149  Biso   1.000  C
  H9       1.0000 0.45045  0.11883  0.45338  Biso   1.000  H
  H10      1.0000 0.45377  0.27463  0.33769  Biso   1.000  H
  H11      1.0000 0.44149  0.12773  0.43051  Biso   1.000  H
  C29      1.0000 0.73055  0.26784  0.51207  Biso   1.000  C
  H12      1.0000 0.64355  0.33102  0.50510  Biso   1.000  H
  H13      1.0000 0.59628  0.15945  0.40051  Biso   1.000  H
  C30      1.0000 0.70252  0.16688  0.45037  Biso   1.000  C
  C31      1.0000 0.56303  0.80987  0.33272  Biso   1.000  C
  C32      1.0000 0.73422  0.87067  0.36295  Biso   1.000  C
  H14      1.0000 0.71363  0.83961  0.46771  Biso   1.000  H
  H15      1.0000 0.76780  0.82484  0.43260  Biso   1.000  H
  H16      1.0000 0.70788  0.74876  0.45099  Biso   1.000  H
  C33      1.0000 0.39247  0.75593  0.30073  Biso   1.000  C
  H17      1.0000 0.37471  0.65034  0.40090  Biso   1.000  H
  H18      1.0000 0.33327  0.65703  0.35130  Biso   1.000  H
  H19      1.0000 0.34208  0.72563  0.39040  Biso   1.000  H
  H20      1.0000 0.29095  0.13503  0.31499  Biso   1.000  H
  C34      1.0000 0.31120  0.08872  0.33118  Biso   1.000  C
  H21      1.0000 0.32907  0.17185  0.28941  Biso   1.000  H
  C35      1.0000 0.29508  0.05906  0.36020  Biso   1.000  C
  H22      1.0000 0.31666  0.02492  0.38209  Biso   1.000  H
  H23      1.0000 0.32479  0.00641  0.41369  Biso   1.000  H
  C36      1.0000 0.75390  0.20697  0.49244  Biso   1.000  C
  H24      1.0000 0.76538  0.29642  0.54050  Biso   1.000  H
  H25      1.0000 0.71821  0.12546  0.43610  Biso   1.000  H
  C37      1.0000 0.57649  0.84106  0.29052  Biso   1.000  C
  N4       1.0000 0.79416  0.82602  0.35376  Biso   1.000  N
  H26      1.0000 0.72695  0.90357  0.33940  Biso   1.000  H
  H27      1.0000 0.76682  0.90987  0.39050  Biso   1.000  H
  N5       1.0000 0.37290  0.67807  0.27249  Biso   1.000  N
  H28      1.0000 0.33938  0.75394  0.31260  Biso   1.000  H
  H29      1.0000 0.40450  0.80167  0.28368  Biso   1.000  H
  C38      1.0000 0.23641  0.02936  0.29889  Biso   1.000  C
  C39      1.0000 0.21573  0.98830  0.33554  Biso   1.000  C
  C40      1.0000 0.83279  0.18706  0.51436  Biso   1.000  C
  H30      1.0000 0.58046  0.89848  0.29300  Biso   1.000  H
  H31      1.0000 0.52461  0.80787  0.26621  Biso   1.000  H
  H32      1.0000 0.63312  0.83697  0.28509  Biso   1.000  H
  C41      1.0000 0.77009  0.74939  0.35261  Biso   1.000  C
  C42      1.0000 0.37411  0.68138  0.23277  Biso   1.000  C
  H33      1.0000 0.22710  0.03547  0.26889  Biso   1.000  H
  N6       1.0000 0.16962  0.99114  0.29824  Biso   1.000  N
  N7       1.0000 0.18253  0.96836  0.31080  Biso   1.000  N
  H34      1.0000 0.19852  0.93936  0.34771  Biso   1.000  H
  N8       1.0000 0.85890  0.13595  0.49575  Biso   1.000  N
  H35      1.0000 0.86497  0.21352  0.54338  Biso   1.000  H
  H36      1.0000 0.71174  0.71956  0.35660  Biso   1.000  H
  C43      1.0000 0.83235  0.70587  0.34515  Biso   1.000  C
  H37      1.0000 0.38175  0.73220  0.22260  Biso   1.000  H
  C44      1.0000 0.36418  0.60969  0.20215  Biso   1.000  C
  C45      1.0000 0.09468  0.91609  0.27521  Biso   1.000  C
  C46      1.0000 0.94119  0.12308  0.51891  Biso   1.000  C
  C47      1.0000 0.81249  0.62492  0.35101  Biso   1.000  C
  C48      1.0000 0.91252  0.74557  0.33347  Biso   1.000  C
  C49      1.0000 0.34383  0.53177  0.21354  Biso   1.000  C
  C50      1.0000 0.38130  0.61975  0.16113  Biso   1.000  C
  C51      1.0000 0.10210  0.90071  0.22842  Biso   1.000  C
  H38      1.0000 0.03531  0.92205  0.27530  Biso   1.000  H
  H39      1.0000 0.09849  0.86917  0.28999  Biso   1.000  H
  H40      1.0000 0.06989  0.86210  0.28430  Biso   1.000  H
  H41      1.0000 0.04902  0.94306  0.27511  Biso   1.000  H
  H42      1.0000 0.92629  0.06513  0.52319  Biso   1.000  H
  H43      1.0000 0.96628  0.15833  0.54799  Biso   1.000  H
  C52      1.0000 0.01119  0.14437  0.49202  Biso   1.000  C
  H44      1.0000 0.75749  0.59683  0.35870  Biso   1.000  H
  C53      1.0000 0.87208  0.58400  0.34571  Biso   1.000  C
  C54      1.0000 0.97180  0.70522  0.32801  Biso   1.000  C
  H45      1.0000 0.92683  0.80116  0.32919  Biso   1.000  H
  C55      1.0000 0.34182  0.46584  0.18589  Biso   1.000  C
  H46      1.0000 0.33092  0.52375  0.24108  Biso   1.000  H
  C56      1.0000 0.37973  0.55463  0.13338  Biso   1.000  C
  H47      1.0000 0.39410  0.67228  0.15239  Biso   1.000  H
  C57      1.0000 0.06759  0.94297  0.19787  Biso   1.000  C
  C58      1.0000 0.14404  0.84674  0.21687  Biso   1.000  C
  C59      1.0000 0.00385  0.08592  0.45721  Biso   1.000  C
  C60      1.0000 0.07858  0.22273  0.50000  Biso   1.000  C
  H48      1.0000 0.85799  0.52857  0.35009  Biso   1.000  H
  C61      1.0000 0.95171  0.62395  0.33403  Biso   1.000  C
  H49      1.0000 0.02662  0.73324  0.32009  Biso   1.000  H
  C62      1.0000 0.36049  0.47682  0.14493  Biso   1.000  C
  H50      1.0000 0.32788  0.41318  0.19440  Biso   1.000  H
  H51      1.0000 0.39195  0.56279  0.10571  Biso   1.000  H
  C63      1.0000 0.02635  0.00437  0.21135  Biso   1.000  C
  C64      1.0000 0.07174  0.92780  0.15416  Biso   1.000  C
  C65      1.0000 0.15037  0.83361  0.17349  Biso   1.000  C
  C66      1.0000 0.18532  0.80442  0.25080  Biso   1.000  C
  C67      1.0000 0.92445  0.00542  0.44638  Biso   1.000  C
  C68      1.0000 0.06796  0.10346  0.43228  Biso   1.000  C
  C69      1.0000 0.14170  0.24024  0.47422  Biso   1.000  C
  C70      1.0000 0.08295  0.28724  0.53586  Biso   1.000  C
  N9       1.0000 0.01169  0.58271  0.32651  Biso   1.000  N
  N10      1.0000 0.36259  0.41051  0.11725  Biso   1.000  N
  H52      1.0000 0.02791  0.04268  0.19041  Biso   1.000  H
  H53      1.0000 0.06149  0.03484  0.24059  Biso   1.000  H
  H54      1.0000 0.96293  0.97561  0.21190  Biso   1.000  H
  C71      1.0000 0.11471  0.87495  0.14231  Biso   1.000  C
  C72      1.0000 0.02545  0.96775  0.12059  Biso   1.000  C
  C73      1.0000 0.19743  0.77624  0.16093  Biso   1.000  C
  H55      1.0000 0.21033  0.84107  0.27910  Biso   1.000  H
  H56      1.0000 0.23443  0.79076  0.24180  Biso   1.000  H
  H57      1.0000 0.13807  0.75409  0.25348  Biso   1.000  H
  H58      1.0000 0.86756  0.01601  0.44520  Biso   1.000  H
  H59      1.0000 0.93330  0.97173  0.46898  Biso   1.000  H
  H60      1.0000 0.92111  0.97645  0.41788  Biso   1.000  H
  C74      1.0000 0.13617  0.18120  0.44023  Biso   1.000  C
  C75      1.0000 0.06345  0.04064  0.39524  Biso   1.000  C
  C76      1.0000 0.21459  0.32500  0.48155  Biso   1.000  C
  H61      1.0000 0.02442  0.27195  0.54381  Biso   1.000  H
  H62      1.0000 0.09557  0.34021  0.52558  Biso   1.000  H
  H63      1.0000 0.13180  0.29154  0.56150  Biso   1.000  H
  C77      1.0000 0.04860  0.54402  0.35903  Biso   1.000  C
  C78      1.0000 0.03690  0.58266  0.28649  Biso   1.000  C
  C79      1.0000 0.00663  0.56469  0.27861  Biso   1.000  C
  C80      1.0000 0.31110  0.32832  0.11987  Biso   1.000  C
  C81      1.0000 0.42518  0.42365  0.09062  Biso   1.000  C
  C82      1.0000 0.12523  0.86438  0.09602  Biso   1.000  C
  N11      1.0000 0.07359  0.05270  0.11631  Biso   1.000  N
  H64      1.0000 0.96685  0.96521  0.12710  Biso   1.000  H
  H65      1.0000 0.01024  0.93343  0.09160  Biso   1.000  H
  N12      1.0000 0.29595  0.82048  0.17235  Biso   1.000  N
  H66      1.0000 0.18323  0.72881  0.17660  Biso   1.000  H
  H67      1.0000 0.17520  0.75539  0.12910  Biso   1.000  H
  C83      1.0000 0.20077  0.20052  0.41104  Biso   1.000  C
  H68      1.0000 0.03233  0.98474  0.40071  Biso   1.000  H
  N13      1.0000 0.01331  0.05399  0.35373  Biso   1.000  N
  H69      1.0000 0.12611  0.04552  0.39361  Biso   1.000  H
  N14      1.0000 0.18717  0.36814  0.44674  Biso   1.000  N
  H70      1.0000 0.22068  0.35565  0.51040  Biso   1.000  H
  H71      1.0000 0.27440  0.32011  0.48099  Biso   1.000  H
  C84      1.0000 0.06407  0.57329  0.40293  Biso   1.000  C
  C85      1.0000 0.06910  0.47462  0.34731  Biso   1.000  C
  C86      1.0000 0.97139  0.57915  0.24920  Biso   1.000  C
  C87      1.0000 0.12079  0.58308  0.28273  Biso   1.000  C
  C88      1.0000 0.09131  0.58226  0.26919  Biso   1.000  C
  C89      1.0000 0.92730  0.53778  0.24478  Biso   1.000  C
  C90      1.0000 0.35280  0.27069  0.12520  Biso   1.000  C
  C91      1.0000 0.21845  0.30516  0.11738  Biso   1.000  C
  C92      1.0000 0.39843  0.37856  0.04862  Biso   1.000  C
  C93      1.0000 0.51372  0.47936  0.10567  Biso   1.000  C
  H72      1.0000 0.07464  0.81641  0.07839  Biso   1.000  H
  H73      1.0000 0.18329  0.85648  0.09651  Biso   1.000  H
  H74      1.0000 0.12452  0.91348  0.08320  Biso   1.000  H
  C94      1.0000 0.15826  0.08202  0.12959  Biso   1.000  C
  C95      1.0000 0.33615  0.82699  0.14166  Biso   1.000  C
  H75      1.0000 0.16810  0.17302  0.38101  Biso   1.000  H
  H76      1.0000 0.25127  0.18114  0.42148  Biso   1.000  H
  H77      1.0000 0.22506  0.25992  0.41170  Biso   1.000  H
  C96      1.0000 0.94775  0.99263  0.33053  Biso   1.000  C
  C97      1.0000 0.16620  0.42924  0.45688  Biso   1.000  C
  C98      1.0000 0.10241  0.53595  0.43473  Biso   1.000  C
  H78      1.0000 0.04838  0.61924  0.41140  Biso   1.000  H
  C99      1.0000 0.10755  0.43892  0.37872  Biso   1.000  C
  H79      1.0000 0.05617  0.45233  0.31728  Biso   1.000  H
  H80      1.0000 0.91284  0.57858  0.25129  Biso   1.000  H
  C100     1.0000 0.99162  0.57649  0.20876  Biso   1.000  C
  C101     1.0000 0.93269  0.52828  0.20160  Biso   1.000  C
  C102     1.0000 0.13983  0.57778  0.24216  Biso   1.000  C
  H81      1.0000 0.16659  0.58705  0.30828  Biso   1.000  H
  C103     1.0000 0.09670  0.57276  0.22600  Biso   1.000  C
  H82      1.0000 0.14549  0.60067  0.29228  Biso   1.000  H
  H83      1.0000 0.86942  0.52577  0.25119  Biso   1.000  H
  C104     1.0000 0.30382  0.19168  0.12949  Biso   1.000  C
  H84      1.0000 0.41591  0.28555  0.12589  Biso   1.000  H
  C105     1.0000 0.16860  0.22491  0.12062  Biso   1.000  C
  H85      1.0000 0.18884  0.34410  0.11349  Biso   1.000  H
  C106     1.0000 0.45862  0.39106  0.02248  Biso   1.000  C
  H86      1.0000 0.33847  0.33909  0.03798  Biso   1.000  H
  H87      1.0000 0.53321  0.50957  0.13450  Biso   1.000  H
  C107     1.0000 0.57342  0.49126  0.07934  Biso   1.000  C
  H88      1.0000 0.19019  0.04880  0.14209  Biso   1.000  H
  C108     1.0000 0.21042  0.16771  0.12635  Biso   1.000  C
  H89      1.0000 0.30123  0.80179  0.11280  Biso   1.000  H
  C109     1.0000 0.43396  0.87143  0.14899  Biso   1.000  C
  H90      1.0000 0.93521  0.94136  0.34061  Biso   1.000  H
  C110     1.0000 0.89027  0.99703  0.28882  Biso   1.000  C
  H91      1.0000 0.17600  0.44983  0.48688  Biso   1.000  H
  C111     1.0000 0.12682  0.46972  0.42308  Biso   1.000  C
  H92      1.0000 0.11200  0.55601  0.46480  Biso   1.000  H
  H93      1.0000 0.12171  0.39214  0.37028  Biso   1.000  H
  H94      1.0000 0.94773  0.57685  0.18350  Biso   1.000  H
  C112     1.0000 0.07434  0.57321  0.20477  Biso   1.000  C
  H95      1.0000 0.87851  0.50988  0.17850  Biso   1.000  H
  C113     1.0000 0.01739  0.54587  0.19221  Biso   1.000  C
  H96      1.0000 0.19800  0.57718  0.24000  Biso   1.000  H
  H97      1.0000 0.15458  0.58478  0.21959  Biso   1.000  H
  H98      1.0000 0.33409  0.15335  0.13459  Biso   1.000  H
  H99      1.0000 0.10508  0.20958  0.11879  Biso   1.000  H
  C114     1.0000 0.54694  0.44731  0.03713  Biso   1.000  C
  H100     1.0000 0.43919  0.36034  0.99378  Biso   1.000  H
  H101     1.0000 0.63371  0.53009  0.09010  Biso   1.000  H
  C115     1.0000 0.48795  0.91034  0.19096  Biso   1.000  C
  C116     1.0000 0.47519  0.87777  0.11460  Biso   1.000  C
  C117     1.0000 0.90086  0.07007  0.27216  Biso   1.000  C
  C118     1.0000 0.82212  0.92565  0.26513  Biso   1.000  C
  C119     1.0000 0.09411  0.56704  0.16158  Biso   1.000  C
  C120     1.0000 0.01892  0.53807  0.14568  Biso   1.000  C
  C121     1.0000 0.60984  0.45868  0.00887  Biso   1.000  C
  H102     1.0000 0.46069  0.90706  0.21501  Biso   1.000  H
  C122     1.0000 0.57967  0.95313  0.19783  Biso   1.000  C
  C123     1.0000 0.56696  0.91996  0.12092  Biso   1.000  C
  H103     1.0000 0.43912  0.85232  0.08591  Biso   1.000  H
  C124     1.0000 0.84382  0.07184  0.23356  Biso   1.000  C
  H104     1.0000 0.94820  0.11927  0.28770  Biso   1.000  H
  C125     1.0000 0.76555  0.92702  0.22561  Biso   1.000  C
  H105     1.0000 0.81408  0.87535  0.27599  Biso   1.000  H
  N15      1.0000 0.04100  0.57536  0.12831  Biso   1.000  N
  H106     1.0000 0.14761  0.55668  0.15880  Biso   1.000  H
  H107     1.0000 0.96329  0.50907  0.12439  Biso   1.000  H
  N16      1.0000 0.09082  0.56838  0.13299  Biso   1.000  N
  N17      1.0000 0.69362  0.50212  0.02221  Biso   1.000  N
  H108     1.0000 0.58681  0.43220  0.97919  Biso   1.000  H
  H109     1.0000 0.61539  0.97905  0.22649  Biso   1.000  H
  C126     1.0000 0.62122  0.95873  0.16263  Biso   1.000  C
  H110     1.0000 0.59372  0.92280  0.09681  Biso   1.000  H
  C127     1.0000 0.77525  0.00043  0.20994  Biso   1.000  C
  H111     1.0000 0.85128  0.12239  0.22289  Biso   1.000  H
  H112     1.0000 0.72010  0.87749  0.20919  Biso   1.000  H
  C128     1.0000 0.06439  0.56457  0.08604  Biso   1.000  C
  C129     1.0000 0.74993  0.50791  0.99058  Biso   1.000  C
  N18      1.0000 0.71475  0.00182  0.17029  Biso   1.000  N
  C130     1.0000 0.97951  0.50573  0.05431  Biso   1.000  C
  H113     1.0000 0.11452  0.54220  0.08931  Biso   1.000  H
  H114     1.0000 0.08453  0.61778  0.07561  Biso   1.000  H
  H115     1.0000 0.11604  0.55819  0.07531  Biso   1.000  H
  H116     1.0000 0.06430  0.61998  0.08159  Biso   1.000  H
  C131     1.0000 0.82829  0.47889  0.00824  Biso   1.000  C
  H117     1.0000 0.77429  0.56550  0.98590  Biso   1.000  H
  H118     1.0000 0.71208  0.47359  0.96218  Biso   1.000  H
  C132     1.0000 0.75067  0.04613  0.13891  Biso   1.000  C
  C133     1.0000 0.90736  0.53306  0.03723  Biso   1.000  C
  C134     1.0000 0.97013  0.42338  0.04319  Biso   1.000  C
  C135     1.0000 0.81928  0.39695  0.99630  Biso   1.000  C
  C136     1.0000 0.83304  0.04769  0.13175  Biso   1.000  C
  C137     1.0000 0.70400  0.09056  0.11542  Biso   1.000  C
  C138     1.0000 0.91482  0.62017  0.05182  Biso   1.000  C
  C139     1.0000 0.89053  0.37007  0.01325  Biso   1.000  C
  C140     1.0000 0.04395  0.39314  0.06478  Biso   1.000  C
  C141     1.0000 0.73182  0.33764  0.96598  Biso   1.000  C
  C142     1.0000 0.87018  0.09326  0.10191  Biso   1.000  C
  H119     1.0000 0.86496  0.01725  0.14739  Biso   1.000  H
  H120     1.0000 0.64710  0.09018  0.12010  Biso   1.000  H
  C143     1.0000 0.73995  0.13459  0.08568  Biso   1.000  C
  H121     1.0000 0.93551  0.65428  0.03039  Biso   1.000  H
  H122     1.0000 0.95891  0.64177  0.08038  Biso   1.000  H
  H123     1.0000 0.85493  0.62087  0.05411  Biso   1.000  H
  C144     1.0000 0.88015  0.28106  0.00016  Biso   1.000  C
  H124     1.0000 0.09108  0.40318  0.04839  Biso   1.000  H
  H125     1.0000 0.01754  0.33422  0.06510  Biso   1.000  H
  H126     1.0000 0.07141  0.42242  0.09491  Biso   1.000  H
  H127     1.0000 0.67983  0.35090  0.97170  Biso   1.000  H
  H128     1.0000 0.72489  0.28155  0.97098  Biso   1.000  H
  H129     1.0000 0.73392  0.34200  0.93558  Biso   1.000  H
  C145     1.0000 0.82388  0.13701  0.07839  Biso   1.000  C
  H130     1.0000 0.92755  0.09435  0.09759  Biso   1.000  H
  H131     1.0000 0.70716  0.16406  0.06969  Biso   1.000  H
  N19      1.0000 0.82835  0.23006  0.02650  Biso   1.000  N
  H132     1.0000 0.94132  0.27619  0.00461  Biso   1.000  H
  H133     1.0000 0.84808  0.26229  0.96879  Biso   1.000  H
  C146     1.0000 0.86573  0.18728  0.04849  Biso   1.000  C
  H134     1.0000 0.92383  0.18791  0.04541  Biso   1.000  H
  C147     1.0000 0.49743  0.50583  0.55457  Biso   1.000  C
  C148     1.0000 0.50854  0.42590  0.54956  Biso   1.000  C
  C149     1.0000 0.41415  0.51305  0.55699  Biso   1.000  C
  C150     1.0000 0.57137  0.57644  0.55761  Biso   1.000  C
  N20      1.0000 0.44616  0.36005  0.55081  Biso   1.000  N
  H135     1.0000 0.56466  0.42353  0.54518  Biso   1.000  H
  H136     1.0000 0.36280  0.46510  0.55519  Biso   1.000  H
  C151     1.0000 0.40558  0.58941  0.56200  Biso   1.000  C
  C152     1.0000 0.56340  0.65297  0.56239  Biso   1.000  C
  H137     1.0000 0.62869  0.57232  0.55640  Biso   1.000  H
  C153     1.0000 0.46663  0.28433  0.54786  Biso   1.000  C
  H138     1.0000 0.34840  0.59362  0.56330  Biso   1.000  H
  C154     1.0000 0.48074  0.65999  0.56514  Biso   1.000  C
  H139     1.0000 0.61458  0.70074  0.56379  Biso   1.000  H
  C155     1.0000 0.45787  0.24939  0.58967  Biso   1.000  C
  H140     1.0000 0.42325  0.24433  0.52228  Biso   1.000  H
  H141     1.0000 0.52936  0.29589  0.54430  Biso   1.000  H
  N21      1.0000 0.47357  0.74022  0.56975  Biso   1.000  N
  N22      1.0000 0.47004  0.72545  0.57940  Biso   1.000  N
  C156     1.0000 0.37051  0.20770  0.59425  Biso   1.000  C
  C157     1.0000 0.53475  0.26261  0.62347  Biso   1.000  C
  C158     1.0000 0.39502  0.75383  0.54979  Biso   1.000  C
  C159     1.0000 0.55224  0.80761  0.59327  Biso   1.000  C
  C160     1.0000 0.54057  0.78902  0.61140  Biso   1.000  C
  C161     1.0000 0.36004  0.17740  0.63283  Biso   1.000  C
  C162     1.0000 0.28800  0.19763  0.55748  Biso   1.000  C
  C163     1.0000 0.52428  0.23046  0.66214  Biso   1.000  C
  C164     1.0000 0.62949  0.31158  0.61990  Biso   1.000  C
  C165     1.0000 0.34225  0.71176  0.50877  Biso   1.000  C
  C166     1.0000 0.37021  0.81338  0.57063  Biso   1.000  C
  C167     1.0000 0.58118  0.87831  0.57508  Biso   1.000  C
  C168     1.0000 0.60011  0.80323  0.63443  Biso   1.000  C
  C169     1.0000 0.58129  0.86324  0.59818  Biso   1.000  C
  C170     1.0000 0.57396  0.77593  0.65317  Biso   1.000  C
  C171     1.0000 0.43690  0.19002  0.66724  Biso   1.000  C
  C172     1.0000 0.26577  0.12918  0.63705  Biso   1.000  C
  H142     1.0000 0.28636  0.16023  0.53229  Biso   1.000  H
  H143     1.0000 0.23219  0.17500  0.56739  Biso   1.000  H
  H144     1.0000 0.29206  0.25114  0.54901  Biso   1.000  H
  C173     1.0000 0.60750  0.24391  0.69924  Biso   1.000  C
  H145     1.0000 0.62528  0.34951  0.59910  Biso   1.000  H
  H146     1.0000 0.66666  0.34281  0.64869  Biso   1.000  H
  H147     1.0000 0.65785  0.27421  0.60960  Biso   1.000  H
  C174     1.0000 0.26937  0.73200  0.48793  Biso   1.000  C
  H148     1.0000 0.35637  0.66882  0.49489  Biso   1.000  H
  H149     1.0000 0.40371  0.84039  0.59949  Biso   1.000  H
  C175     1.0000 0.29747  0.83296  0.54963  Biso   1.000  C
  C176     1.0000 0.65645  0.94470  0.59851  Biso   1.000  C
  H150     1.0000 0.54952  0.88100  0.54659  Biso   1.000  H
  C177     1.0000 0.65542  0.92423  0.62690  Biso   1.000  C
  H151     1.0000 0.58047  0.75490  0.64699  Biso   1.000  H
  C178     1.0000 0.67589  0.86865  0.65707  Biso   1.000  C
  C179     1.0000 0.64812  0.83689  0.68200  Biso   1.000  C
  H152     1.0000 0.55850  0.87211  0.56949  Biso   1.000  H
  H153     1.0000 0.54622  0.72521  0.66230  Biso   1.000  H
  C180     1.0000 0.42344  0.15879  0.70948  Biso   1.000  C
  N23      1.0000 0.20583  0.17383  0.64624  Biso   1.000  N
  H154     1.0000 0.27304  0.09627  0.66060  Biso   1.000  H
  H155     1.0000 0.23319  0.09003  0.60950  Biso   1.000  H
  N24      1.0000 0.62702  0.32177  0.72751  Biso   1.000  N
  H156     1.0000 0.66055  0.24590  0.68740  Biso   1.000  H
  H157     1.0000 0.59547  0.19816  0.71628  Biso   1.000  H
  C181     1.0000 0.24603  0.79287  0.50756  Biso   1.000  C
  H158     1.0000 0.23461  0.70343  0.45950  Biso   1.000  H
  H159     1.0000 0.28180  0.87445  0.56389  Biso   1.000  H
  C182     1.0000 0.70491  0.94078  0.63979  Biso   1.000  C
  H160     1.0000 0.67520  0.99344  0.58630  Biso   1.000  H
  H161     1.0000 0.68333  0.97492  0.61791  Biso   1.000  H
  C183     1.0000 0.68877  0.91111  0.66878  Biso   1.000  C
  H162     1.0000 0.70896  0.86481  0.68497  Biso   1.000  H
  H163     1.0000 0.67086  0.82799  0.71059  Biso   1.000  H
  H164     1.0000 0.41953  0.10136  0.70699  Biso   1.000  H
  H165     1.0000 0.47538  0.19197  0.73379  Biso   1.000  H
  H166     1.0000 0.36686  0.16286  0.71488  Biso   1.000  H
  C184     1.0000 0.22990  0.25045  0.64738  Biso   1.000  C
  C185     1.0000 0.62588  0.31846  0.76722  Biso   1.000  C
  C186     1.0000 0.16720  0.81278  0.48564  Biso   1.000  C
  C187     1.0000 0.78428  0.01161  0.66446  Biso   1.000  C
  C188     1.0000 0.76358  0.97049  0.70110  Biso   1.000  C
  H167     1.0000 0.28825  0.28028  0.64339  Biso   1.000  H
  C189     1.0000 0.16766  0.29403  0.65484  Biso   1.000  C
  H168     1.0000 0.61827  0.26771  0.77740  Biso   1.000  H
  C190     1.0000 0.63581  0.39015  0.79784  Biso   1.000  C
  N25      1.0000 0.14107  0.86389  0.50422  Biso   1.000  N
  H169     1.0000 0.13500  0.78631  0.45658  Biso   1.000  H
  N26      1.0000 0.83037  0.00875  0.70173  Biso   1.000  N
  H170     1.0000 0.80147  0.06048  0.65229  Biso   1.000  H
  H171     1.0000 0.77289  0.96438  0.73110  Biso   1.000  H
  N27      1.0000 0.81746  0.03148  0.68919  Biso   1.000  N
  C191     1.0000 0.18750  0.37492  0.64899  Biso   1.000  C
  C192     1.0000 0.08747  0.25427  0.66652  Biso   1.000  C
  C193     1.0000 0.65616  0.46808  0.78646  Biso   1.000  C
  C194     1.0000 0.61869  0.38010  0.83887  Biso   1.000  C
  C195     1.0000 0.05880  0.87677  0.48109  Biso   1.000  C
  C196     1.0000 0.90529  0.08374  0.72476  Biso   1.000  C
  H172     1.0000 0.24250  0.40301  0.64130  Biso   1.000  H
  C197     1.0000 0.12785  0.41584  0.65429  Biso   1.000  C
  C198     1.0000 0.02817  0.29462  0.67195  Biso   1.000  C
  H173     1.0000 0.07315  0.19867  0.67078  Biso   1.000  H
  H174     1.0000 0.66905  0.47608  0.75888  Biso   1.000  H
  C199     1.0000 0.65817  0.53401  0.81410  Biso   1.000  C
  C200     1.0000 0.62026  0.44521  0.86661  Biso   1.000  C
  H175     1.0000 0.60588  0.32756  0.84757  Biso   1.000  H
  H176     1.0000 0.07370  0.93472  0.47680  Biso   1.000  H
  H177     1.0000 0.03371  0.84151  0.45200  Biso   1.000  H
  C201     1.0000 0.98878  0.85547  0.50795  Biso   1.000  C
  C202     1.0000 0.89789  0.09914  0.77157  Biso   1.000  C
  H178     1.0000 0.96468  0.07779  0.72469  Biso   1.000  H
  H179     1.0000 0.90150  0.13067  0.71000  Biso   1.000  H
  H180     1.0000 0.93006  0.13780  0.71569  Biso   1.000  H
  H181     1.0000 0.95097  0.05678  0.72489  Biso   1.000  H
  H182     1.0000 0.14200  0.47128  0.64990  Biso   1.000  H
  C203     1.0000 0.04828  0.37590  0.66597  Biso   1.000  C
  H183     1.0000 0.97337  0.26661  0.67990  Biso   1.000  H
  H184     1.0000 0.67204  0.58667  0.80560  Biso   1.000  H
  C204     1.0000 0.63944  0.52308  0.85503  Biso   1.000  C
  H185     1.0000 0.60804  0.43705  0.89429  Biso   1.000  H
  C205     1.0000 0.99614  0.91397  0.54276  Biso   1.000  C
  C206     1.0000 0.92140  0.77711  0.49997  Biso   1.000  C
  C207     1.0000 0.93240  0.05687  0.80213  Biso   1.000  C
  C208     1.0000 0.85595  0.15311  0.78312  Biso   1.000  C
  N28      1.0000 0.98826  0.41719  0.67349  Biso   1.000  N
  N29      1.0000 0.63738  0.58932  0.88271  Biso   1.000  N
  C209     1.0000 0.07554  0.99443  0.55362  Biso   1.000  C
  C210     1.0000 0.93205  0.89645  0.56772  Biso   1.000  C
  C211     1.0000 0.85823  0.75960  0.52578  Biso   1.000  C
  C212     1.0000 0.91696  0.71259  0.46411  Biso   1.000  C
  C213     1.0000 0.97363  0.99546  0.78862  Biso   1.000  C
  C214     1.0000 0.92823  0.07203  0.84581  Biso   1.000  C
  C215     1.0000 0.84962  0.16623  0.82650  Biso   1.000  C
  C216     1.0000 0.81465  0.19541  0.74916  Biso   1.000  C
  C217     1.0000 0.95139  0.45582  0.64097  Biso   1.000  C
  C218     1.0000 0.96307  0.41717  0.71347  Biso   1.000  C
  C219     1.0000 0.99338  0.43522  0.72139  Biso   1.000  C
  C220     1.0000 0.57480  0.57618  0.90934  Biso   1.000  C
  C221     1.0000 0.68889  0.67152  0.88013  Biso   1.000  C
  H186     1.0000 0.13243  0.98383  0.55480  Biso   1.000  H
  H187     1.0000 0.06668  0.02810  0.53098  Biso   1.000  H
  H188     1.0000 0.07886  0.02338  0.58208  Biso   1.000  H
  C222     1.0000 0.86380  0.81863  0.55974  Biso   1.000  C
  C223     1.0000 0.93654  0.95921  0.60475  Biso   1.000  C
  C224     1.0000 0.78540  0.67484  0.51845  Biso   1.000  C
  H189     1.0000 0.97559  0.72796  0.45619  Biso   1.000  H
  H190     1.0000 0.90440  0.65963  0.47438  Biso   1.000  H
  H191     1.0000 0.86821  0.70836  0.43849  Biso   1.000  H
  H192     1.0000 0.97208  0.95716  0.80959  Biso   1.000  H
  H193     1.0000 0.93850  0.96501  0.75940  Biso   1.000  H
  H194     1.0000 0.03706  0.02424  0.78810  Biso   1.000  H
  C225     1.0000 0.88528  0.12489  0.85768  Biso   1.000  C
  C226     1.0000 0.97456  0.03216  0.87941  Biso   1.000  C
  C227     1.0000 0.80256  0.22365  0.83903  Biso   1.000  C
  H195     1.0000 0.78966  0.15877  0.72090  Biso   1.000  H
  H196     1.0000 0.76556  0.20908  0.75819  Biso   1.000  H
  H197     1.0000 0.86184  0.24574  0.74648  Biso   1.000  H
  C228     1.0000 0.93586  0.42655  0.59707  Biso   1.000  C
  C229     1.0000 0.93089  0.52522  0.65268  Biso   1.000  C
  C230     1.0000 0.02860  0.42069  0.75080  Biso   1.000  C
  C231     1.0000 0.87915  0.41681  0.71723  Biso   1.000  C
  C232     1.0000 0.90866  0.41757  0.73078  Biso   1.000  C
  C233     1.0000 0.07267  0.46205  0.75518  Biso   1.000  C
  C234     1.0000 0.60156  0.62129  0.95138  Biso   1.000  C
  C235     1.0000 0.48626  0.52047  0.89429  Biso   1.000  C
  C236     1.0000 0.64719  0.72915  0.87479  Biso   1.000  C
  C237     1.0000 0.78154  0.69468  0.88261  Biso   1.000  C
  C238     1.0000 0.79921  0.79931  0.58892  Biso   1.000  C
  N30      1.0000 0.98666  0.94584  0.64624  Biso   1.000  N
  H198     1.0000 0.87388  0.95432  0.60639  Biso   1.000  H
  H199     1.0000 0.96766  0.01510  0.59929  Biso   1.000  H
  N31      1.0000 0.81284  0.63177  0.55326  Biso   1.000  N
  H200     1.0000 0.77933  0.64426  0.48959  Biso   1.000  H
  H201     1.0000 0.72559  0.67973  0.51901  Biso   1.000  H
  C239     1.0000 0.87476  0.13546  0.90398  Biso   1.000  C
  N32      1.0000 0.92640  0.94715  0.88369  Biso   1.000  N
  H202     1.0000 0.98977  0.06647  0.90839  Biso   1.000  H
  H203     1.0000 0.03314  0.03464  0.87290  Biso   1.000  H
  N33      1.0000 0.70404  0.17936  0.82765  Biso   1.000  N
  H204     1.0000 0.81676  0.27104  0.82340  Biso   1.000  H
  H205     1.0000 0.82479  0.24445  0.87090  Biso   1.000  H
  C240     1.0000 0.89760  0.46395  0.56527  Biso   1.000  C
  H206     1.0000 0.95155  0.38061  0.58859  Biso   1.000  H
  H207     1.0000 0.94380  0.54750  0.68268  Biso   1.000  H
  C241     1.0000 0.89237  0.56092  0.62128  Biso   1.000  C
  H208     1.0000 0.08715  0.42126  0.74871  Biso   1.000  H
  C242     1.0000 0.00835  0.42334  0.79120  Biso   1.000  C
  C243     1.0000 0.06724  0.47156  0.79840  Biso   1.000  C
  C244     1.0000 0.86016  0.42206  0.75783  Biso   1.000  C
  H209     1.0000 0.83338  0.41278  0.69168  Biso   1.000  H
  C245     1.0000 0.90329  0.42708  0.77399  Biso   1.000  C
  H210     1.0000 0.85449  0.39917  0.70768  Biso   1.000  H
  H211     1.0000 0.13057  0.47408  0.74880  Biso   1.000  H
  C246     1.0000 0.54135  0.60878  0.97749  Biso   1.000  C
  H212     1.0000 0.66144  0.66074  0.96198  Biso   1.000  H
  H213     1.0000 0.46678  0.49027  0.86550  Biso   1.000  H
  C247     1.0000 0.42655  0.50858  0.92063  Biso   1.000  C
  C248     1.0000 0.69615  0.80816  0.87047  Biso   1.000  C
  H214     1.0000 0.58406  0.71428  0.87407  Biso   1.000  H
  H215     1.0000 0.81113  0.65573  0.88647  Biso   1.000  H
  C249     1.0000 0.83139  0.77493  0.87937  Biso   1.000  C
  H216     1.0000 0.83189  0.82682  0.61899  Biso   1.000  H
  H217     1.0000 0.74870  0.81869  0.57848  Biso   1.000  H
  H218     1.0000 0.77493  0.73992  0.58830  Biso   1.000  H
  C250     1.0000 0.05223  0.00720  0.66943  Biso   1.000  C
  C251     1.0000 0.83373  0.57060  0.54312  Biso   1.000  C
  H219     1.0000 0.92533  0.18342  0.92158  Biso   1.000  H
  H220     1.0000 0.81664  0.14336  0.90348  Biso   1.000  H
  H221     1.0000 0.87547  0.08637  0.91680  Biso   1.000  H
  C252     1.0000 0.84175  0.91789  0.87041  Biso   1.000  C
  C253     1.0000 0.66380  0.17291  0.85834  Biso   1.000  C
  C254     1.0000 0.87319  0.53018  0.57691  Biso   1.000  C
  H222     1.0000 0.88799  0.44383  0.53520  Biso   1.000  H
  H223     1.0000 0.87826  0.60769  0.62968  Biso   1.000  H
  H224     1.0000 0.05226  0.42299  0.81649  Biso   1.000  H
  C255     1.0000 0.92565  0.42664  0.79523  Biso   1.000  C
  C256     1.0000 0.98254  0.45398  0.80779  Biso   1.000  C
  H225     1.0000 0.12148  0.48997  0.82150  Biso   1.000  H
  H226     1.0000 0.80199  0.42266  0.75999  Biso   1.000  H
  H227     1.0000 0.84533  0.41506  0.78037  Biso   1.000  H
  C257     1.0000 0.45303  0.55252  0.96283  Biso   1.000  C
  H228     1.0000 0.56080  0.63950  0.00621  Biso   1.000  H
  H229     1.0000 0.36628  0.46975  0.90990  Biso   1.000  H
  C258     1.0000 0.78957  0.83213  0.87365  Biso   1.000  C
  H230     1.0000 0.66590  0.84649  0.86540  Biso   1.000  H
  H231     1.0000 0.89489  0.79025  0.88117  Biso   1.000  H
  H232     1.0000 0.06478  0.05848  0.65939  Biso   1.000  H
  C259     1.0000 0.10972  0.00282  0.71118  Biso   1.000  C
  H233     1.0000 0.82397  0.55000  0.51308  Biso   1.000  H
  H234     1.0000 0.80980  0.95109  0.85788  Biso   1.000  H
  H235     1.0000 0.69876  0.19805  0.88719  Biso   1.000  H
  C260     1.0000 0.56603  0.12841  0.85101  Biso   1.000  C
  C261     1.0000 0.90586  0.43279  0.83838  Biso   1.000  C
  C262     1.0000 0.98105  0.46176  0.85428  Biso   1.000  C
  C263     1.0000 0.39017  0.54123  0.99113  Biso   1.000  C
  C264     1.0000 0.09913  0.92977  0.72783  Biso   1.000  C
  C265     1.0000 0.17780  0.07419  0.73487  Biso   1.000  C
  C266     1.0000 0.51204  0.08950  0.80903  Biso   1.000  C
  C267     1.0000 0.52480  0.12207  0.88539  Biso   1.000  C
  N34      1.0000 0.95897  0.42448  0.87165  Biso   1.000  N
  H236     1.0000 0.85238  0.44316  0.84119  Biso   1.000  H
  H237     1.0000 0.03668  0.49076  0.87558  Biso   1.000  H
  N35      1.0000 0.90915  0.43146  0.86697  Biso   1.000  N
  N36      1.0000 0.30633  0.49778  0.97778  Biso   1.000  N
  H238     1.0000 0.41320  0.56770  0.02080  Biso   1.000  H
  C268     1.0000 0.15615  0.92799  0.76640  Biso   1.000  C
  H239     1.0000 0.05179  0.88057  0.71229  Biso   1.000  H
  H240     1.0000 0.18591  0.12449  0.72400  Biso   1.000  H
  C269     1.0000 0.23444  0.07282  0.77439  Biso   1.000  C
  H241     1.0000 0.53924  0.09278  0.78499  Biso   1.000  H
  C270     1.0000 0.42032  0.04671  0.80216  Biso   1.000  C
  C271     1.0000 0.43301  0.07987  0.87905  Biso   1.000  C
  H242     1.0000 0.56087  0.14752  0.91408  Biso   1.000  H
  C272     1.0000 0.93552  0.43527  0.91392  Biso   1.000  C
  C273     1.0000 0.25006  0.49193  0.00942  Biso   1.000  C
  C274     1.0000 0.22474  0.99941  0.79006  Biso   1.000  C
  H243     1.0000 0.14873  0.87752  0.77710  Biso   1.000  H
  H244     1.0000 0.27987  0.12234  0.79078  Biso   1.000  H
  H245     1.0000 0.38460  0.02079  0.77350  Biso   1.000  H
  C275     1.0000 0.37875  0.04110  0.83733  Biso   1.000  C
  H246     1.0000 0.40627  0.07705  0.90319  Biso   1.000  H
  C276     1.0000 0.02048  0.49416  0.94566  Biso   1.000  C
  H247     1.0000 0.88547  0.45764  0.91068  Biso   1.000  H
  H248     1.0000 0.91546  0.38206  0.92439  Biso   1.000  H
  H249     1.0000 0.88395  0.44166  0.92468  Biso   1.000  H
  H250     1.0000 0.93569  0.37986  0.91840  Biso   1.000  H
  C277     1.0000 0.17170  0.52096  0.99175  Biso   1.000  C
  H251     1.0000 0.22564  0.43434  0.01410  Biso   1.000  H
  H252     1.0000 0.28783  0.52624  0.03778  Biso   1.000  H
  N37      1.0000 0.28522  0.99801  0.82968  Biso   1.000  N
  C278     1.0000 0.02986  0.57646  0.95681  Biso   1.000  C
  C279     1.0000 0.09263  0.46678  0.96277  Biso   1.000  C
  C280     1.0000 0.18065  0.60289  0.00369  Biso   1.000  C
  C281     1.0000 0.24932  0.95371  0.86108  Biso   1.000  C
  C282     1.0000 0.10946  0.62978  0.98675  Biso   1.000  C
  C283     1.0000 0.95598  0.60670  0.93522  Biso   1.000  C
  C284     1.0000 0.08517  0.37967  0.94817  Biso   1.000  C
  C285     1.0000 0.26817  0.66220  0.03402  Biso   1.000  C
  C286     1.0000 0.16687  0.95214  0.86822  Biso   1.000  C
  C287     1.0000 0.29599  0.90928  0.88457  Biso   1.000  C
  C288     1.0000 0.11978  0.71878  0.99983  Biso   1.000  C
  H253     1.0000 0.90884  0.59665  0.95158  Biso   1.000  H
  H254     1.0000 0.98247  0.66569  0.93489  Biso   1.000  H
  H255     1.0000 0.92860  0.57748  0.90509  Biso   1.000  H
  H256     1.0000 0.06446  0.34556  0.96957  Biso   1.000  H
  H257     1.0000 0.04106  0.35807  0.91958  Biso   1.000  H
  H258     1.0000 0.14506  0.37897  0.94588  Biso   1.000  H
  H259     1.0000 0.32018  0.64900  0.02830  Biso   1.000  H
  H260     1.0000 0.27508  0.71829  0.02898  Biso   1.000  H
  H261     1.0000 0.26606  0.65784  0.06438  Biso   1.000  H
  C289     1.0000 0.12981  0.90659  0.89809  Biso   1.000  C
  H262     1.0000 0.13501  0.98258  0.85258  Biso   1.000  H
  C290     1.0000 0.26003  0.86524  0.91428  Biso   1.000  C
  H263     1.0000 0.35289  0.90966  0.87990  Biso   1.000  H
  N38      1.0000 0.17162  0.76978  0.97346  Biso   1.000  N
  H264     1.0000 0.05867  0.72365  0.99538  Biso   1.000  H
  H265     1.0000 0.15191  0.73755  0.03121  Biso   1.000  H
  C291     1.0000 0.17611  0.86283  0.92161  Biso   1.000  C
  H266     1.0000 0.07236  0.90548  0.90237  Biso   1.000  H
  H267     1.0000 0.29275  0.83577  0.93028  Biso   1.000  H
  C292     1.0000 0.13425  0.81255  0.95148  Biso   1.000  C
  H268     1.0000 0.07616  0.81193  0.95459  Biso   1.000  H
