data_image0
_cell_length_a       9.741
_cell_length_b       12.891
_cell_length_c       39.643
_cell_angle_alpha    90
_cell_angle_beta     92.18
_cell_angle_gamma    90

_symmetry_space_group_name_H-M    "P 1"
_symmetry_int_tables_number       1

loop_
  _symmetry_equiv_pos_as_xyz
  'x, y, z'

loop_
  _atom_site_label
  _atom_site_occupancy
  _atom_site_fract_x
  _atom_site_fract_y
  _atom_site_fract_z
  _atom_site_thermal_displace_type
  _atom_site_B_iso_or_equiv
  _atom_site_type_symbol
  N1       1.0000 0.66576  0.60515  0.51340  Biso   1.000  N
  C1       1.0000 0.75166  0.52967  0.51391  Biso   1.000  C
  O1       1.0000 0.66369  0.65007  0.54579  Biso   1.000  O
  C2       1.0000 0.77442  0.46940  0.48316  Biso   1.000  C
  H1       1.0000 0.80092  0.51261  0.53430  Biso   1.000  H
  C3       1.0000 0.57448  0.73935  0.54377  Biso   1.000  C
  C4       1.0000 0.69978  0.48375  0.45330  Biso   1.000  C
  C5       1.0000 0.87854  0.39702  0.48397  Biso   1.000  C
  H2       1.0000 0.48637  0.71949  0.53231  Biso   1.000  H
  H3       1.0000 0.55465  0.76263  0.56689  Biso   1.000  H
  C6       1.0000 0.63726  0.82779  0.52489  Biso   1.000  C
  C7       1.0000 0.72983  0.42828  0.42459  Biso   1.000  C
  H4       1.0000 0.62655  0.53246  0.45241  Biso   1.000  H
  C8       1.0000 0.90962  0.34171  0.45532  Biso   1.000  C
  H5       1.0000 0.92975  0.38492  0.50446  Biso   1.000  H
  C9       1.0000 0.75703  0.87720  0.53665  Biso   1.000  C
  C10      1.0000 0.57715  0.86394  0.49538  Biso   1.000  C
  C11      1.0000 0.83606  0.35637  0.42510  Biso   1.000  C
  H6       1.0000 0.67700  0.43969  0.40427  Biso   1.000  H
  H7       1.0000 0.98257  0.29276  0.45638  Biso   1.000  H
  H8       1.0000 0.80264  0.85261  0.55669  Biso   1.000  H
  C12      1.0000 0.81072  0.96020  0.52006  Biso   1.000  C
  C13      1.0000 0.63087  0.94826  0.47834  Biso   1.000  C
  H9       1.0000 0.49691  0.83073  0.48634  Biso   1.000  H
  C14      1.0000 0.87234  0.29998  0.39423  Biso   1.000  C
  H10      1.0000 0.89235  0.99224  0.52880  Biso   1.000  H
  C15      1.0000 0.74758  0.99760  0.49086  Biso   1.000  C
  H11      1.0000 0.58676  0.97192  0.45799  Biso   1.000  H
  C16      1.0000 0.77776  0.28198  0.36749  Biso   1.000  C
  C17      1.0000 0.00441  0.26290  0.39057  Biso   1.000  C
  C18      1.0000 0.80151  0.09417  0.47445  Biso   1.000  C
  C19      1.0000 0.81743  0.23303  0.33856  Biso   1.000  C
  H12      1.0000 0.68524  0.30378  0.36929  Biso   1.000  H
  C20      1.0000 0.03978  0.21209  0.36176  Biso   1.000  C
  H13      1.0000 0.07142  0.27275  0.40831  Biso   1.000  H
  O2       1.0000 0.76950  0.09898  0.43881  Biso   1.000  O
  H14      1.0000 0.90249  0.09697  0.47824  Biso   1.000  H
  H15      1.0000 0.76194  0.15569  0.48543  Biso   1.000  H
  N2       1.0000 0.94793  0.19890  0.33607  Biso   1.000  N
  H16      1.0000 0.75270  0.22302  0.32031  Biso   1.000  H
  H17      1.0000 0.13047  0.18594  0.36000  Biso   1.000  H
  N3       1.0000 0.85609  0.03010  0.42184  Biso   1.000  N
  C21      1.0000 0.99438  0.15181  0.30388  Biso   1.000  C
  C22      1.0000 0.81237  0.02056  0.39147  Biso   1.000  C
  H18      1.0000 0.91479  0.12148  0.29111  Biso   1.000  H
  C23      1.0000 0.05993  0.23450  0.28303  Biso   1.000  C
  H19      1.0000 0.06139  0.09573  0.30900  Biso   1.000  H
  C24      1.0000 0.88566  0.95609  0.36749  Biso   1.000  C
  H20      1.0000 0.73085  0.05570  0.38410  Biso   1.000  H
  C25      1.0000 0.98772  0.28066  0.25620  Biso   1.000  C
  C26      1.0000 0.19150  0.26996  0.29207  Biso   1.000  C
  C27      1.0000 0.82780  0.94143  0.33528  Biso   1.000  C
  C28      1.0000 0.01145  0.90908  0.37570  Biso   1.000  C
  H21      1.0000 0.90076  0.25398  0.24890  Biso   1.000  H
  C29      1.0000 0.04238  0.36646  0.23994  Biso   1.000  C
  C30      1.0000 0.24598  0.35536  0.27594  Biso   1.000  C
  H22      1.0000 0.24407  0.23551  0.30933  Biso   1.000  H
  C31      1.0000 0.88902  0.87728  0.31231  Biso   1.000  C
  H23      1.0000 0.74469  0.97618  0.32892  Biso   1.000  H
  C32      1.0000 0.07359  0.84578  0.35270  Biso   1.000  C
  H24      1.0000 0.05472  0.92080  0.39726  Biso   1.000  H
  H25      1.0000 0.99262  0.39795  0.22156  Biso   1.000  H
  C33      1.0000 0.16957  0.40579  0.25054  Biso   1.000  C
  H26      1.0000 0.33555  0.37941  0.28225  Biso   1.000  H
  C34      1.0000 0.01160  0.82600  0.32097  Biso   1.000  C
  H27      1.0000 0.84735  0.86797  0.29048  Biso   1.000  H
  H28      1.0000 0.15981  0.81506  0.35856  Biso   1.000  H
  C35      1.0000 0.22316  0.50555  0.23661  Biso   1.000  C
  C36      1.0000 0.06992  0.74874  0.29782  Biso   1.000  C
  N4       1.0000 0.17221  0.59468  0.25698  Biso   1.000  N
  H29      1.0000 0.19144  0.51346  0.21273  Biso   1.000  H
  H30      1.0000 0.32494  0.50485  0.23754  Biso   1.000  H
  C37      1.0000 0.99211  0.70755  0.27066  Biso   1.000  C
  C38      1.0000 0.20313  0.70980  0.30282  Biso   1.000  C
  C39      1.0000 0.04477  0.63160  0.25077  Biso   1.000  C
  C40      1.0000 0.25211  0.63385  0.28235  Biso   1.000  C
  H31      1.0000 0.90166  0.73260  0.26594  Biso   1.000  H
  H32      1.0000 0.26061  0.73641  0.32069  Biso   1.000  H
  H33      1.0000 0.99060  0.60461  0.23237  Biso   1.000  H
  H34      1.0000 0.34302  0.60856  0.28606  Biso   1.000  H
  N5       1.0000 0.33423  0.39477  0.48659  Biso   1.000  N
  O3       1.0000 0.33630  0.34986  0.45420  Biso   1.000  O
  C41      1.0000 0.24833  0.47025  0.48606  Biso   1.000  C
  C42      1.0000 0.42552  0.26057  0.45622  Biso   1.000  C
  C43      1.0000 0.22558  0.53060  0.51683  Biso   1.000  C
  H35      1.0000 0.19908  0.48732  0.46569  Biso   1.000  H
  H36      1.0000 0.51363  0.28043  0.46768  Biso   1.000  H
  H37      1.0000 0.44524  0.23737  0.43310  Biso   1.000  H
  C44      1.0000 0.36274  0.17221  0.47511  Biso   1.000  C
  C45      1.0000 0.30021  0.51617  0.54667  Biso   1.000  C
  C46      1.0000 0.12136  0.60298  0.51603  Biso   1.000  C
  C47      1.0000 0.24296  0.12280  0.46334  Biso   1.000  C
  C48      1.0000 0.42274  0.13599  0.50462  Biso   1.000  C
  C49      1.0000 0.27017  0.57172  0.57540  Biso   1.000  C
  H38      1.0000 0.37345  0.46754  0.54758  Biso   1.000  H
  H39      1.0000 0.07024  0.61508  0.49550  Biso   1.000  H
  C50      1.0000 0.09038  0.65829  0.54468  Biso   1.000  C
  H40      1.0000 0.19736  0.14739  0.44330  Biso   1.000  H
  C51      1.0000 0.18927  0.03980  0.47993  Biso   1.000  C
  C52      1.0000 0.36912  0.05166  0.52165  Biso   1.000  C
  H41      1.0000 0.50309  0.16927  0.51365  Biso   1.000  H
  C53      1.0000 0.16394  0.64355  0.57489  Biso   1.000  C
  H42      1.0000 0.32300  0.56031  0.59572  Biso   1.000  H
  H43      1.0000 0.01742  0.70724  0.54359  Biso   1.000  H
  H44      1.0000 0.10764  0.00776  0.47119  Biso   1.000  H
  C54      1.0000 0.25241  0.00240  0.50913  Biso   1.000  C
  H45      1.0000 0.41324  0.02808  0.54200  Biso   1.000  H
  C55      1.0000 0.12755  0.69995  0.60577  Biso   1.000  C
  C56      1.0000 0.19849  0.90583  0.52554  Biso   1.000  C
  C57      1.0000 0.22224  0.71794  0.63250  Biso   1.000  C
  C58      1.0000 0.99558  0.73710  0.60940  Biso   1.000  C
  O4       1.0000 0.23049  0.90102  0.56116  Biso   1.000  O
  H46      1.0000 0.09751  0.90303  0.52176  Biso   1.000  H
  H47      1.0000 0.23796  0.84423  0.51456  Biso   1.000  H
  C59      1.0000 0.18257  0.76697  0.66143  Biso   1.000  C
  H48      1.0000 0.31476  0.69614  0.63071  Biso   1.000  H
  H49      1.0000 0.92857  0.72717  0.59168  Biso   1.000  H
  C60      1.0000 0.96021  0.78791  0.63823  Biso   1.000  C
  N6       1.0000 0.14391  0.96990  0.57815  Biso   1.000  N
  N7       1.0000 0.05206  0.80110  0.66390  Biso   1.000  N
  H50      1.0000 0.24730  0.77698  0.67968  Biso   1.000  H
  H51      1.0000 0.86953  0.81398  0.64000  Biso   1.000  H
  C61      1.0000 0.18762  0.97937  0.60852  Biso   1.000  C
  C62      1.0000 0.00562  0.84819  0.69611  Biso   1.000  C
  C63      1.0000 0.11434  0.04391  0.63250  Biso   1.000  C
  H52      1.0000 0.26904  0.94430  0.61586  Biso   1.000  H
  H53      1.0000 0.08510  0.87852  0.70889  Biso   1.000  H
  C64      1.0000 0.93996  0.76550  0.71696  Biso   1.000  C
  H54      1.0000 0.93861  0.90427  0.69099  Biso   1.000  H
  C65      1.0000 0.17220  0.05849  0.66471  Biso   1.000  C
  C66      1.0000 0.98855  0.09092  0.62429  Biso   1.000  C
  C67      1.0000 0.01228  0.71926  0.74377  Biso   1.000  C
  C68      1.0000 0.80849  0.72997  0.70793  Biso   1.000  C
  H55      1.0000 0.25531  0.02374  0.67107  Biso   1.000  H
  C69      1.0000 0.11098  0.12272  0.68768  Biso   1.000  C
  C70      1.0000 0.92640  0.15422  0.64729  Biso   1.000  C
  H56      1.0000 0.94527  0.07920  0.60274  Biso   1.000  H
  H57      1.0000 0.09923  0.74602  0.75109  Biso   1.000  H
  C71      1.0000 0.95762  0.63347  0.76005  Biso   1.000  C
  C72      1.0000 0.75402  0.64456  0.72406  Biso   1.000  C
  H58      1.0000 0.75593  0.76449  0.69066  Biso   1.000  H
  H59      1.0000 0.15265  0.13203  0.70952  Biso   1.000  H
  C73      1.0000 0.98839  0.17400  0.67902  Biso   1.000  C
  H60      1.0000 0.84009  0.18494  0.64143  Biso   1.000  H
  H61      1.0000 0.00738  0.60205  0.77843  Biso   1.000  H
  C74      1.0000 0.83042  0.59421  0.74945  Biso   1.000  C
  H62      1.0000 0.66444  0.62059  0.71772  Biso   1.000  H
  C75      1.0000 0.93007  0.25118  0.70217  Biso   1.000  C
  C76      1.0000 0.77684  0.49438  0.76339  Biso   1.000  C
  C77      1.0000 0.00789  0.29237  0.72933  Biso   1.000  C
  C78      1.0000 0.79677  0.29020  0.69717  Biso   1.000  C
  N8       1.0000 0.82778  0.40532  0.74301  Biso   1.000  N
  H63      1.0000 0.80856  0.48654  0.78727  Biso   1.000  H
  H64      1.0000 0.67506  0.49507  0.76245  Biso   1.000  H
  H65      1.0000 0.09834  0.26732  0.73405  Biso   1.000  H
  C79      1.0000 0.95522  0.36840  0.74920  Biso   1.000  C
  C80      1.0000 0.74789  0.36607  0.71764  Biso   1.000  C
  H66      1.0000 0.73939  0.26359  0.67930  Biso   1.000  H
  H67      1.0000 0.00940  0.39531  0.76763  Biso   1.000  H
  H68      1.0000 0.65698  0.39144  0.71393  Biso   1.000  H
  C81      1.0000 0.54482  0.86836  0.75076  Biso   1.000  C
  N9       1.0000 0.67216  0.90528  0.75697  Biso   1.000  N
  C82      1.0000 0.49206  0.79241  0.77066  Biso   1.000  C
  H69      1.0000 0.49054  0.89535  0.73236  Biso   1.000  H
  C83      1.0000 0.75205  0.86611  0.78234  Biso   1.000  C
  C84      1.0000 0.72321  0.99434  0.73660  Biso   1.000  C
  C85      1.0000 0.56987  0.75114  0.79782  Biso   1.000  C
  H70      1.0000 0.40160  0.76728  0.76594  Biso   1.000  H
  H71      1.0000 0.84307  0.89140  0.78605  Biso   1.000  H
  C86      1.0000 0.70318  0.79016  0.80282  Biso   1.000  C
  H72      1.0000 0.69138  0.98650  0.71270  Biso   1.000  H
  H73      1.0000 0.82488  0.99504  0.73751  Biso   1.000  H
  C87      1.0000 0.66962  0.09417  0.75054  Biso   1.000  C
  C88      1.0000 0.51155  0.67396  0.82097  Biso   1.000  C
  H74      1.0000 0.76056  0.76356  0.82069  Biso   1.000  H
  C89      1.0000 0.74603  0.14460  0.77593  Biso   1.000  C
  C90      1.0000 0.54243  0.13343  0.73991  Biso   1.000  C
  C91      1.0000 0.38897  0.62268  0.81231  Biso   1.000  C
  C92      1.0000 0.57354  0.65418  0.85270  Biso   1.000  C
  H75      1.0000 0.83560  0.12055  0.78224  Biso   1.000  H
  C93      1.0000 0.69145  0.22993  0.79206  Biso   1.000  C
  C94      1.0000 0.48766  0.21930  0.75619  Biso   1.000  C
  H76      1.0000 0.49257  0.10201  0.72156  Biso   1.000  H
  C95      1.0000 0.32775  0.55845  0.83528  Biso   1.000  C
  H77      1.0000 0.34740  0.63199  0.79045  Biso   1.000  H
  H78      1.0000 0.65986  0.68490  0.85855  Biso   1.000  H
  C96      1.0000 0.51150  0.59088  0.87569  Biso   1.000  C
  H79      1.0000 0.74412  0.26445  0.80933  Biso   1.000  H
  C97      1.0000 0.55998  0.26546  0.78300  Biso   1.000  C
  H80      1.0000 0.40071  0.24599  0.74890  Biso   1.000  H
  H81      1.0000 0.24474  0.52378  0.82892  Biso   1.000  H
  C98      1.0000 0.38571  0.54387  0.86749  Biso   1.000  C
  H82      1.0000 0.55467  0.57916  0.89725  Biso   1.000  H
  C99      1.0000 0.49443  0.34815  0.80388  Biso   1.000  C
  C100     1.0000 0.31242  0.47940  0.89147  Biso   1.000  C
  N10      1.0000 0.44788  0.30106  0.83606  Biso   1.000  N
  H83      1.0000 0.56144  0.40424  0.80900  Biso   1.000  H
  H84      1.0000 0.41484  0.37848  0.79110  Biso   1.000  H
  N11      1.0000 0.35614  0.46986  0.92184  Biso   1.000  N
  H85      1.0000 0.23090  0.44426  0.88410  Biso   1.000  H
  C101     1.0000 0.31737  0.26693  0.83856  Biso   1.000  C
  C102     1.0000 0.53983  0.28788  0.86176  Biso   1.000  C
  O5       1.0000 0.26945  0.40098  0.93880  Biso   1.000  O
  H86      1.0000 0.25274  0.27694  0.82028  Biso   1.000  H
  C103     1.0000 0.27781  0.21798  0.86749  Biso   1.000  C
  C104     1.0000 0.50436  0.23706  0.89056  Biso   1.000  C
  H87      1.0000 0.63052  0.31394  0.85999  Biso   1.000  H
  C105     1.0000 0.30145  0.40579  0.97445  Biso   1.000  C
  H88      1.0000 0.18518  0.19618  0.86926  Biso   1.000  H
  C106     1.0000 0.37239  0.19998  0.89420  Biso   1.000  C
  H89      1.0000 0.57147  0.22721  0.90831  Biso   1.000  H
  C107     1.0000 0.24763  0.50237  0.99085  Biso   1.000  C
  H90      1.0000 0.40244  0.40299  0.97823  Biso   1.000  H
  H91      1.0000 0.26199  0.34419  0.98543  Biso   1.000  H
  C108     1.0000 0.33611  0.14359  0.92510  Biso   1.000  C
  C109     1.0000 0.13092  0.55170  0.97833  Biso   1.000  C
  C110     1.0000 0.31067  0.53976  0.02004  Biso   1.000  C
  C111     1.0000 0.22978  0.07168  0.92459  Biso   1.000  C
  C112     1.0000 0.40957  0.15825  0.95531  Biso   1.000  C
  H92      1.0000 0.08681  0.52804  0.95796  Biso   1.000  H
  C113     1.0000 0.07720  0.63595  0.99537  Biso   1.000  C
  C114     1.0000 0.25698  0.62276  0.03665  Biso   1.000  C
  H93      1.0000 0.39230  0.50772  0.02879  Biso   1.000  H
  H94      1.0000 0.17705  0.06027  0.90427  Biso   1.000  H
  C115     1.0000 0.19983  0.01614  0.95329  Biso   1.000  C
  C116     1.0000 0.37858  0.10294  0.98396  Biso   1.000  C
  H95      1.0000 0.48252  0.20720  0.95637  Biso   1.000  H
  H96      1.0000 0.99696  0.66923  0.98634  Biso   1.000  H
  C117     1.0000 0.13731  0.67217  0.02488  Biso   1.000  C
  H97      1.0000 0.30269  0.64735  0.05669  Biso   1.000  H
  H98      1.0000 0.12660  0.96750  0.95241  Biso   1.000  H
  C118     1.0000 0.27436  0.03056  0.98315  Biso   1.000  C
  H99      1.0000 0.42980  0.11504  0.00446  Biso   1.000  H
  C119     1.0000 0.07453  0.76061  0.04376  Biso   1.000  C
  C120     1.0000 0.25171  0.97029  0.01390  Biso   1.000  C
  H100     1.0000 0.98642  0.78039  0.03230  Biso   1.000  H
  O6       1.0000 0.16374  0.84990  0.04578  Biso   1.000  O
  H101     1.0000 0.05470  0.73734  0.06689  Biso   1.000  H
  N12      1.0000 0.16581  0.89481  0.01340  Biso   1.000  N
  H102     1.0000 0.30086  0.98728  0.03430  Biso   1.000  H
  C121     1.0000 0.45517  0.13156  0.24923  Biso   1.000  C
  N13      1.0000 0.32784  0.09472  0.24302  Biso   1.000  N
  C122     1.0000 0.50794  0.20759  0.22934  Biso   1.000  C
  H103     1.0000 0.50935  0.10465  0.26763  Biso   1.000  H
  C123     1.0000 0.24794  0.13389  0.21765  Biso   1.000  C
  C124     1.0000 0.27679  0.00559  0.26339  Biso   1.000  C
  C125     1.0000 0.43013  0.24878  0.20217  Biso   1.000  C
  H104     1.0000 0.59839  0.23264  0.23406  Biso   1.000  H
  H105     1.0000 0.15693  0.10860  0.21394  Biso   1.000  H
  C126     1.0000 0.29682  0.20976  0.19718  Biso   1.000  C
  H106     1.0000 0.30861  0.01350  0.28727  Biso   1.000  H
  H107     1.0000 0.17501  0.00489  0.26246  Biso   1.000  H
  C127     1.0000 0.33037  0.90583  0.24946  Biso   1.000  C
  C128     1.0000 0.48834  0.32596  0.17903  Biso   1.000  C
  H108     1.0000 0.23944  0.23637  0.17930  Biso   1.000  H
  C129     1.0000 0.25397  0.85540  0.22406  Biso   1.000  C
  C130     1.0000 0.45757  0.86650  0.26006  Biso   1.000  C
  C131     1.0000 0.61103  0.37732  0.18768  Biso   1.000  C
  C132     1.0000 0.42635  0.34582  0.14730  Biso   1.000  C
  H109     1.0000 0.16439  0.87937  0.21772  Biso   1.000  H
  C133     1.0000 0.30844  0.76999  0.20793  Biso   1.000  C
  C134     1.0000 0.51233  0.78070  0.24378  Biso   1.000  C
  H110     1.0000 0.50733  0.89791  0.27843  Biso   1.000  H
  C135     1.0000 0.67215  0.44147  0.16471  Biso   1.000  C
  H111     1.0000 0.65260  0.36793  0.20952  Biso   1.000  H
  H112     1.0000 0.34014  0.31503  0.14144  Biso   1.000  H
  C136     1.0000 0.48850  0.40912  0.12430  Biso   1.000  C
  H113     1.0000 0.25588  0.73555  0.19066  Biso   1.000  H
  C137     1.0000 0.44001  0.73454  0.21697  Biso   1.000  C
  H114     1.0000 0.59929  0.75394  0.25110  Biso   1.000  H
  H115     1.0000 0.75526  0.47622  0.17107  Biso   1.000  H
  C138     1.0000 0.61429  0.45605  0.13250  Biso   1.000  C
  H116     1.0000 0.44522  0.42084  0.10274  Biso   1.000  H
  C139     1.0000 0.50557  0.65177  0.19612  Biso   1.000  C
  C140     1.0000 0.68757  0.52060  0.10852  Biso   1.000  C
  N14      1.0000 0.55212  0.69894  0.16391  Biso   1.000  N
  H117     1.0000 0.43856  0.59576  0.19099  Biso   1.000  H
  H118     1.0000 0.58516  0.62144  0.20889  Biso   1.000  H
  N15      1.0000 0.64386  0.53006  0.07815  Biso   1.000  N
  H119     1.0000 0.76910  0.55574  0.11589  Biso   1.000  H
  C141     1.0000 0.68262  0.73299  0.16143  Biso   1.000  C
  C142     1.0000 0.46016  0.71212  0.13823  Biso   1.000  C
  O7       1.0000 0.73045  0.59895  0.06119  Biso   1.000  O
  H120     1.0000 0.74725  0.72306  0.17968  Biso   1.000  H
  C143     1.0000 0.72219  0.78202  0.13250  Biso   1.000  C
  C144     1.0000 0.49564  0.76294  0.10943  Biso   1.000  C
  H121     1.0000 0.36948  0.68598  0.14000  Biso   1.000  H
  C145     1.0000 0.69844  0.59421  0.02555  Biso   1.000  C
  H122     1.0000 0.81481  0.80382  0.13071  Biso   1.000  H
  C146     1.0000 0.62760  0.80002  0.10577  Biso   1.000  C
  H123     1.0000 0.42852  0.77279  0.09168  Biso   1.000  H
  C147     1.0000 0.75236  0.49756  0.00914  Biso   1.000  C
  H124     1.0000 0.59746  0.59693  0.02176  Biso   1.000  H
  H125     1.0000 0.73801  0.65573  0.01457  Biso   1.000  H
  C148     1.0000 0.66389  0.85641  0.07490  Biso   1.000  C
  C149     1.0000 0.86908  0.44830  0.02166  Biso   1.000  C
  C150     1.0000 0.68933  0.46017  0.97993  Biso   1.000  C
  C151     1.0000 0.77022  0.92832  0.07540  Biso   1.000  C
  C152     1.0000 0.59043  0.84167  0.04468  Biso   1.000  C
  H126     1.0000 0.91319  0.47188  0.04201  Biso   1.000  H
  C153     1.0000 0.92280  0.36397  0.00462  Biso   1.000  C
  C154     1.0000 0.74302  0.37716  0.96335  Biso   1.000  C
  H127     1.0000 0.60770  0.49228  0.97120  Biso   1.000  H
  H128     1.0000 0.82295  0.93965  0.09572  Biso   1.000  H
  C155     1.0000 0.80017  0.98379  0.04670  Biso   1.000  C
  C156     1.0000 0.62141  0.89698  0.01603  Biso   1.000  C
  H129     1.0000 0.51737  0.79272  0.04360  Biso   1.000  H
  C157     1.0000 0.86269  0.32783  0.97511  Biso   1.000  C
  H130     1.0000 0.00304  0.33077  0.01366  Biso   1.000  H
  H131     1.0000 0.69731  0.35265  0.94330  Biso   1.000  H
  H132     1.0000 0.87340  0.03250  0.04758  Biso   1.000  H
  C158     1.0000 0.72563  0.96944  0.01684  Biso   1.000  C
  H133     1.0000 0.57019  0.88496  0.99551  Biso   1.000  H
  C159     1.0000 0.92547  0.23939  0.95623  Biso   1.000  C
  C160     1.0000 0.74828  0.02971  0.98609  Biso   1.000  C
  O8       1.0000 0.83625  0.15010  0.95421  Biso   1.000  O
  H134     1.0000 0.94530  0.26266  0.93310  Biso   1.000  H
  H135     1.0000 0.01358  0.21953  0.96769  Biso   1.000  H
  N16      1.0000 0.83418  0.10519  0.98660  Biso   1.000  N
  H136     1.0000 0.69903  0.01264  0.96569  Biso   1.000  H
  Ne1      1.0000 0.59555  0.11483  0.11481  Biso   1.000  Ne
  He1      1.0000 0.45285  0.05788  0.12511  Biso   1.000  He
  He2      1.0000 0.42934  0.22840  0.02955  Biso   1.000  He
  Ar1      1.0000 0.58779  0.12311  0.11656  Biso   1.000  Ar
  Ne2      1.0000 0.90442  0.61481  0.38519  Biso   1.000  Ne
  He3      1.0000 0.09288  0.55716  0.38248  Biso   1.000  He
  He4      1.0000 0.81174  0.56815  0.34223  Biso   1.000  He
  Ar2      1.0000 0.91217  0.62309  0.38344  Biso   1.000  Ar
  Ne3      1.0000 0.09556  0.38515  0.61480  Biso   1.000  Ne
  He5      1.0000 0.98705  0.43901  0.63086  Biso   1.000  He
  He6      1.0000 0.17183  0.43357  0.65628  Biso   1.000  He
  Ar3      1.0000 0.08783  0.37689  0.61655  Biso   1.000  Ar
  Ne4      1.0000 0.40443  0.88514  0.88518  Biso   1.000  Ne
  He7      1.0000 0.58141  0.94308  0.88069  Biso   1.000  He
  He8      1.0000 0.33757  0.93503  0.84464  Biso   1.000  He
  Ar4      1.0000 0.41216  0.87688  0.88344  Biso   1.000  Ar
