data_image0
_cell_length_a       13.898
_cell_length_b       20.472
_cell_length_c       15.404
_cell_angle_alpha    90
_cell_angle_beta     104.79
_cell_angle_gamma    90

_symmetry_space_group_name_H-M    "P 1"
_symmetry_int_tables_number       1

loop_
  _symmetry_equiv_pos_as_xyz
  'x, y, z'

loop_
  _atom_site_label
  _atom_site_occupancy
  _atom_site_fract_x
  _atom_site_fract_y
  _atom_site_fract_z
  _atom_site_thermal_displace_type
  _atom_site_B_iso_or_equiv
  _atom_site_type_symbol
  C1       1.0000 0.54510  0.58612  0.58052  Biso   1.000  C
  O1       1.0000 0.51922  0.55241  0.63833  Biso   1.000  O
  N1       1.0000 0.48587  0.63301  0.52862  Biso   1.000  N
  N2       1.0000 0.63831  0.58182  0.55648  Biso   1.000  N
  C2       1.0000 0.38142  0.64342  0.52768  Biso   1.000  C
  C3       1.0000 0.53480  0.65968  0.46147  Biso   1.000  C
  C4       1.0000 0.63911  0.62168  0.48021  Biso   1.000  C
  C5       1.0000 0.71082  0.52960  0.58972  Biso   1.000  C
  N3       1.0000 0.36346  0.70589  0.56669  Biso   1.000  N
  H1       1.0000 0.34049  0.64141  0.46490  Biso   1.000  H
  H2       1.0000 0.35951  0.60771  0.56138  Biso   1.000  H
  N4       1.0000 0.56476  0.72699  0.47658  Biso   1.000  N
  H3       1.0000 0.49369  0.65250  0.39883  Biso   1.000  H
  N5       1.0000 0.71428  0.67551  0.49847  Biso   1.000  N
  H4       1.0000 0.64411  0.59471  0.42743  Biso   1.000  H
  N6       1.0000 0.79839  0.55041  0.65840  Biso   1.000  N
  H5       1.0000 0.67743  0.49419  0.61463  Biso   1.000  H
  H6       1.0000 0.73271  0.51128  0.53842  Biso   1.000  H
  C6       1.0000 0.34508  0.76519  0.51418  Biso   1.000  C
  C7       1.0000 0.32510  0.70902  0.64141  Biso   1.000  C
  C8       1.0000 0.49547  0.78038  0.44529  Biso   1.000  C
  C9       1.0000 0.67254  0.73461  0.49511  Biso   1.000  C
  C10      1.0000 0.82544  0.66452  0.51673  Biso   1.000  C
  C11      1.0000 0.88564  0.58201  0.63873  Biso   1.000  C
  C12      1.0000 0.81169  0.53302  0.74508  Biso   1.000  C
  N7       1.0000 0.43798  0.79909  0.50861  Biso   1.000  N
  C13      1.0000 0.29392  0.81091  0.57139  Biso   1.000  C
  H7       1.0000 0.30038  0.75699  0.45308  Biso   1.000  H
  O2       1.0000 0.31912  0.66369  0.69150  Biso   1.000  O
  N8       1.0000 0.29392  0.77232  0.65048  Biso   1.000  N
  H8       1.0000 0.44879  0.76749  0.38788  Biso   1.000  H
  H9       1.0000 0.53319  0.81892  0.43341  Biso   1.000  H
  O3       1.0000 0.71623  0.78668  0.50203  Biso   1.000  O
  N9       1.0000 0.87149  0.64810  0.60650  Biso   1.000  N
  H10      1.0000 0.83756  0.62901  0.47718  Biso   1.000  H
  H11      1.0000 0.85671  0.70472  0.50089  Biso   1.000  H
  H12      1.0000 0.91419  0.55422  0.59797  Biso   1.000  H
  C14      1.0000 0.95991  0.58900  0.73259  Biso   1.000  C
  O4       1.0000 0.75629  0.49839  0.77738  Biso   1.000  O
  N10      1.0000 0.90571  0.55759  0.79282  Biso   1.000  N
  C15      1.0000 0.44372  0.85971  0.54520  Biso   1.000  C
  N11      1.0000 0.36657  0.86611  0.58911  Biso   1.000  N
  H13      1.0000 0.22563  0.82498  0.53781  Biso   1.000  H
  C16      1.0000 0.22280  0.78541  0.70480  Biso   1.000  C
  C17      1.0000 0.92599  0.69202  0.66740  Biso   1.000  C
  N12      1.0000 0.97261  0.65968  0.74367  Biso   1.000  N
  H14      1.0000 0.02436  0.56648  0.73508  Biso   1.000  H
  C18      1.0000 0.95410  0.53800  0.88273  Biso   1.000  C
  O5       1.0000 0.50830  0.90191  0.54379  Biso   1.000  O
  C19      1.0000 0.33403  0.92859  0.61933  Biso   1.000  C
  N13      1.0000 0.25240  0.83670  0.76771  Biso   1.000  N
  H15      1.0000 0.15739  0.79650  0.66411  Biso   1.000  H
  H16      1.0000 0.21421  0.74512  0.73750  Biso   1.000  H
  O6       1.0000 0.93368  0.75039  0.65390  Biso   1.000  O
  C20      1.0000 0.05521  0.68909  0.80800  Biso   1.000  C
  N14      1.0000 0.97298  0.59159  0.94792  Biso   1.000  N
  H17      1.0000 0.91240  0.50479  0.90240  Biso   1.000  H
  H18      1.0000 0.01832  0.51710  0.88259  Biso   1.000  H
  N15      1.0000 0.33612  0.92800  0.71520  Biso   1.000  N
  H19      1.0000 0.37792  0.96390  0.60811  Biso   1.000  H
  H20      1.0000 0.26552  0.93821  0.58367  Biso   1.000  H
  C21      1.0000 0.24482  0.90470  0.74193  Biso   1.000  C
  C22      1.0000 0.25377  0.82860  0.85748  Biso   1.000  C
  N16      1.0000 0.04067  0.69050  0.89750  Biso   1.000  N
  H21      1.0000 0.06438  0.73432  0.78879  Biso   1.000  H
  H22      1.0000 0.11652  0.66432  0.80880  Biso   1.000  H
  C23      1.0000 0.93630  0.58910  0.02326  Biso   1.000  C
  C24      1.0000 0.05834  0.63399  0.95511  Biso   1.000  C
  C25      1.0000 0.38798  0.97221  0.77261  Biso   1.000  C
  C26      1.0000 0.25003  0.94212  0.82901  Biso   1.000  C
  H23      1.0000 0.18219  0.91432  0.69479  Biso   1.000  H
  O7       1.0000 0.25087  0.77711  0.89427  Biso   1.000  O
  N17      1.0000 0.25328  0.89019  0.89441  Biso   1.000  N
  C27      1.0000 0.04189  0.74761  0.94403  Biso   1.000  C
  O8       1.0000 0.86996  0.55271  0.03621  Biso   1.000  O
  N18      1.0000 0.99056  0.63472  0.08254  Biso   1.000  N
  H24      1.0000 0.11902  0.60932  0.95088  Biso   1.000  H
  C28      1.0000 0.06966  0.66481  0.05031  Biso   1.000  C
  N19      1.0000 0.34329  0.97880  0.84251  Biso   1.000  N
  O9       1.0000 0.46722  0.00142  0.76711  Biso   1.000  O
  H25      1.0000 0.19142  0.97152  0.82377  Biso   1.000  H
  C29      1.0000 0.23512  0.89962  0.98002  Biso   1.000  C
  O10      1.0000 0.03130  0.80271  0.91220  Biso   1.000  O
  N20      1.0000 0.05843  0.73378  0.03299  Biso   1.000  N
  C30      1.0000 0.98382  0.63619  0.17621  Biso   1.000  C
  H26      1.0000 0.13629  0.65470  0.09100  Biso   1.000  H
  C31      1.0000 0.36623  0.03351  0.90401  Biso   1.000  C
  H27      1.0000 0.18003  0.93122  0.97451  Biso   1.000  H
  N21      1.0000 0.32501  0.92409  0.04823  Biso   1.000  N
  H28      1.0000 0.21372  0.85761  0.00103  Biso   1.000  H
  C32      1.0000 0.09684  0.78190  0.10034  Biso   1.000  C
  N22      1.0000 0.94745  0.69812  0.20253  Biso   1.000  N
  H29      1.0000 0.93881  0.60072  0.18520  Biso   1.000  H
  H30      1.0000 0.05053  0.62730  0.21616  Biso   1.000  H
  N23      1.0000 0.41250  0.01519  0.99660  Biso   1.000  N
  H31      1.0000 0.30403  0.05759  0.90213  Biso   1.000  H
  H32      1.0000 0.41141  0.06360  0.88313  Biso   1.000  H
  C33      1.0000 0.35115  0.99179  0.05669  Biso   1.000  C
  C34      1.0000 0.36870  0.88868  0.12384  Biso   1.000  C
  N24      1.0000 0.02553  0.79440  0.15781  Biso   1.000  N
  H33      1.0000 0.10865  0.82322  0.07113  Biso   1.000  H
  H34      1.0000 0.16133  0.76680  0.13881  Biso   1.000  H
  C35      1.0000 0.85999  0.70311  0.23012  Biso   1.000  C
  C36      1.0000 0.01627  0.75220  0.22985  Biso   1.000  C
  C37      1.0000 0.50835  0.03390  0.04011  Biso   1.000  C
  C38      1.0000 0.42993  0.99580  0.14975  Biso   1.000  C
  H35      1.0000 0.29221  0.02052  0.05414  Biso   1.000  H
  O11      1.0000 0.34517  0.83289  0.13753  Biso   1.000  O
  N25      1.0000 0.43554  0.92922  0.18050  Biso   1.000  N
  C39      1.0000 0.99299  0.85649  0.16741  Biso   1.000  C
  O12      1.0000 0.79164  0.66310  0.22301  Biso   1.000  O
  N26      1.0000 0.86142  0.76358  0.27202  Biso   1.000  N
  C40      1.0000 0.95934  0.79680  0.28370  Biso   1.000  C
  H36      1.0000 0.08233  0.73750  0.26752  Biso   1.000  H
  O13      1.0000 0.57054  0.06052  0.00613  Biso   1.000  O
  N27      1.0000 0.52154  0.02032  0.12921  Biso   1.000  N
  H37      1.0000 0.40736  0.02569  0.19205  Biso   1.000  H
  C41      1.0000 0.48032  0.90949  0.27242  Biso   1.000  C
  N28      1.0000 0.95292  0.85790  0.23966  Biso   1.000  N
  O14      1.0000 0.00175  0.90299  0.11799  Biso   1.000  O
  C42      1.0000 0.79131  0.77989  0.32761  Biso   1.000  C
  H38      1.0000 0.99602  0.80031  0.34850  Biso   1.000  H
  C43      1.0000 0.61226  0.03791  0.19883  Biso   1.000  C
  N29      1.0000 0.58811  0.89552  0.28820  Biso   1.000  N
  H39      1.0000 0.44605  0.87002  0.28632  Biso   1.000  H
  H40      1.0000 0.47094  0.94470  0.31351  Biso   1.000  H
  C44      1.0000 0.93510  0.91828  0.28041  Biso   1.000  C
  N30      1.0000 0.73093  0.83812  0.29935  Biso   1.000  N
  H41      1.0000 0.74633  0.74218  0.32634  Biso   1.000  H
  H42      1.0000 0.83026  0.78590  0.39053  Biso   1.000  H
  N31      1.0000 0.67820  0.98310  0.23073  Biso   1.000  N
  H43      1.0000 0.64911  0.07151  0.17419  Biso   1.000  H
  H44      1.0000 0.59245  0.05749  0.25040  Biso   1.000  H
  C45      1.0000 0.66926  0.94480  0.30875  Biso   1.000  C
  C46      1.0000 0.62711  0.83441  0.28364  Biso   1.000  C
  N32      1.0000 0.82742  0.93332  0.27215  Biso   1.000  N
  H45      1.0000 0.96432  0.95428  0.25275  Biso   1.000  H
  H46      1.0000 0.97040  0.91691  0.34494  Biso   1.000  H
  C47      1.0000 0.76826  0.90201  0.32755  Biso   1.000  C
  C48      1.0000 0.77452  0.97890  0.21643  Biso   1.000  C
  H47      1.0000 0.66645  0.97299  0.36112  Biso   1.000  H
  O15      1.0000 0.57562  0.78478  0.26819  Biso   1.000  O
  H48      1.0000 0.80430  0.90260  0.39261  Biso   1.000  H
  O16      1.0000 0.80802  0.01182  0.16291  Biso   1.000  O
  O17      1.0000 0.49171  0.40191  0.45617  Biso   1.000  O
  C49      1.0000 0.55630  0.35971  0.45483  Biso   1.000  C
  N33      1.0000 0.56198  0.29909  0.49142  Biso   1.000  N
  N34      1.0000 0.63339  0.36611  0.41091  Biso   1.000  N
  C50      1.0000 0.50447  0.28038  0.55467  Biso   1.000  C
  C51      1.0000 0.65486  0.26519  0.48578  Biso   1.000  C
  C52      1.0000 0.70609  0.31091  0.42857  Biso   1.000  C
  C53      1.0000 0.66600  0.42859  0.38070  Biso   1.000  C
  N35      1.0000 0.43518  0.22699  0.52338  Biso   1.000  N
  H49      1.0000 0.55122  0.26749  0.61207  Biso   1.000  H
  H50      1.0000 0.46684  0.31892  0.56662  Biso   1.000  H
  N36      1.0000 0.63648  0.20589  0.43327  Biso   1.000  N
  H51      1.0000 0.69956  0.25699  0.54688  Biso   1.000  H
  N37      1.0000 0.70609  0.27232  0.34948  Biso   1.000  N
  H52      1.0000 0.77440  0.32498  0.46221  Biso   1.000  H
  N38      1.0000 0.66391  0.42800  0.28482  Biso   1.000  N
  H53      1.0000 0.62211  0.46390  0.39191  Biso   1.000  H
  H54      1.0000 0.73449  0.43821  0.41629  Biso   1.000  H
  C54      1.0000 0.32749  0.23461  0.50491  Biso   1.000  C
  C55      1.0000 0.46521  0.15968  0.53849  Biso   1.000  C
  C56      1.0000 0.61859  0.14342  0.47228  Biso   1.000  C
  C57      1.0000 0.67493  0.20902  0.35861  Biso   1.000  C
  C58      1.0000 0.77723  0.28541  0.29523  Biso   1.000  C
  C59      1.0000 0.61198  0.47221  0.22741  Biso   1.000  C
  C60      1.0000 0.75521  0.40470  0.25810  Biso   1.000  C
  N39      1.0000 0.28572  0.17551  0.50149  Biso   1.000  N
  O18      1.0000 0.28380  0.28668  0.49800  Biso   1.000  O
  C61      1.0000 0.36092  0.12168  0.51982  Biso   1.000  C
  N40      1.0000 0.51408  0.13301  0.47141  Biso   1.000  N
  H55      1.0000 0.50627  0.15250  0.60120  Biso   1.000  H
  H56      1.0000 0.65954  0.14141  0.53513  Biso   1.000  H
  H57      1.0000 0.64050  0.10771  0.43858  Biso   1.000  H
  O19      1.0000 0.68090  0.16369  0.30852  Biso   1.000  O
  N41      1.0000 0.74763  0.33670  0.23231  Biso   1.000  N
  H58      1.0000 0.84263  0.29650  0.33592  Biso   1.000  H
  H59      1.0000 0.78582  0.24512  0.26253  Biso   1.000  H
  O20      1.0000 0.53280  0.50142  0.23292  Biso   1.000  O
  N42      1.0000 0.65667  0.47880  0.15752  Biso   1.000  N
  C62      1.0000 0.75000  0.44212  0.17101  Biso   1.000  C
  H60      1.0000 0.81783  0.41432  0.30523  Biso   1.000  H
  C63      1.0000 0.17459  0.16452  0.48329  Biso   1.000  C
  N43      1.0000 0.36170  0.08182  0.44348  Biso   1.000  N
  H61      1.0000 0.35592  0.09471  0.57259  Biso   1.000  H
  C64      1.0000 0.45493  0.08612  0.41951  Biso   1.000  C
  C65      1.0000 0.74617  0.32860  0.14248  Biso   1.000  C
  C66      1.0000 0.63380  0.53351  0.09601  Biso   1.000  C
  N44      1.0000 0.74668  0.39019  0.10562  Biso   1.000  N
  H62      1.0000 0.80859  0.47152  0.17618  Biso   1.000  H
  N45      1.0000 0.12854  0.14810  0.39352  Biso   1.000  N
  H63      1.0000 0.16238  0.12901  0.52277  Biso   1.000  H
  H64      1.0000 0.14329  0.20472  0.49907  Biso   1.000  H
  C67      1.0000 0.28921  0.02960  0.41031  Biso   1.000  C
  O21      1.0000 0.48081  0.05241  0.36170  Biso   1.000  O
  O22      1.0000 0.74907  0.27711  0.10568  Biso   1.000  O
  N46      1.0000 0.58753  0.51519  0.00342  Biso   1.000  N
  H65      1.0000 0.69600  0.55759  0.09789  Biso   1.000  H
  H66      1.0000 0.58862  0.56360  0.11690  Biso   1.000  H
  C68      1.0000 0.76491  0.39962  0.02001  Biso   1.000  C
  C69      1.0000 0.07404  0.19202  0.33263  Biso   1.000  C
  C70      1.0000 0.11438  0.08201  0.36130  Biso   1.000  C
  N47      1.0000 0.20164  0.05041  0.34162  Biso   1.000  N
  H67      1.0000 0.26732  0.01128  0.46161  Biso   1.000  H
  H68      1.0000 0.32260  0.99419  0.38540  Biso   1.000  H
  C71      1.0000 0.49166  0.53390  0.95985  Biso   1.000  C
  C72      1.0000 0.64886  0.49179  0.94326  Biso   1.000  C
  H69      1.0000 0.82000  0.43122  0.02551  Biso   1.000  H
  N48      1.0000 0.67495  0.42409  0.95179  Biso   1.000  N
  H70      1.0000 0.78630  0.35761  0.99899  Biso   1.000  H
  O23      1.0000 0.06627  0.25039  0.34612  Biso   1.000  O
  N49      1.0000 0.02740  0.15968  0.25628  Biso   1.000  N
  C73      1.0000 0.04012  0.08900  0.26743  Biso   1.000  C
  H71      1.0000 0.08582  0.05422  0.40198  Biso   1.000  H
  C74      1.0000 0.18832  0.03302  0.25487  Biso   1.000  C
  N50      1.0000 0.47847  0.52032  0.87075  Biso   1.000  N
  O24      1.0000 0.42948  0.56052  0.99389  Biso   1.000  O
  C75      1.0000 0.57010  0.49580  0.85027  Biso   1.000  C
  H72      1.0000 0.70774  0.52052  0.94588  Biso   1.000  H
  C76      1.0000 0.63125  0.38868  0.87619  Biso   1.000  C
  C77      1.0000 0.94482  0.18909  0.19203  Biso   1.000  C
  N51      1.0000 0.09431  0.05759  0.20720  Biso   1.000  N
  H73      1.0000 0.97558  0.06648  0.26488  Biso   1.000  H
  O25      1.0000 0.24372  0.99839  0.22258  Biso   1.000  O
  C78      1.0000 0.38777  0.53791  0.80119  Biso   1.000  C
  N52      1.0000 0.56447  0.42922  0.81945  Biso   1.000  N
  H74      1.0000 0.59267  0.52569  0.80797  Biso   1.000  H
  O26      1.0000 0.65486  0.33289  0.86249  Biso   1.000  O
  N53      1.0000 0.95929  0.19050  0.10253  Biso   1.000  N
  H75      1.0000 0.93558  0.23432  0.21123  Biso   1.000  H
  H76      1.0000 0.88350  0.16432  0.19122  Biso   1.000  H
  C79      1.0000 0.04592  0.03800  0.11730  Biso   1.000  C
  N54      1.0000 0.32176  0.48310  0.76930  Biso   1.000  N
  H77      1.0000 0.35090  0.57151  0.82576  Biso   1.000  H
  H78      1.0000 0.40755  0.55749  0.74956  Biso   1.000  H
  C80      1.0000 0.51970  0.40949  0.72760  Biso   1.000  C
  C81      1.0000 0.95807  0.24761  0.05600  Biso   1.000  C
  C82      1.0000 0.94169  0.13399  0.04492  Biso   1.000  C
  N55      1.0000 0.02697  0.09159  0.05210  Biso   1.000  N
  H79      1.0000 0.08763  0.00479  0.09763  Biso   1.000  H
  H80      1.0000 0.98171  0.01710  0.11743  Biso   1.000  H
  C83      1.0000 0.22550  0.47890  0.78360  Biso   1.000  C
  C84      1.0000 0.33077  0.44480  0.69128  Biso   1.000  C
  N56      1.0000 0.41190  0.39552  0.71176  Biso   1.000  N
  H81      1.0000 0.55398  0.37002  0.71370  Biso   1.000  H
  H82      1.0000 0.52907  0.44470  0.68644  Biso   1.000  H
  N57      1.0000 0.94158  0.23378  0.96697  Biso   1.000  N
  O27      1.0000 0.96873  0.30271  0.08782  Biso   1.000  O
  C85      1.0000 0.93035  0.16481  0.94964  Biso   1.000  C
  H83      1.0000 0.88099  0.10932  0.04908  Biso   1.000  H
  C86      1.0000 0.06365  0.08910  0.97677  Biso   1.000  C
  N58      1.0000 0.17254  0.43332  0.72787  Biso   1.000  N
  O28      1.0000 0.19199  0.51182  0.83704  Biso   1.000  O
  C87      1.0000 0.23177  0.40201  0.67248  Biso   1.000  C
  H84      1.0000 0.33358  0.47299  0.63891  Biso   1.000  H
  C88      1.0000 0.37284  0.33441  0.71639  Biso   1.000  C
  C89      1.0000 0.90319  0.28190  0.89969  Biso   1.000  C
  H85      1.0000 0.86365  0.15470  0.90895  Biso   1.000  H
  N59      1.0000 0.00946  0.13472  0.91748  Biso   1.000  N
  O29      1.0000 0.13005  0.05271  0.96374  Biso   1.000  O
  C90      1.0000 0.06484  0.41828  0.71954  Biso   1.000  C
  N60      1.0000 0.26910  0.33812  0.70068  Biso   1.000  N
  H86      1.0000 0.19564  0.40260  0.60735  Biso   1.000  H
  O30      1.0000 0.42439  0.28478  0.73176  Biso   1.000  O
  N61      1.0000 0.97448  0.29440  0.84215  Biso   1.000  N
  H87      1.0000 0.89138  0.32322  0.92890  Biso   1.000  H
  H88      1.0000 0.83868  0.26680  0.86115  Biso   1.000  H
  C91      1.0000 0.01618  0.13619  0.82375  Biso   1.000  C
  N62      1.0000 0.04704  0.35790  0.76037  Biso   1.000  N
  H89      1.0000 0.03570  0.45428  0.74727  Biso   1.000  H
  H90      1.0000 0.02955  0.41691  0.65509  Biso   1.000  H
  C92      1.0000 0.20863  0.27989  0.67234  Biso   1.000  C
  C93      1.0000 0.98376  0.25220  0.77017  Biso   1.000  C
  C94      1.0000 0.00695  0.35649  0.83255  Biso   1.000  C
  H91      1.0000 0.94950  0.12730  0.78387  Biso   1.000  H
  N63      1.0000 0.05258  0.19812  0.79750  Biso   1.000  N
  H92      1.0000 0.06120  0.10072  0.81475  Biso   1.000  H
  C95      1.0000 0.04067  0.29680  0.71625  Biso   1.000  C
  N64      1.0000 0.13861  0.26358  0.72800  Biso   1.000  N
  H93      1.0000 0.25369  0.24218  0.67369  Biso   1.000  H
  H94      1.0000 0.16977  0.28590  0.60950  Biso   1.000  H
  H95      1.0000 0.91770  0.23750  0.73250  Biso   1.000  H
  O31      1.0000 0.99826  0.40299  0.88196  Biso   1.000  O
  C96      1.0000 0.13996  0.20311  0.76990  Biso   1.000  C
  H96      1.0000 0.00399  0.30031  0.65146  Biso   1.000  H
  O32      1.0000 0.20837  0.16310  0.77695  Biso   1.000  O
  Ne1      1.0000 0.34519  0.28455  0.10411  Biso   1.000  Ne
  He1      1.0000 0.26235  0.38613  0.20391  Biso   1.000  He
  He2      1.0000 0.45715  0.16417  0.03497  Biso   1.000  He
  Ar1      1.0000 0.35229  0.27861  0.09848  Biso   1.000  Ar
  Ne2      1.0000 0.65482  0.78455  0.89589  Biso   1.000  Ne
  He3      1.0000 0.54456  0.66630  0.96397  Biso   1.000  He
  He4      1.0000 0.73844  0.88703  0.79564  Biso   1.000  He
  Ar2      1.0000 0.64758  0.77854  0.90195  Biso   1.000  Ar
