data_image0
_cell_length_a       21.746
_cell_length_b       21.746
_cell_length_c       21.954
_cell_angle_alpha    90
_cell_angle_beta     90
_cell_angle_gamma    90

_symmetry_space_group_name_H-M    "P 1"
_symmetry_int_tables_number       1

loop_
  _symmetry_equiv_pos_as_xyz
  'x, y, z'

loop_
  _atom_site_label
  _atom_site_occupancy
  _atom_site_fract_x
  _atom_site_fract_y
  _atom_site_fract_z
  _atom_site_thermal_displace_type
  _atom_site_B_iso_or_equiv
  _atom_site_type_symbol
  N1       1.0000 0.52897  0.73361  0.45331  Biso   1.000  N
  N2       1.0000 0.48271  0.72993  0.42890  Biso   1.000  N
  N3       1.0000 0.43700  0.71907  0.39779  Biso   1.000  N
  C1       1.0000 0.38117  0.75048  0.41669  Biso   1.000  C
  C2       1.0000 0.37262  0.81229  0.38631  Biso   1.000  C
  H1       1.0000 0.38242  0.75637  0.46142  Biso   1.000  H
  H2       1.0000 0.34540  0.72409  0.40722  Biso   1.000  H
  C3       1.0000 0.37570  0.80884  0.31712  Biso   1.000  C
  H3       1.0000 0.33169  0.82930  0.39842  Biso   1.000  H
  O1       1.0000 0.41999  0.85193  0.40977  Biso   1.000  O
  O2       1.0000 0.31992  0.78290  0.29448  Biso   1.000  O
  C4       1.0000 0.38048  0.87198  0.28692  Biso   1.000  C
  H4       1.0000 0.41139  0.78267  0.30450  Biso   1.000  H
  C5       1.0000 0.41658  0.91198  0.38562  Biso   1.000  C
  C6       1.0000 0.32093  0.72202  0.27120  Biso   1.000  C
  C7       1.0000 0.42983  0.91070  0.31753  Biso   1.000  C
  H5       1.0000 0.34002  0.89359  0.29029  Biso   1.000  H
  O3       1.0000 0.39391  0.86103  0.22438  Biso   1.000  O
  H6       1.0000 0.44739  0.93889  0.40649  Biso   1.000  H
  O4       1.0000 0.35745  0.93645  0.39323  Biso   1.000  O
  O5       1.0000 0.28998  0.68146  0.31051  Biso   1.000  O
  C8       1.0000 0.29008  0.72565  0.20880  Biso   1.000  C
  H7       1.0000 0.36448  0.70818  0.26619  Biso   1.000  H
  H8       1.0000 0.47131  0.89230  0.30978  Biso   1.000  H
  O6       1.0000 0.42822  0.97250  0.29548  Biso   1.000  O
  H9       1.0000 0.39649  0.88711  0.19882  Biso   1.000  H
  C9       1.0000 0.34590  0.98528  0.43432  Biso   1.000  C
  C10      1.0000 0.22735  0.69907  0.32195  Biso   1.000  C
  C11      1.0000 0.22298  0.74386  0.21627  Biso   1.000  C
  H10      1.0000 0.29159  0.68390  0.18971  Biso   1.000  H
  O7       1.0000 0.32300  0.76690  0.17118  Biso   1.000  O
  C12      1.0000 0.31587  0.95898  0.49112  Biso   1.000  C
  C13      1.0000 0.30258  0.02759  0.40011  Biso   1.000  C
  H11      1.0000 0.38499  0.00708  0.44479  Biso   1.000  H
  C14      1.0000 0.20280  0.65419  0.36882  Biso   1.000  C
  C15      1.0000 0.19204  0.70040  0.26187  Biso   1.000  C
  H12      1.0000 0.22698  0.74129  0.33989  Biso   1.000  H
  H13      1.0000 0.22091  0.78681  0.23240  Biso   1.000  H
  O8       1.0000 0.19282  0.74165  0.15906  Biso   1.000  O
  H14      1.0000 0.33110  0.80029  0.19140  Biso   1.000  H
  H15      1.0000 0.27959  0.93419  0.47773  Biso   1.000  H
  C16      1.0000 0.35561  0.91810  0.52929  Biso   1.000  C
  O9       1.0000 0.29293  0.00888  0.52961  Biso   1.000  O
  C17      1.0000 0.27890  0.07707  0.44202  Biso   1.000  C
  H16      1.0000 0.26658  0.00258  0.38640  Biso   1.000  H
  O10      1.0000 0.33188  0.05160  0.34732  Biso   1.000  O
  O11      1.0000 0.20358  0.59248  0.34978  Biso   1.000  O
  H17      1.0000 0.22758  0.65801  0.40640  Biso   1.000  H
  H18      1.0000 0.15998  0.66578  0.37902  Biso   1.000  H
  O12      1.0000 0.13212  0.72487  0.27293  Biso   1.000  O
  H19      1.0000 0.18891  0.65801  0.24442  Biso   1.000  H
  H20      1.0000 0.15741  0.74510  0.16352  Biso   1.000  H
  H21      1.0000 0.33169  0.90279  0.56450  Biso   1.000  H
  H22      1.0000 0.36890  0.88219  0.50492  Biso   1.000  H
  O13      1.0000 0.40660  0.94937  0.55001  Biso   1.000  O
  H23      1.0000 0.34788  0.87428  0.52000  Biso   1.000  H
  H24      1.0000 0.39971  0.92707  0.52241  Biso   1.000  H
  O14      1.0000 0.33841  0.93217  0.59042  Biso   1.000  O
  C18      1.0000 0.25108  0.04787  0.49790  Biso   1.000  C
  H25      1.0000 0.31431  0.10338  0.45491  Biso   1.000  H
  O15      1.0000 0.23531  0.11487  0.41122  Biso   1.000  O
  H26      1.0000 0.24280  0.57808  0.35269  Biso   1.000  H
  C19      1.0000 0.08047  0.68780  0.25954  Biso   1.000  C
  H27      1.0000 0.23738  0.08116  0.52610  Biso   1.000  H
  O16      1.0000 0.19916  0.01380  0.47950  Biso   1.000  O
  H28      1.0000 0.09349  0.65249  0.23340  Biso   1.000  H
  C20      1.0000 0.03527  0.72767  0.22456  Biso   1.000  C
  O17      1.0000 0.05385  0.66495  0.31388  Biso   1.000  O
  C21      1.0000 0.14398  0.01816  0.51521  Biso   1.000  C
  C22      1.0000 0.01274  0.77950  0.26419  Biso   1.000  C
  O18      1.0000 0.06470  0.74956  0.17177  Biso   1.000  O
  H29      1.0000 0.99931  0.70188  0.21222  Biso   1.000  H
  C23      1.0000 0.03201  0.71121  0.35538  Biso   1.000  C
  C24      1.0000 0.12430  0.95438  0.53311  Biso   1.000  C
  C25      1.0000 0.09680  0.04989  0.47650  Biso   1.000  C
  H30      1.0000 0.15221  0.04309  0.55261  Biso   1.000  H
  H31      1.0000 0.04828  0.80691  0.27412  Biso   1.000  H
  C26      1.0000 0.98597  0.75425  0.32368  Biso   1.000  C
  O19      1.0000 0.96689  0.81482  0.23385  Biso   1.000  O
  H32      1.0000 0.04870  0.76920  0.14348  Biso   1.000  H
  H33      1.0000 0.06778  0.73600  0.37000  Biso   1.000  H
  C27      1.0000 0.00391  0.67769  0.40890  Biso   1.000  C
  O20      1.0000 0.06452  0.95981  0.56341  Biso   1.000  O
  H34      1.0000 0.11910  0.92927  0.49522  Biso   1.000  H
  C28      1.0000 0.16821  0.92100  0.57543  Biso   1.000  C
  C29      1.0000 0.03389  0.05031  0.50633  Biso   1.000  C
  H35      1.0000 0.09358  0.02727  0.43691  Biso   1.000  H
  O21      1.0000 0.11460  0.11225  0.46379  Biso   1.000  O
  O22      1.0000 0.97434  0.80599  0.36139  Biso   1.000  O
  H36      1.0000 0.94670  0.73181  0.31520  Biso   1.000  H
  H37      1.0000 0.97761  0.83698  0.20579  Biso   1.000  H
  H38      1.0000 0.03591  0.65148  0.42780  Biso   1.000  H
  H39      1.0000 0.99089  0.70841  0.43960  Biso   1.000  H
  O23      1.0000 0.95328  0.64085  0.39405  Biso   1.000  O
  C30      1.0000 0.01798  0.98519  0.52701  Biso   1.000  C
  H40      1.0000 0.15028  0.88039  0.58591  Biso   1.000  H
  H41      1.0000 0.20730  0.91350  0.55361  Biso   1.000  H
  O24      1.0000 0.18068  0.95227  0.62850  Biso   1.000  O
  H42      1.0000 0.17520  0.94307  0.61419  Biso   1.000  H
  H43      1.0000 0.20781  0.91047  0.55589  Biso   1.000  H
  O25      1.0000 0.12301  0.86200  0.58299  Biso   1.000  O
  O26      1.0000 0.98662  0.07169  0.46461  Biso   1.000  O
  H44      1.0000 0.03499  0.07799  0.54259  Biso   1.000  H
  C31      1.0000 0.91787  0.81128  0.39282  Biso   1.000  C
  O27      1.0000 0.01039  0.95020  0.47358  Biso   1.000  O
  H45      1.0000 0.97848  0.98588  0.55033  Biso   1.000  H
  H46      1.0000 0.88881  0.77867  0.37852  Biso   1.000  H
  C32      1.0000 0.89170  0.87359  0.37920  Biso   1.000  C
  O28      1.0000 0.92785  0.80516  0.45700  Biso   1.000  O
  C33      1.0000 0.95728  0.91258  0.46629  Biso   1.000  C
  H47      1.0000 0.85128  0.87818  0.40052  Biso   1.000  H
  C34      1.0000 0.93539  0.92279  0.40120  Biso   1.000  C
  O29      1.0000 0.88246  0.87809  0.31530  Biso   1.000  O
  C35      1.0000 0.97411  0.84581  0.47941  Biso   1.000  C
  H48      1.0000 0.92458  0.92629  0.49531  Biso   1.000  H
  H49      1.0000 0.97241  0.92178  0.37419  Biso   1.000  H
  O30      1.0000 0.90890  0.98262  0.39651  Biso   1.000  O
  H50      1.0000 0.89879  0.85170  0.28669  Biso   1.000  H
  H51      1.0000 0.01352  0.83629  0.45791  Biso   1.000  H
  C36      1.0000 0.98280  0.83289  0.54692  Biso   1.000  C
  H52      1.0000 0.02152  0.85220  0.56099  Biso   1.000  H
  N4       1.0000 0.92992  0.85758  0.58313  Biso   1.000  N
  H53      1.0000 0.98620  0.78787  0.55343  Biso   1.000  H
  N5       1.0000 0.89639  0.82167  0.60741  Biso   1.000  N
  N6       1.0000 0.86292  0.79339  0.63182  Biso   1.000  N
  N7       1.0000 0.71907  0.56300  0.64781  Biso   1.000  N
  C37      1.0000 0.75048  0.61878  0.66671  Biso   1.000  C
  N8       1.0000 0.72993  0.51729  0.67892  Biso   1.000  N
  C38      1.0000 0.81229  0.62733  0.63633  Biso   1.000  C
  H54      1.0000 0.75637  0.61758  0.71140  Biso   1.000  H
  H55      1.0000 0.72409  0.65460  0.65719  Biso   1.000  H
  N9       1.0000 0.73361  0.47098  0.70333  Biso   1.000  N
  C39      1.0000 0.80884  0.62430  0.56714  Biso   1.000  C
  H56      1.0000 0.82930  0.66831  0.64840  Biso   1.000  H
  O31      1.0000 0.85193  0.57997  0.65979  Biso   1.000  O
  O32      1.0000 0.78290  0.68003  0.54446  Biso   1.000  O
  C40      1.0000 0.87198  0.61947  0.53694  Biso   1.000  C
  H57      1.0000 0.78267  0.58861  0.55452  Biso   1.000  H
  C41      1.0000 0.91198  0.58337  0.63560  Biso   1.000  C
  C42      1.0000 0.72202  0.67907  0.52123  Biso   1.000  C
  C43      1.0000 0.91070  0.57017  0.56750  Biso   1.000  C
  H58      1.0000 0.89359  0.65998  0.54031  Biso   1.000  H
  O33      1.0000 0.86103  0.60609  0.47440  Biso   1.000  O
  H59      1.0000 0.93889  0.55261  0.65651  Biso   1.000  H
  O34      1.0000 0.93645  0.64255  0.64325  Biso   1.000  O
  C44      1.0000 0.72565  0.70988  0.45882  Biso   1.000  C
  H60      1.0000 0.70818  0.63547  0.51622  Biso   1.000  H
  O35      1.0000 0.68146  0.71002  0.56049  Biso   1.000  O
  H61      1.0000 0.89230  0.52869  0.55981  Biso   1.000  H
  O36      1.0000 0.97250  0.57178  0.54550  Biso   1.000  O
  H62      1.0000 0.88711  0.60351  0.44880  Biso   1.000  H
  C45      1.0000 0.98528  0.65410  0.68429  Biso   1.000  C
  O37      1.0000 0.76690  0.67695  0.42120  Biso   1.000  O
  H63      1.0000 0.68390  0.70841  0.43969  Biso   1.000  H
  C46      1.0000 0.74386  0.77702  0.46629  Biso   1.000  C
  C47      1.0000 0.69907  0.77265  0.57197  Biso   1.000  C
  C48      1.0000 0.95898  0.68408  0.74110  Biso   1.000  C
  C49      1.0000 0.02759  0.69737  0.65013  Biso   1.000  C
  H64      1.0000 0.00708  0.61501  0.69482  Biso   1.000  H
  H65      1.0000 0.80029  0.66890  0.44142  Biso   1.000  H
  H66      1.0000 0.78681  0.77909  0.48242  Biso   1.000  H
  C50      1.0000 0.70040  0.80796  0.51189  Biso   1.000  C
  O38      1.0000 0.74165  0.80714  0.40904  Biso   1.000  O
  H67      1.0000 0.74129  0.77297  0.58992  Biso   1.000  H
  C51      1.0000 0.65419  0.79720  0.61884  Biso   1.000  C
  H68      1.0000 0.93419  0.72041  0.72770  Biso   1.000  H
  C52      1.0000 0.91810  0.64439  0.77931  Biso   1.000  C
  O39      1.0000 0.00888  0.70707  0.77963  Biso   1.000  O
  C53      1.0000 0.07707  0.72110  0.69199  Biso   1.000  C
  H69      1.0000 0.00258  0.73338  0.63642  Biso   1.000  H
  O40      1.0000 0.05160  0.66812  0.59729  Biso   1.000  O
  O41      1.0000 0.72487  0.86788  0.52296  Biso   1.000  O
  H70      1.0000 0.65801  0.81109  0.49440  Biso   1.000  H
  H71      1.0000 0.74510  0.84259  0.41350  Biso   1.000  H
  H72      1.0000 0.65801  0.77237  0.65642  Biso   1.000  H
  H73      1.0000 0.66578  0.83997  0.62900  Biso   1.000  H
  O42      1.0000 0.59248  0.79638  0.59980  Biso   1.000  O
  H74      1.0000 0.90279  0.66831  0.81452  Biso   1.000  H
  H75      1.0000 0.88219  0.63110  0.75490  Biso   1.000  H
  O43      1.0000 0.94937  0.59340  0.80004  Biso   1.000  O
  H76      1.0000 0.87428  0.65207  0.77002  Biso   1.000  H
  H77      1.0000 0.92707  0.60029  0.77243  Biso   1.000  H
  O44      1.0000 0.93217  0.66159  0.84039  Biso   1.000  O
  C54      1.0000 0.04787  0.74887  0.74793  Biso   1.000  C
  H78      1.0000 0.10338  0.68569  0.70493  Biso   1.000  H
  O45      1.0000 0.11487  0.76469  0.66120  Biso   1.000  O
  C55      1.0000 0.68780  0.91953  0.50957  Biso   1.000  C
  H79      1.0000 0.57808  0.75720  0.60271  Biso   1.000  H
  H80      1.0000 0.08116  0.76258  0.77612  Biso   1.000  H
  O46      1.0000 0.01380  0.80084  0.72953  Biso   1.000  O
  H81      1.0000 0.65249  0.90647  0.48342  Biso   1.000  H
  C56      1.0000 0.72767  0.96473  0.47454  Biso   1.000  C
  O47      1.0000 0.66495  0.94611  0.56386  Biso   1.000  O
  C57      1.0000 0.01816  0.85597  0.76524  Biso   1.000  C
  C58      1.0000 0.77950  0.98722  0.51421  Biso   1.000  C
  O48      1.0000 0.74956  0.93530  0.42175  Biso   1.000  O
  H82      1.0000 0.70188  0.00069  0.46219  Biso   1.000  H
  C59      1.0000 0.71121  0.96799  0.60536  Biso   1.000  C
  C60      1.0000 0.95438  0.87570  0.78309  Biso   1.000  C
  C61      1.0000 0.04989  0.90320  0.72652  Biso   1.000  C
  H83      1.0000 0.04309  0.84779  0.80263  Biso   1.000  H
  H84      1.0000 0.80691  0.95167  0.52410  Biso   1.000  H
  C62      1.0000 0.75425  0.01403  0.57365  Biso   1.000  C
  O49      1.0000 0.81482  0.03311  0.48383  Biso   1.000  O
  H85      1.0000 0.76920  0.95130  0.39350  Biso   1.000  H
  H86      1.0000 0.73600  0.93217  0.62002  Biso   1.000  H
  C63      1.0000 0.67769  0.99609  0.65892  Biso   1.000  C
  H87      1.0000 0.92927  0.88090  0.74519  Biso   1.000  H
  C64      1.0000 0.92100  0.83179  0.82541  Biso   1.000  C
  O50      1.0000 0.95981  0.93548  0.81343  Biso   1.000  O
  C65      1.0000 0.05031  0.96611  0.75631  Biso   1.000  C
  H88      1.0000 0.02727  0.90637  0.68689  Biso   1.000  H
  O51      1.0000 0.11225  0.88540  0.71381  Biso   1.000  O
  O52      1.0000 0.80599  0.02561  0.61141  Biso   1.000  O
  H89      1.0000 0.73181  0.05330  0.56523  Biso   1.000  H
  H90      1.0000 0.83698  0.02239  0.45582  Biso   1.000  H
  H91      1.0000 0.65148  0.96409  0.67783  Biso   1.000  H
  H92      1.0000 0.70841  0.00911  0.68962  Biso   1.000  H
  O53      1.0000 0.64085  0.04668  0.64407  Biso   1.000  O
  H93      1.0000 0.88039  0.84967  0.83593  Biso   1.000  H
  H94      1.0000 0.91350  0.79270  0.80363  Biso   1.000  H
  O54      1.0000 0.95227  0.81928  0.87852  Biso   1.000  O
  H95      1.0000 0.94307  0.82480  0.86422  Biso   1.000  H
  H96      1.0000 0.91047  0.79219  0.80591  Biso   1.000  H
  O55      1.0000 0.86200  0.87699  0.83301  Biso   1.000  O
  C66      1.0000 0.98519  0.98197  0.77703  Biso   1.000  C
  H97      1.0000 0.07799  0.96501  0.79261  Biso   1.000  H
  O56      1.0000 0.07169  0.01338  0.71463  Biso   1.000  O
  C67      1.0000 0.81128  0.08213  0.64280  Biso   1.000  C
  O57      1.0000 0.95020  0.98956  0.72360  Biso   1.000  O
  H98      1.0000 0.98588  0.02148  0.80031  Biso   1.000  H
  H99      1.0000 0.77867  0.11119  0.62850  Biso   1.000  H
  C68      1.0000 0.87359  0.10830  0.62922  Biso   1.000  C
  O58      1.0000 0.80516  0.07215  0.70702  Biso   1.000  O
  C69      1.0000 0.91258  0.04267  0.71632  Biso   1.000  C
  H100     1.0000 0.87818  0.14867  0.65050  Biso   1.000  H
  C70      1.0000 0.92279  0.06456  0.65123  Biso   1.000  C
  O59      1.0000 0.87809  0.11754  0.56532  Biso   1.000  O
  C71      1.0000 0.84581  0.02589  0.72943  Biso   1.000  C
  H101     1.0000 0.92629  0.07537  0.74533  Biso   1.000  H
  H102     1.0000 0.92178  0.02759  0.62421  Biso   1.000  H
  O60      1.0000 0.98262  0.09110  0.64653  Biso   1.000  O
  H103     1.0000 0.85170  0.10117  0.53671  Biso   1.000  H
  H104     1.0000 0.83629  0.98648  0.70793  Biso   1.000  H
  C72      1.0000 0.83289  0.01720  0.79689  Biso   1.000  C
  H105     1.0000 0.85220  0.97848  0.81101  Biso   1.000  H
  N10      1.0000 0.85758  0.07008  0.83311  Biso   1.000  N
  H106     1.0000 0.78787  0.01380  0.80341  Biso   1.000  H
  N11      1.0000 0.82167  0.10361  0.85743  Biso   1.000  N
  N12      1.0000 0.79339  0.13708  0.88180  Biso   1.000  N
  O61      1.0000 0.47085  0.68385  0.25194  Biso   1.000  O
  C73      1.0000 0.51931  0.71567  0.22069  Biso   1.000  C
  H107     1.0000 0.48657  0.67047  0.28519  Biso   1.000  H
  C74      1.0000 0.49338  0.73568  0.15906  Biso   1.000  C
  C75      1.0000 0.54107  0.77182  0.25567  Biso   1.000  C
  H108     1.0000 0.55468  0.68707  0.21408  Biso   1.000  H
  O62      1.0000 0.48455  0.67971  0.12581  Biso   1.000  O
  H109     1.0000 0.45309  0.75710  0.16480  Biso   1.000  H
  C76      1.0000 0.53817  0.77734  0.12453  Biso   1.000  C
  C77      1.0000 0.58857  0.80557  0.21704  Biso   1.000  C
  H110     1.0000 0.50510  0.79978  0.26191  Biso   1.000  H
  O63      1.0000 0.56461  0.75536  0.31379  Biso   1.000  O
  C78      1.0000 0.43116  0.67166  0.08964  Biso   1.000  C
  H111     1.0000 0.57358  0.75218  0.10959  Biso   1.000  H
  C79      1.0000 0.50773  0.80921  0.07069  Biso   1.000  C
  O64      1.0000 0.56084  0.82595  0.16266  Biso   1.000  O
  H112     1.0000 0.60517  0.84149  0.24009  Biso   1.000  H
  O65      1.0000 0.63616  0.76405  0.20438  Biso   1.000  O
  H113     1.0000 0.60627  0.75517  0.31220  Biso   1.000  H
  C80      1.0000 0.40178  0.61128  0.10873  Biso   1.000  C
  H114     1.0000 0.40178  0.70620  0.09752  Biso   1.000  H
  O66      1.0000 0.44684  0.67065  0.02701  Biso   1.000  O
  H115     1.0000 0.48758  0.77821  0.04441  Biso   1.000  H
  H116     1.0000 0.47567  0.83790  0.08568  Biso   1.000  H
  O67      1.0000 0.55201  0.84227  0.03626  Biso   1.000  O
  C81      1.0000 0.69880  0.78047  0.21745  Biso   1.000  C
  C82      1.0000 0.44335  0.55794  0.09146  Biso   1.000  C
  H117     1.0000 0.36158  0.60659  0.08709  Biso   1.000  H
  O68      1.0000 0.39074  0.61179  0.17318  Biso   1.000  O
  C83      1.0000 0.49338  0.62540  0.01330  Biso   1.000  C
  H118     1.0000 0.56847  0.86747  0.06559  Biso   1.000  H
  C84      1.0000 0.72275  0.73443  0.26291  Biso   1.000  C
  H119     1.0000 0.70068  0.82300  0.23490  Biso   1.000  H
  C85      1.0000 0.73508  0.77729  0.15769  Biso   1.000  C
  O69      1.0000 0.40899  0.50253  0.09884  Biso   1.000  O
  H120     1.0000 0.47880  0.55698  0.12052  Biso   1.000  H
  C86      1.0000 0.46878  0.56144  0.02701  Biso   1.000  C
  H121     1.0000 0.42040  0.63331  0.19140  Biso   1.000  H
  H122     1.0000 0.52998  0.63317  0.03972  Biso   1.000  H
  C87      1.0000 0.51200  0.63409  0.94689  Biso   1.000  C
  C88      1.0000 0.79159  0.74299  0.27211  Biso   1.000  C
  H123     1.0000 0.71609  0.69240  0.24560  Biso   1.000  H
  O70      1.0000 0.68955  0.73816  0.31917  Biso   1.000  O
  H124     1.0000 0.72731  0.73669  0.13792  Biso   1.000  H
  C89      1.0000 0.71921  0.82778  0.11369  Biso   1.000  C
  O71      1.0000 0.80010  0.78304  0.17058  Biso   1.000  O
  H125     1.0000 0.43309  0.47420  0.09301  Biso   1.000  H
  O72      1.0000 0.51789  0.51752  0.02605  Biso   1.000  O
  H126     1.0000 0.43640  0.54989  0.99681  Biso   1.000  H
  N13      1.0000 0.46271  0.61418  0.90403  Biso   1.000  N
  H127     1.0000 0.52148  0.67801  0.93969  Biso   1.000  H
  H128     1.0000 0.54980  0.61000  0.93869  Biso   1.000  H
  C90      1.0000 0.82337  0.73784  0.21017  Biso   1.000  C
  H129     1.0000 0.79927  0.78488  0.28942  Biso   1.000  H
  O73      1.0000 0.81781  0.69893  0.31056  Biso   1.000  O
  H130     1.0000 0.70799  0.76570  0.33998  Biso   1.000  H
  H131     1.0000 0.74588  0.82461  0.07730  Biso   1.000  H
  H132     1.0000 0.67599  0.82291  0.10030  Biso   1.000  H
  O74      1.0000 0.72708  0.88830  0.14171  Biso   1.000  O
  H133     1.0000 0.73742  0.86747  0.12608  Biso   1.000  H
  H134     1.0000 0.67410  0.83247  0.10932  Biso   1.000  H
  O75      1.0000 0.74892  0.80309  0.05430  Biso   1.000  O
  C91      1.0000 0.52396  0.47903  0.97463  Biso   1.000  C
  N14      1.0000 0.42228  0.64918  0.89619  Biso   1.000  N
  H135     1.0000 0.86857  0.74418  0.21550  Biso   1.000  H
  O76      1.0000 0.81289  0.67870  0.18675  Biso   1.000  O
  H136     1.0000 0.79950  0.69861  0.34759  Biso   1.000  H
  H137     1.0000 0.48648  0.48368  0.94871  Biso   1.000  H
  C92      1.0000 0.52736  0.41290  0.99708  Biso   1.000  C
  O77      1.0000 0.57542  0.49384  0.93987  Biso   1.000  O
  N15      1.0000 0.37910  0.67718  0.88681  Biso   1.000  N
  C93      1.0000 0.86365  0.64485  0.16334  Biso   1.000  C
  C94      1.0000 0.58402  0.40568  0.03653  Biso   1.000  C
  O78      1.0000 0.47351  0.39741  0.03070  Biso   1.000  O
  H138     1.0000 0.53081  0.38481  0.96119  Biso   1.000  H
  C95      1.0000 0.63267  0.48933  0.97249  Biso   1.000  C
  C96      1.0000 0.88090  0.59565  0.20980  Biso   1.000  C
  H139     1.0000 0.89929  0.67268  0.15519  Biso   1.000  H
  C97      1.0000 0.84241  0.61358  0.10445  Biso   1.000  C
  H140     1.0000 0.58001  0.43217  0.07352  Biso   1.000  H
  C98      1.0000 0.63970  0.42573  0.00023  Biso   1.000  C
  O79      1.0000 0.59018  0.34291  0.05471  Biso   1.000  O
  H141     1.0000 0.63290  0.52060  0.00592  Biso   1.000  H
  C99      1.0000 0.68357  0.50469  0.92762  Biso   1.000  C
  C100     1.0000 0.92656  0.55045  0.18411  Biso   1.000  C
  H142     1.0000 0.84278  0.57279  0.22160  Biso   1.000  H
  O80      1.0000 0.90679  0.62223  0.26287  Biso   1.000  O
  O81      1.0000 0.88954  0.57238  0.08322  Biso   1.000  O
  H143     1.0000 0.80447  0.58907  0.11328  Biso   1.000  H
  C101     1.0000 0.82847  0.65810  0.05402  Biso   1.000  C
  O82      1.0000 0.69190  0.42656  0.03995  Biso   1.000  O
  H144     1.0000 0.64720  0.39529  0.96689  Biso   1.000  H
  H145     1.0000 0.61708  0.34149  0.07898  Biso   1.000  H
  H146     1.0000 0.67631  0.54631  0.91090  Biso   1.000  H
  H147     1.0000 0.72340  0.50538  0.94949  Biso   1.000  H
  O83      1.0000 0.68739  0.46215  0.87884  Biso   1.000  O
  C102     1.0000 0.90256  0.52368  0.12444  Biso   1.000  C
  H148     1.0000 0.96546  0.57307  0.17518  Biso   1.000  H
  O84      1.0000 0.94049  0.50189  0.22438  Biso   1.000  O
  H149     1.0000 0.88177  0.63980  0.28469  Biso   1.000  H
  N16      1.0000 0.79109  0.62917  0.00342  Biso   1.000  N
  H150     1.0000 0.86761  0.67369  0.03690  Biso   1.000  H
  H151     1.0000 0.80548  0.69351  0.07078  Biso   1.000  H
  C103     1.0000 0.73646  0.38021  0.03248  Biso   1.000  C
  H152     1.0000 0.65548  0.46832  0.85160  Biso   1.000  H
  O85      1.0000 0.84967  0.48924  0.13697  Biso   1.000  O
  H153     1.0000 0.93461  0.49628  0.10631  Biso   1.000  H
  N17      1.0000 0.73820  0.63391  0.00510  Biso   1.000  N
  H154     1.0000 0.71857  0.34618  0.00738  Biso   1.000  H
  C104     1.0000 0.75347  0.35533  0.09488  Biso   1.000  C
  O86      1.0000 0.78893  0.40283  0.00355  Biso   1.000  O
  C105     1.0000 0.83565  0.43530  0.09971  Biso   1.000  C
  N18      1.0000 0.68068  0.63851  0.00410  Biso   1.000  N
  H155     1.0000 0.78387  0.32121  0.08969  Biso   1.000  H
  C106     1.0000 0.78318  0.40614  0.13255  Biso   1.000  C
  O87      1.0000 0.70073  0.33202  0.12435  Biso   1.000  O
  C107     1.0000 0.81951  0.45342  0.03343  Biso   1.000  C
  H156     1.0000 0.87170  0.40670  0.09971  Biso   1.000  H
  H157     1.0000 0.75159  0.43838  0.14130  Biso   1.000  H
  O88      1.0000 0.80171  0.37869  0.18862  Biso   1.000  O
  H158     1.0000 0.79219  0.49030  0.03339  Biso   1.000  H
  C108     1.0000 0.87368  0.46432  0.99271  Biso   1.000  C
  H159     1.0000 0.80990  0.40899  0.21691  Biso   1.000  H
  H160     1.0000 0.90099  0.49531  0.01171  Biso   1.000  H
  H161     1.0000 0.89727  0.42560  0.98852  Biso   1.000  H
  O89      1.0000 0.85607  0.48510  0.93404  Biso   1.000  O
  H162     1.0000 0.84020  0.45788  0.90211  Biso   1.000  H
  O90      1.0000 0.67695  0.23305  0.67118  Biso   1.000  O
  C109     1.0000 0.70988  0.27435  0.70880  Biso   1.000  C
  H163     1.0000 0.66890  0.19971  0.69140  Biso   1.000  H
  C110     1.0000 0.67907  0.27798  0.77120  Biso   1.000  C
  H164     1.0000 0.70841  0.31610  0.68971  Biso   1.000  H
  C111     1.0000 0.77702  0.25614  0.71627  Biso   1.000  C
  H165     1.0000 0.63547  0.29178  0.76619  Biso   1.000  H
  O91      1.0000 0.68003  0.21710  0.79448  Biso   1.000  O
  O92      1.0000 0.71002  0.31854  0.81051  Biso   1.000  O
  H166     1.0000 0.77909  0.21319  0.73240  Biso   1.000  H
  C112     1.0000 0.80796  0.29960  0.76187  Biso   1.000  C
  O93      1.0000 0.80714  0.25830  0.65906  Biso   1.000  O
  C113     1.0000 0.62430  0.19116  0.81712  Biso   1.000  C
  C114     1.0000 0.77265  0.30093  0.82195  Biso   1.000  C
  O94      1.0000 0.86788  0.27513  0.77293  Biso   1.000  O
  H167     1.0000 0.81109  0.34199  0.74442  Biso   1.000  H
  H168     1.0000 0.84259  0.25490  0.66352  Biso   1.000  H
  C115     1.0000 0.61947  0.12802  0.78696  Biso   1.000  C
  H169     1.0000 0.58861  0.21728  0.80450  Biso   1.000  H
  C116     1.0000 0.62733  0.18771  0.88631  Biso   1.000  C
  H170     1.0000 0.77297  0.25871  0.83994  Biso   1.000  H
  C117     1.0000 0.79720  0.34581  0.86882  Biso   1.000  C
  C118     1.0000 0.91953  0.31220  0.75954  Biso   1.000  C
  C119     1.0000 0.57017  0.08930  0.81753  Biso   1.000  C
  H171     1.0000 0.65998  0.10641  0.79033  Biso   1.000  H
  O95      1.0000 0.60609  0.13897  0.72442  Biso   1.000  O
  H172     1.0000 0.66831  0.17070  0.89842  Biso   1.000  H
  C120     1.0000 0.61878  0.24952  0.91673  Biso   1.000  C
  O96      1.0000 0.57997  0.14807  0.90981  Biso   1.000  O
  H173     1.0000 0.77237  0.34199  0.90640  Biso   1.000  H
  H174     1.0000 0.83997  0.33418  0.87902  Biso   1.000  H
  O97      1.0000 0.79638  0.40748  0.84978  Biso   1.000  O
  H175     1.0000 0.90647  0.34751  0.73340  Biso   1.000  H
  C121     1.0000 0.96473  0.27228  0.72456  Biso   1.000  C
  O98      1.0000 0.94611  0.33505  0.81388  Biso   1.000  O
  C122     1.0000 0.58337  0.08802  0.88562  Biso   1.000  C
  H176     1.0000 0.52869  0.10770  0.80983  Biso   1.000  H
  O99      1.0000 0.57178  0.02750  0.79548  Biso   1.000  O
  H177     1.0000 0.60351  0.11289  0.69882  Biso   1.000  H
  N19      1.0000 0.56300  0.28088  0.89783  Biso   1.000  N
  H178     1.0000 0.61758  0.24359  0.96142  Biso   1.000  H
  H179     1.0000 0.65460  0.27591  0.90722  Biso   1.000  H
  H180     1.0000 0.75720  0.42192  0.85274  Biso   1.000  H
  C123     1.0000 0.98722  0.22050  0.76419  Biso   1.000  C
  O100     1.0000 0.93530  0.25039  0.67177  Biso   1.000  O
  H181     1.0000 0.00069  0.29808  0.71222  Biso   1.000  H
  C124     1.0000 0.96799  0.28879  0.85538  Biso   1.000  C
  H182     1.0000 0.55261  0.06111  0.90653  Biso   1.000  H
  O101     1.0000 0.64255  0.06355  0.89328  Biso   1.000  O
  N20      1.0000 0.51729  0.27007  0.92890  Biso   1.000  N
  H183     1.0000 0.95167  0.19309  0.77412  Biso   1.000  H
  C125     1.0000 0.01403  0.24575  0.82368  Biso   1.000  C
  O102     1.0000 0.03311  0.18518  0.73385  Biso   1.000  O
  H184     1.0000 0.95130  0.23080  0.64353  Biso   1.000  H
  H185     1.0000 0.93217  0.26400  0.87000  Biso   1.000  H
  C126     1.0000 0.99609  0.32231  0.90890  Biso   1.000  C
  C127     1.0000 0.65410  0.01472  0.93432  Biso   1.000  C
  N21      1.0000 0.47098  0.26639  0.95331  Biso   1.000  N
  O103     1.0000 0.02561  0.19401  0.86144  Biso   1.000  O
  H186     1.0000 0.05330  0.26819  0.81520  Biso   1.000  H
  H187     1.0000 0.02239  0.16302  0.70579  Biso   1.000  H
  H188     1.0000 0.96409  0.34848  0.92780  Biso   1.000  H
  H189     1.0000 0.00911  0.29159  0.93960  Biso   1.000  H
  O104     1.0000 0.04668  0.35915  0.89410  Biso   1.000  O
  C128     1.0000 0.68408  0.04102  0.99112  Biso   1.000  C
  C129     1.0000 0.69737  0.97241  0.90011  Biso   1.000  C
  H190     1.0000 0.61501  0.99292  0.94484  Biso   1.000  H
  C130     1.0000 0.08213  0.18868  0.89282  Biso   1.000  C
  H191     1.0000 0.72041  0.06581  0.97773  Biso   1.000  H
  O105     1.0000 0.70707  0.99108  0.02961  Biso   1.000  O
  C131     1.0000 0.64439  0.08190  0.02933  Biso   1.000  C
  C132     1.0000 0.72110  0.92288  0.94202  Biso   1.000  C
  H192     1.0000 0.73338  0.99738  0.88640  Biso   1.000  H
  O106     1.0000 0.66812  0.94840  0.84732  Biso   1.000  O
  H193     1.0000 0.11119  0.22128  0.87852  Biso   1.000  H
  C133     1.0000 0.10830  0.12641  0.87920  Biso   1.000  C
  O107     1.0000 0.07215  0.19484  0.95705  Biso   1.000  O
  C134     1.0000 0.74887  0.95208  0.99790  Biso   1.000  C
  H194     1.0000 0.66831  0.09721  0.06450  Biso   1.000  H
  H195     1.0000 0.63110  0.11781  0.00492  Biso   1.000  H
  O108     1.0000 0.59340  0.05058  0.05001  Biso   1.000  O
  H196     1.0000 0.65207  0.12568  0.02000  Biso   1.000  H
  H197     1.0000 0.60029  0.07289  0.02241  Biso   1.000  H
  O109     1.0000 0.66159  0.06778  0.09042  Biso   1.000  O
  H198     1.0000 0.68569  0.89658  0.95491  Biso   1.000  H
  O110     1.0000 0.76469  0.88508  0.91122  Biso   1.000  O
  H199     1.0000 0.14867  0.12182  0.90052  Biso   1.000  H
  C135     1.0000 0.06456  0.07721  0.90120  Biso   1.000  C
  O111     1.0000 0.11754  0.12191  0.81530  Biso   1.000  O
  C136     1.0000 0.02589  0.15419  0.97941  Biso   1.000  C
  O112     1.0000 0.80084  0.98620  0.97950  Biso   1.000  O
  H200     1.0000 0.76258  0.91879  0.02610  Biso   1.000  H
  H201     1.0000 0.02759  0.07822  0.87424  Biso   1.000  H
  C137     1.0000 0.04267  0.08742  0.96634  Biso   1.000  C
  O113     1.0000 0.09110  0.01738  0.89651  Biso   1.000  O
  H202     1.0000 0.10117  0.14830  0.78674  Biso   1.000  H
  H203     1.0000 0.98648  0.16371  0.95791  Biso   1.000  H
  C138     1.0000 0.01720  0.16711  0.04692  Biso   1.000  C
  C139     1.0000 0.85597  0.98179  0.01521  Biso   1.000  C
  O114     1.0000 0.98956  0.04976  0.97358  Biso   1.000  O
  H204     1.0000 0.07537  0.07371  0.99531  Biso   1.000  H
  H205     1.0000 0.97848  0.14780  0.06104  Biso   1.000  H
  N22      1.0000 0.07008  0.14242  0.08313  Biso   1.000  N
  H206     1.0000 0.01380  0.21208  0.05343  Biso   1.000  H
  C140     1.0000 0.90320  0.95011  0.97650  Biso   1.000  C
  H207     1.0000 0.84779  0.95691  0.05261  Biso   1.000  H
  C141     1.0000 0.87570  0.04562  0.03311  Biso   1.000  C
  C142     1.0000 0.98197  0.01481  0.02701  Biso   1.000  C
  N23      1.0000 0.10361  0.17829  0.10741  Biso   1.000  N
  H208     1.0000 0.90637  0.97268  0.93691  Biso   1.000  H
  O115     1.0000 0.88540  0.88775  0.96383  Biso   1.000  O
  C143     1.0000 0.96611  0.94969  0.00633  Biso   1.000  C
  H209     1.0000 0.88090  0.07068  0.99522  Biso   1.000  H
  C144     1.0000 0.83179  0.07900  0.07543  Biso   1.000  C
  O116     1.0000 0.93548  0.04019  0.06341  Biso   1.000  O
  H210     1.0000 0.02148  0.01412  0.05033  Biso   1.000  H
  N24      1.0000 0.13708  0.20661  0.13182  Biso   1.000  N
  H211     1.0000 0.96501  0.92201  0.04263  Biso   1.000  H
  O117     1.0000 0.01338  0.92831  0.96461  Biso   1.000  O
  H212     1.0000 0.84967  0.11961  0.08591  Biso   1.000  H
  H213     1.0000 0.79270  0.08650  0.05361  Biso   1.000  H
  O118     1.0000 0.81928  0.04769  0.12854  Biso   1.000  O
  H214     1.0000 0.82480  0.05688  0.11424  Biso   1.000  H
  H215     1.0000 0.79219  0.08949  0.05594  Biso   1.000  H
  O119     1.0000 0.87699  0.13800  0.08304  Biso   1.000  O
  N25      1.0000 0.26639  0.52897  0.20329  Biso   1.000  N
  N26      1.0000 0.27007  0.48271  0.17892  Biso   1.000  N
  N27      1.0000 0.28088  0.43700  0.14781  Biso   1.000  N
  C145     1.0000 0.24952  0.38117  0.16671  Biso   1.000  C
  C146     1.0000 0.18771  0.37262  0.13628  Biso   1.000  C
  H216     1.0000 0.24359  0.38242  0.21140  Biso   1.000  H
  H217     1.0000 0.27591  0.34540  0.15719  Biso   1.000  H
  C147     1.0000 0.19116  0.37570  0.06714  Biso   1.000  C
  H218     1.0000 0.17070  0.33169  0.14840  Biso   1.000  H
  O120     1.0000 0.14807  0.41999  0.15979  Biso   1.000  O
  O121     1.0000 0.21710  0.31992  0.04446  Biso   1.000  O
  C148     1.0000 0.12802  0.38048  0.03694  Biso   1.000  C
  H219     1.0000 0.21728  0.41139  0.05452  Biso   1.000  H
  C149     1.0000 0.08802  0.41658  0.13560  Biso   1.000  C
  C150     1.0000 0.27798  0.32093  0.02118  Biso   1.000  C
  C151     1.0000 0.08930  0.42983  0.06750  Biso   1.000  C
  H220     1.0000 0.10641  0.34002  0.04031  Biso   1.000  H
  O122     1.0000 0.13897  0.39391  0.97440  Biso   1.000  O
  H221     1.0000 0.06111  0.44739  0.15651  Biso   1.000  H
  O123     1.0000 0.06355  0.35745  0.14325  Biso   1.000  O
  H222     1.0000 0.29178  0.36448  0.01622  Biso   1.000  H
  O124     1.0000 0.31854  0.28998  0.06049  Biso   1.000  O
  C152     1.0000 0.27435  0.29008  0.95878  Biso   1.000  C
  H223     1.0000 0.10770  0.47131  0.05981  Biso   1.000  H
  O125     1.0000 0.02750  0.42822  0.04546  Biso   1.000  O
  H224     1.0000 0.11289  0.39649  0.94880  Biso   1.000  H
  C153     1.0000 0.01472  0.34590  0.18429  Biso   1.000  C
  C154     1.0000 0.30093  0.22735  0.07192  Biso   1.000  C
  H225     1.0000 0.31610  0.29159  0.93969  Biso   1.000  H
  C155     1.0000 0.25614  0.22298  0.96629  Biso   1.000  C
  O126     1.0000 0.23305  0.32300  0.92115  Biso   1.000  O
  C156     1.0000 0.04102  0.31587  0.24110  Biso   1.000  C
  C157     1.0000 0.97241  0.30258  0.15009  Biso   1.000  C
  H226     1.0000 0.99292  0.38499  0.19482  Biso   1.000  H
  C158     1.0000 0.29960  0.19204  0.01184  Biso   1.000  C
  H227     1.0000 0.25871  0.22698  0.08992  Biso   1.000  H
  C159     1.0000 0.34581  0.20280  0.11879  Biso   1.000  C
  H228     1.0000 0.21319  0.22091  0.98242  Biso   1.000  H
  O127     1.0000 0.25830  0.19282  0.90904  Biso   1.000  O
  H229     1.0000 0.19971  0.33110  0.94138  Biso   1.000  H
  H230     1.0000 0.06581  0.27959  0.22770  Biso   1.000  H
  C160     1.0000 0.08190  0.35561  0.27931  Biso   1.000  C
  O128     1.0000 0.99108  0.29293  0.27958  Biso   1.000  O
  C161     1.0000 0.92288  0.27890  0.19199  Biso   1.000  C
  H231     1.0000 0.99738  0.26658  0.13642  Biso   1.000  H
  O129     1.0000 0.94840  0.33188  0.09729  Biso   1.000  O
  O130     1.0000 0.27513  0.13212  0.02291  Biso   1.000  O
  H232     1.0000 0.34199  0.18891  0.99440  Biso   1.000  H
  H233     1.0000 0.34199  0.22758  0.15642  Biso   1.000  H
  H234     1.0000 0.33418  0.15998  0.12900  Biso   1.000  H
  O131     1.0000 0.40748  0.20358  0.09980  Biso   1.000  O
  H235     1.0000 0.25490  0.15741  0.91350  Biso   1.000  H
  H236     1.0000 0.09721  0.33169  0.31452  Biso   1.000  H
  H237     1.0000 0.11781  0.36890  0.25490  Biso   1.000  H
  O132     1.0000 0.05058  0.40660  0.29999  Biso   1.000  O
  H238     1.0000 0.12568  0.34788  0.27002  Biso   1.000  H
  H239     1.0000 0.07289  0.39971  0.27239  Biso   1.000  H
  O133     1.0000 0.06778  0.33841  0.34039  Biso   1.000  O
  C162     1.0000 0.95208  0.25108  0.24788  Biso   1.000  C
  H240     1.0000 0.89658  0.31431  0.20488  Biso   1.000  H
  O134     1.0000 0.88508  0.23531  0.16120  Biso   1.000  O
  C163     1.0000 0.31220  0.08047  0.00957  Biso   1.000  C
  H241     1.0000 0.42192  0.24280  0.10271  Biso   1.000  H
  H242     1.0000 0.91879  0.23738  0.27612  Biso   1.000  H
  O135     1.0000 0.98620  0.19916  0.22948  Biso   1.000  O
  O136     1.0000 0.33505  0.05385  0.06386  Biso   1.000  O
  H243     1.0000 0.34751  0.09349  0.98342  Biso   1.000  H
  C164     1.0000 0.27228  0.03527  0.97454  Biso   1.000  C
  C165     1.0000 0.98179  0.14398  0.26519  Biso   1.000  C
  C166     1.0000 0.28879  0.03201  0.10536  Biso   1.000  C
  C167     1.0000 0.22050  0.01274  0.01421  Biso   1.000  C
  H244     1.0000 0.29808  0.99931  0.96219  Biso   1.000  H
  O137     1.0000 0.25039  0.06470  0.92175  Biso   1.000  O
  C168     1.0000 0.04562  0.12430  0.28309  Biso   1.000  C
  C169     1.0000 0.95011  0.09680  0.22652  Biso   1.000  C
  H245     1.0000 0.95691  0.15221  0.30259  Biso   1.000  H
  H246     1.0000 0.26400  0.06778  0.12002  Biso   1.000  H
  C170     1.0000 0.32231  0.00391  0.15892  Biso   1.000  C
  C171     1.0000 0.24575  0.98597  0.07365  Biso   1.000  C
  H247     1.0000 0.19309  0.04828  0.02410  Biso   1.000  H
  O138     1.0000 0.18518  0.96689  0.98383  Biso   1.000  O
  H248     1.0000 0.23080  0.04870  0.89350  Biso   1.000  H
  H249     1.0000 0.07068  0.11910  0.24519  Biso   1.000  H
  C172     1.0000 0.07900  0.16821  0.32541  Biso   1.000  C
  O139     1.0000 0.04019  0.06452  0.31343  Biso   1.000  O
  C173     1.0000 0.94969  0.03389  0.25631  Biso   1.000  C
  H250     1.0000 0.97268  0.09358  0.18689  Biso   1.000  H
  O140     1.0000 0.88775  0.11460  0.21381  Biso   1.000  O
  H251     1.0000 0.34848  0.03591  0.17778  Biso   1.000  H
  H252     1.0000 0.29159  0.99089  0.18962  Biso   1.000  H
  O141     1.0000 0.35915  0.95328  0.14407  Biso   1.000  O
  O142     1.0000 0.19401  0.97434  0.11141  Biso   1.000  O
  H253     1.0000 0.26819  0.94670  0.06518  Biso   1.000  H
  H254     1.0000 0.16302  0.97761  0.95582  Biso   1.000  H
  H255     1.0000 0.11961  0.15028  0.33588  Biso   1.000  H
  H256     1.0000 0.08650  0.20730  0.30359  Biso   1.000  H
  O143     1.0000 0.04769  0.18068  0.37852  Biso   1.000  O
  H257     1.0000 0.05688  0.17520  0.36422  Biso   1.000  H
  H258     1.0000 0.08949  0.20781  0.30591  Biso   1.000  H
  O144     1.0000 0.13800  0.12301  0.33301  Biso   1.000  O
  C174     1.0000 0.01481  0.01798  0.27699  Biso   1.000  C
  O145     1.0000 0.92831  0.98662  0.21459  Biso   1.000  O
  H259     1.0000 0.92201  0.03499  0.29261  Biso   1.000  H
  C175     1.0000 0.18868  0.91787  0.14280  Biso   1.000  C
  O146     1.0000 0.04976  0.01039  0.22356  Biso   1.000  O
  H260     1.0000 0.01412  0.97848  0.30031  Biso   1.000  H
  H261     1.0000 0.22128  0.88881  0.12850  Biso   1.000  H
  C176     1.0000 0.12641  0.89170  0.12922  Biso   1.000  C
  O147     1.0000 0.19484  0.92785  0.20702  Biso   1.000  O
  C177     1.0000 0.08742  0.95728  0.21632  Biso   1.000  C
  H262     1.0000 0.12182  0.85128  0.15050  Biso   1.000  H
  C178     1.0000 0.07721  0.93539  0.15123  Biso   1.000  C
  O148     1.0000 0.12191  0.88246  0.06532  Biso   1.000  O
  C179     1.0000 0.15419  0.97411  0.22939  Biso   1.000  C
  H263     1.0000 0.07371  0.92458  0.24529  Biso   1.000  H
  H264     1.0000 0.07822  0.97241  0.12421  Biso   1.000  H
  O149     1.0000 0.01738  0.90890  0.14649  Biso   1.000  O
  H265     1.0000 0.14830  0.89879  0.03671  Biso   1.000  H
  H266     1.0000 0.16371  0.01352  0.20789  Biso   1.000  H
  C180     1.0000 0.16711  0.98280  0.29689  Biso   1.000  C
  H267     1.0000 0.14780  0.02152  0.31101  Biso   1.000  H
  N28      1.0000 0.14242  0.92992  0.33311  Biso   1.000  N
  H268     1.0000 0.21208  0.98620  0.30341  Biso   1.000  H
  N29      1.0000 0.17829  0.89639  0.35743  Biso   1.000  N
  N30      1.0000 0.20661  0.86292  0.38180  Biso   1.000  N
  Ne1      1.0000 0.14243  0.17084  0.15078  Biso   1.000  Ne
  He1      1.0000 0.22939  0.22950  0.24715  Biso   1.000  He
  He2      1.0000 0.14390  0.14742  0.12538  Biso   1.000  He
  Ar1      1.0000 0.14616  0.17353  0.14586  Biso   1.000  Ar
  Ne2      1.0000 0.66127  0.60434  0.09856  Biso   1.000  Ne
  He3      1.0000 0.61955  0.57032  0.13062  Biso   1.000  He
  He4      1.0000 0.00000  0.00000  0.00000  Biso   1.000  He
  Ar2      1.0000 0.62941  0.57248  0.13012  Biso   1.000  Ar
  Ne3      1.0000 0.17084  0.85756  0.40078  Biso   1.000  Ne
  He5      1.0000 0.15825  0.82022  0.42535  Biso   1.000  He
  He6      1.0000 0.18946  0.87481  0.38180  Biso   1.000  He
  Ar3      1.0000 0.17353  0.85383  0.39586  Biso   1.000  Ar
  Ne4      1.0000 0.82915  0.14243  0.90079  Biso   1.000  Ne
  He7      1.0000 0.84247  0.17729  0.92194  Biso   1.000  He
  He8      1.0000 0.85639  0.08313  0.83600  Biso   1.000  He
  Ar4      1.0000 0.84119  0.09167  0.82162  Biso   1.000  Ar
  Ne5      1.0000 0.85756  0.82915  0.65079  Biso   1.000  Ne
  He9      1.0000 0.77499  0.77261  0.74099  Biso   1.000  He
  He10     1.0000 0.91004  0.85351  0.59215  Biso   1.000  He
  Ar5      1.0000 0.90832  0.84122  0.57165  Biso   1.000  Ar
