data_image0
_cell_length_a       20.042
_cell_length_b       10.378
_cell_length_c       15.123
_cell_angle_alpha    90
_cell_angle_beta     102.3
_cell_angle_gamma    90

_symmetry_space_group_name_H-M    "P 1"
_symmetry_int_tables_number       1

loop_
  _symmetry_equiv_pos_as_xyz
  'x, y, z'

loop_
  _atom_site_label
  _atom_site_occupancy
  _atom_site_fract_x
  _atom_site_fract_y
  _atom_site_fract_z
  _atom_site_thermal_displace_type
  _atom_site_B_iso_or_equiv
  _atom_site_type_symbol
  O1       1.0000 0.46712  0.79225  0.55063  Biso   1.000  O
  C1       1.0000 0.39538  0.81374  0.53459  Biso   1.000  C
  C2       1.0000 0.36241  0.73743  0.45209  Biso   1.000  C
  C3       1.0000 0.37830  0.95462  0.52207  Biso   1.000  C
  H1       1.0000 0.37661  0.77818  0.59259  Biso   1.000  H
  C4       1.0000 0.28641  0.76479  0.42529  Biso   1.000  C
  O2       1.0000 0.37570  0.60349  0.46150  Biso   1.000  O
  H2       1.0000 0.38478  0.77086  0.39659  Biso   1.000  H
  C5       1.0000 0.30139  0.97379  0.49242  Biso   1.000  C
  H3       1.0000 0.40300  0.99354  0.47023  Biso   1.000  H
  O3       1.0000 0.40468  0.01667  0.60423  Biso   1.000  O
  O4       1.0000 0.25610  0.71488  0.49473  Biso   1.000  O
  O5       1.0000 0.27428  0.89882  0.41317  Biso   1.000  O
  H4       1.0000 0.26511  0.71507  0.36201  Biso   1.000  H
  H5       1.0000 0.27688  0.94421  0.54697  Biso   1.000  H
  C6       1.0000 0.28101  0.11081  0.46562  Biso   1.000  C
  C7       1.0000 0.44190  0.13134  0.60423  Biso   1.000  C
  C8       1.0000 0.19741  0.63529  0.46948  Biso   1.000  C
  O6       1.0000 0.21072  0.12931  0.44552  Biso   1.000  O
  H6       1.0000 0.30390  0.17499  0.52078  Biso   1.000  H
  H7       1.0000 0.30138  0.13683  0.40668  Biso   1.000  H
  C9       1.0000 0.50992  0.12160  0.67319  Biso   1.000  C
  O7       1.0000 0.40577  0.23887  0.62467  Biso   1.000  O
  H8       1.0000 0.45262  0.14473  0.53709  Biso   1.000  H
  C10      1.0000 0.21521  0.50414  0.51659  Biso   1.000  C
  C11      1.0000 0.13728  0.69503  0.49797  Biso   1.000  C
  H9       1.0000 0.18571  0.62180  0.39639  Biso   1.000  H
  C12      1.0000 0.49959  0.11476  0.76909  Biso   1.000  C
  O8       1.0000 0.54469  0.00655  0.65330  Biso   1.000  O
  H10      1.0000 0.54111  0.20563  0.66642  Biso   1.000  H
  C13      1.0000 0.38870  0.22952  0.71339  Biso   1.000  C
  O9       1.0000 0.26791  0.44305  0.48187  Biso   1.000  O
  C14      1.0000 0.15329  0.41925  0.50542  Biso   1.000  C
  H11      1.0000 0.23422  0.52130  0.58860  Biso   1.000  H
  O10      1.0000 0.08030  0.60821  0.48559  Biso   1.000  O
  C15      1.0000 0.11141  0.81451  0.44349  Biso   1.000  C
  H12      1.0000 0.15189  0.72114  0.56931  Biso   1.000  H
  C16      1.0000 0.45490  0.22721  0.78378  Biso   1.000  C
  O11      1.0000 0.56482  0.12343  0.82912  Biso   1.000  O
  H13      1.0000 0.47501  0.02419  0.77979  Biso   1.000  H
  C17      1.0000 0.34241  0.34246  0.71908  Biso   1.000  C
  H14      1.0000 0.36080  0.14020  0.71739  Biso   1.000  H
  C18      1.0000 0.09518  0.48998  0.53439  Biso   1.000  C
  O12      1.0000 0.16711  0.30497  0.55597  Biso   1.000  O
  H15      1.0000 0.13709  0.39401  0.43409  Biso   1.000  H
  O13      1.0000 0.06381  0.88023  0.48451  Biso   1.000  O
  H16      1.0000 0.15408  0.87801  0.44018  Biso   1.000  H
  H17      1.0000 0.08701  0.78695  0.37460  Biso   1.000  H
  O14      1.0000 0.08829  0.77973  0.34719  Biso   1.000  O
  H18      1.0000 0.06909  0.85643  0.46860  Biso   1.000  H
  H19      1.0000 0.15211  0.88591  0.45087  Biso   1.000  H
  O15      1.0000 0.43961  0.21189  0.87271  Biso   1.000  O
  H20      1.0000 0.48243  0.31731  0.78121  Biso   1.000  H
  O16      1.0000 0.37870  0.46310  0.72131  Biso   1.000  O
  H21      1.0000 0.29979  0.34140  0.66067  Biso   1.000  H
  H22      1.0000 0.32171  0.33378  0.77992  Biso   1.000  H
  O17      1.0000 0.11628  0.51628  0.62839  Biso   1.000  O
  H23      1.0000 0.04981  0.42918  0.52247  Biso   1.000  H
  C19      1.0000 0.45630  0.31432  0.93463  Biso   1.000  C
  C20      1.0000 0.07122  0.48111  0.68612  Biso   1.000  C
  O18      1.0000 0.39831  0.37136  0.95351  Biso   1.000  O
  H24      1.0000 0.48480  0.38659  0.90553  Biso   1.000  H
  C21      1.0000 0.50061  0.26450  0.02099  Biso   1.000  C
  C22      1.0000 0.11751  0.40807  0.76551  Biso   1.000  C
  C23      1.0000 0.03939  0.59694  0.72057  Biso   1.000  C
  H25      1.0000 0.03152  0.41704  0.65018  Biso   1.000  H
  C24      1.0000 0.35478  0.28522  0.99311  Biso   1.000  C
  O19      1.0000 0.55950  0.20486  0.99967  Biso   1.000  O
  C25      1.0000 0.46208  0.16882  0.06620  Biso   1.000  C
  H26      1.0000 0.51669  0.34506  0.06667  Biso   1.000  H
  C26      1.0000 0.07658  0.37637  0.83650  Biso   1.000  C
  O20      1.0000 0.14112  0.29158  0.73390  Biso   1.000  O
  H27      1.0000 0.16099  0.46830  0.79542  Biso   1.000  H
  O21      1.0000 0.00281  0.55743  0.78818  Biso   1.000  O
  H28      1.0000 0.08009  0.66217  0.75217  Biso   1.000  H
  C27      1.0000 0.99102  0.66949  0.64842  Biso   1.000  C
  H29      1.0000 0.33722  0.20640  0.94627  Biso   1.000  H
  C28      1.0000 0.39608  0.23155  0.08028  Biso   1.000  C
  C29      1.0000 0.29510  0.36240  0.00610  Biso   1.000  C
  O22      1.0000 0.50460  0.13317  0.15012  Biso   1.000  O
  H30      1.0000 0.44992  0.08373  0.02349  Biso   1.000  H
  C30      1.0000 0.04271  0.49807  0.86479  Biso   1.000  C
  O23      1.0000 0.12120  0.32318  0.91507  Biso   1.000  O
  H31      1.0000 0.03719  0.30613  0.80902  Biso   1.000  H
  H32      1.0000 0.02058  0.72278  0.60788  Biso   1.000  H
  H33      1.0000 0.01809  0.69349  0.59523  Biso   1.000  H
  O24      1.0000 0.94840  0.75544  0.68098  Biso   1.000  O
  H34      1.0000 0.95941  0.60031  0.60389  Biso   1.000  H
  O25      1.0000 0.93282  0.61264  0.60978  Biso   1.000  O
  H35      1.0000 0.97849  0.75997  0.67759  Biso   1.000  H
  O26      1.0000 0.35642  0.12960  0.10823  Biso   1.000  O
  H36      1.0000 0.40713  0.30632  0.13191  Biso   1.000  H
  O27      1.0000 0.26072  0.43997  0.93842  Biso   1.000  O
  H37      1.0000 0.26029  0.37493  0.94072  Biso   1.000  H
  H38      1.0000 0.25811  0.29524  0.02343  Biso   1.000  H
  H39      1.0000 0.31258  0.42330  0.06518  Biso   1.000  H
  O28      1.0000 0.31157  0.47736  0.04217  Biso   1.000  O
  H40      1.0000 0.26811  0.30883  0.04962  Biso   1.000  H
  O29      1.0000 0.09450  0.58046  0.91067  Biso   1.000  O
  H41      1.0000 0.00987  0.47080  0.91067  Biso   1.000  H
  C31      1.0000 0.34611  0.12517  0.19837  Biso   1.000  C
  C32      1.0000 0.08652  0.63654  0.99453  Biso   1.000  C
  C33      1.0000 0.36319  0.99364  0.23512  Biso   1.000  C
  O30      1.0000 0.27882  0.15947  0.19973  Biso   1.000  O
  H42      1.0000 0.38059  0.19387  0.23939  Biso   1.000  H
  C34      1.0000 0.08190  0.77780  0.98722  Biso   1.000  C
  C35      1.0000 0.14631  0.59241  0.06539  Biso   1.000  C
  H43      1.0000 0.03979  0.59954  0.01111  Biso   1.000  H
  C36      1.0000 0.31518  0.89458  0.18037  Biso   1.000  C
  O31      1.0000 0.43212  0.96040  0.23742  Biso   1.000  O
  H44      1.0000 0.35562  0.99171  0.30442  Biso   1.000  H
  C37      1.0000 0.22892  0.07506  0.14971  Biso   1.000  C
  C38      1.0000 0.01869  0.82347  0.92360  Biso   1.000  C
  H45      1.0000 0.12619  0.81364  0.96380  Biso   1.000  H
  O32      1.0000 0.08230  0.83292  0.07567  Biso   1.000  O
  C39      1.0000 0.14668  0.65812  0.15648  Biso   1.000  C
  O33      1.0000 0.14410  0.45529  0.07960  Biso   1.000  O
  H46      1.0000 0.19340  0.61650  0.04393  Biso   1.000  H
  C40      1.0000 0.24230  0.93525  0.17929  Biso   1.000  C
  O34      1.0000 0.32689  0.76999  0.21753  Biso   1.000  O
  H47      1.0000 0.32288  0.89352  0.11127  Biso   1.000  H
  C41      1.0000 0.15923  0.12382  0.15973  Biso   1.000  C
  H48      1.0000 0.23129  0.08200  0.07852  Biso   1.000  H
  O35      1.0000 0.02570  0.96531  0.90702  Biso   1.000  O
  H49      1.0000 0.01179  0.77086  0.85992  Biso   1.000  H
  H50      1.0000 0.97422  0.80632  0.95270  Biso   1.000  H
  C42      1.0000 0.13951  0.80362  0.14261  Biso   1.000  C
  O36      1.0000 0.20558  0.62931  0.22213  Biso   1.000  O
  H51      1.0000 0.10259  0.62372  0.18112  Biso   1.000  H
  O37      1.0000 0.19950  0.85151  0.11878  Biso   1.000  O
  H52      1.0000 0.23221  0.92311  0.24683  Biso   1.000  H
  O38      1.0000 0.15489  0.12575  0.25103  Biso   1.000  O
  H53      1.0000 0.15098  0.22066  0.13171  Biso   1.000  H
  H54      1.0000 0.11942  0.06138  0.12190  Biso   1.000  H
  H55      1.0000 0.13391  0.84833  0.20582  Biso   1.000  H
  C43      1.0000 0.55808  0.63134  0.39578  Biso   1.000  C
  C44      1.0000 0.49012  0.62160  0.32682  Biso   1.000  C
  O39      1.0000 0.59420  0.73887  0.37527  Biso   1.000  O
  O40      1.0000 0.59530  0.51667  0.39578  Biso   1.000  O
  H56      1.0000 0.54742  0.64473  0.46292  Biso   1.000  H
  O41      1.0000 0.45529  0.50655  0.34671  Biso   1.000  O
  C45      1.0000 0.50040  0.61476  0.23092  Biso   1.000  C
  H57      1.0000 0.45892  0.70563  0.33358  Biso   1.000  H
  C46      1.0000 0.61129  0.72952  0.28662  Biso   1.000  C
  C47      1.0000 0.62167  0.45462  0.47787  Biso   1.000  C
  C48      1.0000 0.54509  0.72721  0.21623  Biso   1.000  C
  O42      1.0000 0.43521  0.62343  0.17089  Biso   1.000  O
  H58      1.0000 0.52502  0.52419  0.22022  Biso   1.000  H
  C49      1.0000 0.65762  0.84246  0.28093  Biso   1.000  C
  H59      1.0000 0.63918  0.64020  0.28262  Biso   1.000  H
  C50      1.0000 0.60460  0.31374  0.46542  Biso   1.000  C
  C51      1.0000 0.69860  0.47379  0.50758  Biso   1.000  C
  H60      1.0000 0.59699  0.49354  0.52978  Biso   1.000  H
  O43      1.0000 0.56038  0.71189  0.12730  Biso   1.000  O
  H61      1.0000 0.51761  0.81731  0.21880  Biso   1.000  H
  O44      1.0000 0.62129  0.96310  0.27870  Biso   1.000  O
  H62      1.0000 0.70018  0.84140  0.33927  Biso   1.000  H
  H63      1.0000 0.67828  0.83378  0.22009  Biso   1.000  H
  C52      1.0000 0.63762  0.23743  0.54792  Biso   1.000  C
  O45      1.0000 0.53292  0.29225  0.44938  Biso   1.000  O
  H64      1.0000 0.62342  0.27818  0.40742  Biso   1.000  H
  C53      1.0000 0.71902  0.61081  0.53439  Biso   1.000  C
  O46      1.0000 0.72569  0.39882  0.58677  Biso   1.000  O
  H65      1.0000 0.72310  0.44421  0.45297  Biso   1.000  H
  C54      1.0000 0.54369  0.81432  0.06538  Biso   1.000  C
  C55      1.0000 0.71358  0.26479  0.57472  Biso   1.000  C
  O47      1.0000 0.62428  0.10349  0.53851  Biso   1.000  O
  H66      1.0000 0.61521  0.27086  0.60342  Biso   1.000  H
  O48      1.0000 0.78931  0.62931  0.55449  Biso   1.000  O
  H67      1.0000 0.69608  0.67499  0.47923  Biso   1.000  H
  H68      1.0000 0.69861  0.63683  0.59333  Biso   1.000  H
  O49      1.0000 0.60168  0.87136  0.04649  Biso   1.000  O
  H69      1.0000 0.51519  0.88659  0.09448  Biso   1.000  H
  C56      1.0000 0.49942  0.76450  0.97902  Biso   1.000  C
  O50      1.0000 0.74388  0.21488  0.50528  Biso   1.000  O
  H70      1.0000 0.73488  0.21507  0.63800  Biso   1.000  H
  C57      1.0000 0.64521  0.78522  0.00690  Biso   1.000  C
  O51      1.0000 0.44052  0.70486  0.00027  Biso   1.000  O
  C58      1.0000 0.53791  0.66882  0.93381  Biso   1.000  C
  H71      1.0000 0.48329  0.84506  0.93327  Biso   1.000  H
  C59      1.0000 0.80262  0.13529  0.53053  Biso   1.000  C
  H72      1.0000 0.66280  0.70640  0.05367  Biso   1.000  H
  C60      1.0000 0.60389  0.73155  0.91967  Biso   1.000  C
  C61      1.0000 0.70489  0.86240  0.99391  Biso   1.000  C
  O52      1.0000 0.49538  0.63317  0.84989  Biso   1.000  O
  H73      1.0000 0.55011  0.58373  0.97652  Biso   1.000  H
  C62      1.0000 0.78482  0.00414  0.48342  Biso   1.000  C
  C63      1.0000 0.86270  0.19503  0.50197  Biso   1.000  C
  H74      1.0000 0.81432  0.12180  0.60362  Biso   1.000  H
  O53      1.0000 0.64362  0.62960  0.89178  Biso   1.000  O
  H75      1.0000 0.59291  0.80632  0.86810  Biso   1.000  H
  O54      1.0000 0.73932  0.93997  0.06159  Biso   1.000  O
  H76      1.0000 0.73970  0.87493  0.05929  Biso   1.000  H
  H77      1.0000 0.74192  0.79524  0.97658  Biso   1.000  H
  H78      1.0000 0.68741  0.92330  0.93483  Biso   1.000  H
  O55      1.0000 0.68840  0.97736  0.95777  Biso   1.000  O
  H79      1.0000 0.73192  0.80883  0.95039  Biso   1.000  H
  H80      1.0000 0.76581  0.02130  0.41141  Biso   1.000  H
  C64      1.0000 0.84669  0.91925  0.49459  Biso   1.000  C
  O56      1.0000 0.73212  0.94305  0.51807  Biso   1.000  O
  C65      1.0000 0.88858  0.31451  0.55652  Biso   1.000  C
  O57      1.0000 0.91968  0.10821  0.51442  Biso   1.000  O
  H81      1.0000 0.84810  0.22114  0.43070  Biso   1.000  H
  C66      1.0000 0.65391  0.62517  0.80157  Biso   1.000  C
  C67      1.0000 0.90480  0.98998  0.46562  Biso   1.000  C
  O58      1.0000 0.83292  0.80497  0.44397  Biso   1.000  O
  H82      1.0000 0.86290  0.89401  0.56592  Biso   1.000  H
  O59      1.0000 0.93622  0.38023  0.51550  Biso   1.000  O
  H83      1.0000 0.84590  0.37801  0.55983  Biso   1.000  H
  H84      1.0000 0.91303  0.28695  0.62541  Biso   1.000  H
  O60      1.0000 0.91169  0.27973  0.65282  Biso   1.000  O
  H85      1.0000 0.93090  0.35643  0.53141  Biso   1.000  H
  H86      1.0000 0.84792  0.38591  0.54907  Biso   1.000  H
  C68      1.0000 0.63679  0.49364  0.76489  Biso   1.000  C
  O61      1.0000 0.72121  0.65947  0.80028  Biso   1.000  O
  H87      1.0000 0.61939  0.69387  0.76062  Biso   1.000  H
  O62      1.0000 0.88371  0.01628  0.37162  Biso   1.000  O
  H88      1.0000 0.95022  0.92918  0.47747  Biso   1.000  H
  C69      1.0000 0.68480  0.39458  0.81957  Biso   1.000  C
  O63      1.0000 0.56791  0.46040  0.76259  Biso   1.000  O
  H89      1.0000 0.64441  0.49171  0.69558  Biso   1.000  H
  C70      1.0000 0.77112  0.57506  0.85030  Biso   1.000  C
  C71      1.0000 0.92881  0.98111  0.31389  Biso   1.000  C
  C72      1.0000 0.75768  0.43525  0.82072  Biso   1.000  C
  O64      1.0000 0.67310  0.26999  0.78248  Biso   1.000  O
  H90      1.0000 0.67709  0.39352  0.88867  Biso   1.000  H
  C73      1.0000 0.84081  0.62382  0.84028  Biso   1.000  C
  H91      1.0000 0.76869  0.58200  0.92149  Biso   1.000  H
  C74      1.0000 0.96059  0.09694  0.27937  Biso   1.000  C
  C75      1.0000 0.88252  0.90807  0.23450  Biso   1.000  C
  H92      1.0000 0.96852  0.91704  0.34983  Biso   1.000  H
  O65      1.0000 0.80049  0.35151  0.88123  Biso   1.000  O
  H93      1.0000 0.76778  0.42311  0.75318  Biso   1.000  H
  O66      1.0000 0.84509  0.62575  0.74898  Biso   1.000  O
  H94      1.0000 0.84900  0.72066  0.86830  Biso   1.000  H
  H95      1.0000 0.88062  0.56138  0.87811  Biso   1.000  H
  O67      1.0000 0.99723  0.05743  0.21183  Biso   1.000  O
  H96      1.0000 0.91988  0.16217  0.24777  Biso   1.000  H
  C76      1.0000 0.00902  0.16949  0.35159  Biso   1.000  C
  C77      1.0000 0.92340  0.87637  0.16351  Biso   1.000  C
  O68      1.0000 0.85891  0.79158  0.26611  Biso   1.000  O
  H97      1.0000 0.83899  0.96830  0.20459  Biso   1.000  H
  C78      1.0000 0.86052  0.30362  0.85740  Biso   1.000  C
  C79      1.0000 0.95732  0.99807  0.13522  Biso   1.000  C
  H98      1.0000 0.97941  0.22278  0.39213  Biso   1.000  H
  H99      1.0000 0.98189  0.19349  0.40478  Biso   1.000  H
  O69      1.0000 0.05157  0.25544  0.31897  Biso   1.000  O
  H100     1.0000 0.04062  0.10031  0.39612  Biso   1.000  H
  O70      1.0000 0.06722  0.11264  0.39023  Biso   1.000  O
  H101     1.0000 0.02149  0.25997  0.32242  Biso   1.000  H
  O71      1.0000 0.87878  0.82318  0.08487  Biso   1.000  O
  H102     1.0000 0.96279  0.80613  0.19099  Biso   1.000  H
  C80      1.0000 0.85330  0.15812  0.84353  Biso   1.000  C
  O72      1.0000 0.91767  0.33292  0.92427  Biso   1.000  O
  H103     1.0000 0.86608  0.34833  0.79419  Biso   1.000  H
  O73      1.0000 0.90548  0.08046  0.08927  Biso   1.000  O
  H104     1.0000 0.99010  0.97080  0.08927  Biso   1.000  H
  C81      1.0000 0.85373  0.09241  0.93462  Biso   1.000  C
  O74      1.0000 0.79440  0.12931  0.77788  Biso   1.000  O
  H105     1.0000 0.89739  0.12372  0.81889  Biso   1.000  H
  C82      1.0000 0.91808  0.27780  0.01279  Biso   1.000  C
  C83      1.0000 0.91351  0.13654  0.00548  Biso   1.000  C
  O75      1.0000 0.85588  0.95529  0.92041  Biso   1.000  O
  H106     1.0000 0.80658  0.11650  0.95608  Biso   1.000  H
  C84      1.0000 0.98130  0.32347  0.07641  Biso   1.000  C
  H107     1.0000 0.87380  0.31364  0.03621  Biso   1.000  H
  H108     1.0000 0.96020  0.09954  0.98890  Biso   1.000  H
  O76      1.0000 0.97428  0.46531  0.09299  Biso   1.000  O
  H109     1.0000 0.98819  0.27086  0.14009  Biso   1.000  H
  H110     1.0000 0.02582  0.30632  0.04731  Biso   1.000  H
  Ne1      1.0000 0.25140  0.88283  0.81027  Biso   1.000  Ne
  He1      1.0000 0.30480  0.77554  0.83779  Biso   1.000  He
  He2      1.0000 0.15238  0.10549  0.72512  Biso   1.000  He
  Ar1      1.0000 0.28795  0.79939  0.82311  Biso   1.000  Ar
  Ne2      1.0000 0.74860  0.38283  0.18973  Biso   1.000  Ne
  He3      1.0000 0.85628  0.62622  0.28055  Biso   1.000  He
  He4      1.0000 0.00000  0.00000  0.00000  Biso   1.000  He
  Ar2      1.0000 0.59773  0.11862  0.10226  Biso   1.000  Ar
