data_image0
_cell_length_a       17.665
_cell_length_b       18.127
_cell_length_c       30.45
_cell_angle_alpha    82.86
_cell_angle_beta     74.86
_cell_angle_gamma    63.57

_symmetry_space_group_name_H-M    "P 1"
_symmetry_int_tables_number       1

loop_
  _symmetry_equiv_pos_as_xyz
  'x, y, z'

loop_
  _atom_site_label
  _atom_site_occupancy
  _atom_site_fract_x
  _atom_site_fract_y
  _atom_site_fract_z
  _atom_site_thermal_displace_type
  _atom_site_B_iso_or_equiv
  _atom_site_type_symbol
  O1       1.0000 0.59509  0.66628  0.44849  Biso   1.000  O
  B1       1.0000 0.58521  0.74360  0.42621  Biso   1.000  B
  C1       1.0000 0.63872  0.63658  0.48571  Biso   1.000  C
  C2       1.0000 0.54680  0.77007  0.38722  Biso   1.000  C
  O2       1.0000 0.62032  0.78532  0.44019  Biso   1.000  O
  C3       1.0000 0.63863  0.70179  0.50929  Biso   1.000  C
  H1       1.0000 0.69960  0.59692  0.47370  Biso   1.000  H
  H2       1.0000 0.60999  0.60670  0.50779  Biso   1.000  H
  C4       1.0000 0.55313  0.83421  0.35789  Biso   1.000  C
  C5       1.0000 0.49722  0.73309  0.37732  Biso   1.000  C
  C6       1.0000 0.66378  0.75940  0.47581  Biso   1.000  C
  C7       1.0000 0.70097  0.66613  0.54178  Biso   1.000  C
  C8       1.0000 0.54708  0.75080  0.54018  Biso   1.000  C
  C9       1.0000 0.51520  0.85751  0.32029  Biso   1.000  C
  H3       1.0000 0.58381  0.86239  0.36350  Biso   1.000  H
  C10      1.0000 0.46033  0.76021  0.33669  Biso   1.000  C
  H4       1.0000 0.48781  0.69118  0.39661  Biso   1.000  H
  H5       1.0000 0.65222  0.80859  0.49221  Biso   1.000  H
  H6       1.0000 0.72722  0.73178  0.46251  Biso   1.000  H
  O3       1.0000 0.67628  0.61859  0.57720  Biso   1.000  O
  H7       1.0000 0.76011  0.63168  0.52409  Biso   1.000  H
  H8       1.0000 0.70338  0.71211  0.55492  Biso   1.000  H
  O4       1.0000 0.52242  0.70301  0.57581  Biso   1.000  O
  H9       1.0000 0.54693  0.79820  0.55328  Biso   1.000  H
  H10      1.0000 0.50370  0.77268  0.52130  Biso   1.000  H
  C11      1.0000 0.47089  0.81943  0.30998  Biso   1.000  C
  H11      1.0000 0.52070  0.90151  0.30141  Biso   1.000  H
  H12      1.0000 0.42840  0.73439  0.32968  Biso   1.000  H
  B2       1.0000 0.58708  0.64141  0.59401  Biso   1.000  B
  C12      1.0000 0.43209  0.84559  0.27079  Biso   1.000  C
  C13      1.0000 0.56617  0.58172  0.63399  Biso   1.000  C
  C14      1.0000 0.39799  0.92942  0.25381  Biso   1.000  C
  C15      1.0000 0.42498  0.79130  0.24609  Biso   1.000  C
  C16      1.0000 0.62670  0.52888  0.65852  Biso   1.000  C
  C17      1.0000 0.48390  0.59747  0.65300  Biso   1.000  C
  C18      1.0000 0.35877  0.95473  0.21782  Biso   1.000  C
  H13      1.0000 0.40322  0.96958  0.26861  Biso   1.000  H
  C19      1.0000 0.38930  0.81269  0.20911  Biso   1.000  C
  H14      1.0000 0.44641  0.73508  0.25541  Biso   1.000  H
  C20      1.0000 0.60420  0.48943  0.69621  Biso   1.000  C
  H15      1.0000 0.68551  0.52061  0.64831  Biso   1.000  H
  C21      1.0000 0.46231  0.55499  0.69540  Biso   1.000  C
  H16      1.0000 0.43892  0.63621  0.63929  Biso   1.000  H
  C22      1.0000 0.34622  0.89797  0.19689  Biso   1.000  C
  H17      1.0000 0.34046  0.01010  0.20720  Biso   1.000  H
  H18      1.0000 0.39299  0.77109  0.19141  Biso   1.000  H
  C23      1.0000 0.51760  0.50279  0.71520  Biso   1.000  C
  H19      1.0000 0.64828  0.45112  0.71061  Biso   1.000  H
  H20      1.0000 0.40280  0.56802  0.70850  Biso   1.000  H
  C24      1.0000 0.29771  0.92229  0.16141  Biso   1.000  C
  C25      1.0000 0.50080  0.46117  0.75739  Biso   1.000  C
  N1       1.0000 0.29007  0.86983  0.14130  Biso   1.000  N
  H21      1.0000 0.27119  0.97891  0.15331  Biso   1.000  H
  C26      1.0000 0.55201  0.43767  0.79172  Biso   1.000  C
  C27      1.0000 0.42720  0.44411  0.77171  Biso   1.000  C
  C28      1.0000 0.23658  0.89693  0.10891  Biso   1.000  C
  C29      1.0000 0.53170  0.40061  0.83081  Biso   1.000  C
  H22      1.0000 0.60129  0.44910  0.78621  Biso   1.000  H
  C30      1.0000 0.40418  0.40702  0.81230  Biso   1.000  C
  H23      1.0000 0.38981  0.45961  0.75140  Biso   1.000  H
  C31      1.0000 0.17294  0.85897  0.11649  Biso   1.000  C
  H24      1.0000 0.27452  0.88297  0.07801  Biso   1.000  H
  H25      1.0000 0.20368  0.95758  0.11051  Biso   1.000  H
  C32      1.0000 0.45582  0.38397  0.84170  Biso   1.000  C
  H26      1.0000 0.56769  0.38479  0.85190  Biso   1.000  H
  H27      1.0000 0.35328  0.39809  0.81911  Biso   1.000  H
  C33      1.0000 0.20950  0.77349  0.10050  Biso   1.000  C
  C34      1.0000 0.08542  0.89960  0.14041  Biso   1.000  C
  C35      1.0000 0.43691  0.34411  0.88579  Biso   1.000  C
  C36      1.0000 0.15030  0.73809  0.11000  Biso   1.000  C
  C37      1.0000 0.29970  0.73001  0.07781  Biso   1.000  C
  C38      1.0000 0.03109  0.86300  0.14810  Biso   1.000  C
  C39      1.0000 0.05671  0.98809  0.15729  Biso   1.000  C
  N2       1.0000 0.48078  0.32491  0.91420  Biso   1.000  N
  H28      1.0000 0.38749  0.33260  0.89270  Biso   1.000  H
  C40      1.0000 0.17547  0.65652  0.09220  Biso   1.000  C
  C41      1.0000 0.06123  0.78279  0.13361  Biso   1.000  C
  H29      1.0000 0.31942  0.67079  0.08591  Biso   1.000  H
  H30      1.0000 0.33429  0.75032  0.08951  Biso   1.000  H
  C42      1.0000 0.31790  0.73829  0.02861  Biso   1.000  C
  C43      1.0000 0.94111  0.90380  0.17631  Biso   1.000  C
  H31      1.0000 0.01072  0.99919  0.18570  Biso   1.000  H
  H32      1.0000 0.10680  0.99167  0.16399  Biso   1.000  H
  C44      1.0000 0.02208  0.05320  0.12088  Biso   1.000  C
  C45      1.0000 0.46057  0.28050  0.95761  Biso   1.000  C
  N3       1.0000 0.19349  0.58948  0.12949  Biso   1.000  N
  H33      1.0000 0.22821  0.64228  0.06709  Biso   1.000  H
  H34      1.0000 0.12831  0.65839  0.07961  Biso   1.000  H
  C46      1.0000 0.99759  0.74260  0.14222  Biso   1.000  C
  H35      1.0000 0.38052  0.70807  0.01599  Biso   1.000  H
  H36      1.0000 0.29918  0.79671  0.02021  Biso   1.000  H
  H37      1.0000 0.28640  0.71582  0.01650  Biso   1.000  H
  N4       1.0000 0.91390  0.92657  0.22520  Biso   1.000  N
  H38      1.0000 0.91291  0.86842  0.17399  Biso   1.000  H
  H39      1.0000 0.91238  0.95558  0.15991  Biso   1.000  H
  H40      1.0000 0.96920  0.05316  0.11629  Biso   1.000  H
  H41      1.0000 0.00889  0.10780  0.13099  Biso   1.000  H
  H42      1.0000 0.06629  0.04007  0.09220  Biso   1.000  H
  C47      1.0000 0.39036  0.25123  0.96170  Biso   1.000  C
  H43      1.0000 0.44273  0.31758  0.98340  Biso   1.000  H
  H44      1.0000 0.51481  0.23202  0.96102  Biso   1.000  H
  C48      1.0000 0.26714  0.54417  0.13460  Biso   1.000  C
  H45      1.0000 0.03101  0.68213  0.14429  Biso   1.000  H
  H46      1.0000 0.95612  0.76163  0.17188  Biso   1.000  H
  C49      1.0000 0.94712  0.76119  0.10619  Biso   1.000  C
  C50      1.0000 0.95628  0.88582  0.25238  Biso   1.000  C
  C51      1.0000 0.41417  0.17012  0.94571  Biso   1.000  C
  C52      1.0000 0.30621  0.29897  0.98361  Biso   1.000  C
  C53      1.0000 0.28464  0.48007  0.16930  Biso   1.000  C
  H47      1.0000 0.31488  0.55153  0.11490  Biso   1.000  H
  H48      1.0000 0.90582  0.73659  0.11500  Biso   1.000  H
  H49      1.0000 0.98719  0.73809  0.07710  Biso   1.000  H
  H50      1.0000 0.91529  0.82101  0.10289  Biso   1.000  H
  H51      1.0000 0.00710  0.83588  0.24412  Biso   1.000  H
  C54      1.0000 0.92378  0.91890  0.30019  Biso   1.000  C
  C55      1.0000 0.35268  0.14162  0.95139  Biso   1.000  C
  C56      1.0000 0.50517  0.12163  0.92039  Biso   1.000  C
  C57      1.0000 0.24128  0.26939  0.98810  Biso   1.000  C
  C58      1.0000 0.28252  0.38467  0.00161  Biso   1.000  C
  C59      1.0000 0.21816  0.46273  0.19699  Biso   1.000  C
  C60      1.0000 0.36841  0.43881  0.17610  Biso   1.000  C
  C61      1.0000 0.86290  0.98703  0.32632  Biso   1.000  C
  C62      1.0000 0.98651  0.85451  0.31910  Biso   1.000  C
  C63      1.0000 0.37500  0.05517  0.93771  Biso   1.000  C
  C64      1.0000 0.26053  0.19169  0.97439  Biso   1.000  C
  H52      1.0000 0.52858  0.16011  0.90341  Biso   1.000  H
  H53      1.0000 0.50519  0.08652  0.89800  Biso   1.000  H
  C65      1.0000 0.56918  0.06341  0.95309  Biso   1.000  C
  C66      1.0000 0.14593  0.32564  0.00929  Biso   1.000  C
  H54      1.0000 0.32159  0.40773  0.98221  Biso   1.000  H
  H55      1.0000 0.22213  0.42264  0.00001  Biso   1.000  H
  C67      1.0000 0.29103  0.37848  0.05111  Biso   1.000  C
  C68      1.0000 0.23557  0.40411  0.23149  Biso   1.000  C
  H56      1.0000 0.16088  0.49090  0.19230  Biso   1.000  H
  C69      1.0000 0.38578  0.38019  0.21070  Biso   1.000  C
  H57      1.0000 0.41372  0.45071  0.15719  Biso   1.000  H
  C70      1.0000 0.86459  0.99083  0.37140  Biso   1.000  C
  H58      1.0000 0.82000  0.03098  0.31339  Biso   1.000  H
  H59      1.0000 0.02821  0.80799  0.30121  Biso   1.000  H
  C71      1.0000 0.98820  0.85837  0.36411  Biso   1.000  C
  N5       1.0000 0.34891  0.05798  0.89549  Biso   1.000  N
  H60      1.0000 0.43832  0.02081  0.93339  Biso   1.000  H
  H61      1.0000 0.34462  0.02987  0.96221  Biso   1.000  H
  C72      1.0000 0.19637  0.16081  0.97871  Biso   1.000  C
  H62      1.0000 0.62750  0.03212  0.93451  Biso   1.000  H
  H63      1.0000 0.54647  0.02511  0.97020  Biso   1.000  H
  H64      1.0000 0.57202  0.09792  0.97439  Biso   1.000  H
  N6       1.0000 0.11338  0.39620  0.97881  Biso   1.000  N
  H65      1.0000 0.11049  0.29439  0.01409  Biso   1.000  H
  H66      1.0000 0.14135  0.34535  0.03920  Biso   1.000  H
  H67      1.0000 0.27952  0.43258  0.06101  Biso   1.000  H
  H68      1.0000 0.34991  0.33877  0.05301  Biso   1.000  H
  H69      1.0000 0.24893  0.36009  0.07071  Biso   1.000  H
  C73      1.0000 0.31939  0.36278  0.23840  Biso   1.000  C
  H70      1.0000 0.19022  0.39221  0.25051  Biso   1.000  H
  H71      1.0000 0.44312  0.35190  0.21540  Biso   1.000  H
  C74      1.0000 0.92728  0.92650  0.39021  Biso   1.000  C
  H72      1.0000 0.82290  0.03741  0.38919  Biso   1.000  H
  H73      1.0000 0.03111  0.81442  0.37701  Biso   1.000  H
  C75      1.0000 0.40751  0.01662  0.86361  Biso   1.000  C
  H74      1.0000 0.21791  0.11839  0.95530  Biso   1.000  H
  H75      1.0000 0.14238  0.20650  0.97269  Biso   1.000  H
  C76      1.0000 0.17512  0.12337  0.02542  Biso   1.000  C
  C77      1.0000 0.04712  0.40891  0.96309  Biso   1.000  C
  C78      1.0000 0.33542  0.29342  0.27480  Biso   1.000  C
  C79      1.0000 0.92148  0.94000  0.43730  Biso   1.000  C
  C80      1.0000 0.38780  0.01662  0.81989  Biso   1.000  C
  H76      1.0000 0.46495  0.98501  0.86769  Biso   1.000  H
  H77      1.0000 0.13124  0.10389  0.02610  Biso   1.000  H
  H78      1.0000 0.15253  0.16530  0.04880  Biso   1.000  H
  H79      1.0000 0.22781  0.07694  0.03131  Biso   1.000  H
  H80      1.0000 0.01929  0.37327  0.97241  Biso   1.000  H
  C81      1.0000 0.01310  0.47803  0.93070  Biso   1.000  C
  C82      1.0000 0.29597  0.24292  0.27759  Biso   1.000  C
  C83      1.0000 0.38950  0.28618  0.30209  Biso   1.000  C
  C84      1.0000 0.96780  0.87427  0.46271  Biso   1.000  C
  C85      1.0000 0.87417  0.01838  0.45431  Biso   1.000  C
  C86      1.0000 0.30601  0.06471  0.81029  Biso   1.000  C
  C87      1.0000 0.45510  0.96274  0.78529  Biso   1.000  C
  C88      1.0000 0.04950  0.53488  0.92029  Biso   1.000  C
  C89      1.0000 0.95587  0.48712  0.91001  Biso   1.000  C
  C90      1.0000 0.31310  0.17672  0.30859  Biso   1.000  C
  H81      1.0000 0.25740  0.25241  0.25871  Biso   1.000  H
  C91      1.0000 0.39812  0.22627  0.33679  Biso   1.000  C
  H82      1.0000 0.41937  0.32002  0.29760  Biso   1.000  H
  H83      1.0000 0.00078  0.82070  0.45009  Biso   1.000  H
  C92      1.0000 0.96501  0.88808  0.50620  Biso   1.000  C
  C93      1.0000 0.87201  0.02986  0.50051  Biso   1.000  C
  H84      1.0000 0.84420  0.06317  0.43621  Biso   1.000  H
  C94      1.0000 0.29379  0.06357  0.76831  Biso   1.000  C
  H85      1.0000 0.25909  0.09820  0.83340  Biso   1.000  H
  C95      1.0000 0.43960  0.96043  0.74361  Biso   1.000  C
  H86      1.0000 0.51072  0.92833  0.79121  Biso   1.000  H
  H87      1.0000 0.09133  0.52937  0.93631  Biso   1.000  H
  C96      1.0000 0.02969  0.59688  0.88919  Biso   1.000  C
  C97      1.0000 0.92821  0.55070  0.87691  Biso   1.000  C
  H88      1.0000 0.93012  0.44968  0.91668  Biso   1.000  H
  C98      1.0000 0.35699  0.17351  0.34200  Biso   1.000  C
  H89      1.0000 0.29562  0.13467  0.30709  Biso   1.000  H
  H90      1.0000 0.43258  0.22118  0.35721  Biso   1.000  H
  C99      1.0000 0.91960  0.96608  0.52729  Biso   1.000  C
  H91      1.0000 0.99549  0.84220  0.52351  Biso   1.000  H
  H92      1.0000 0.83667  0.08300  0.51341  Biso   1.000  H
  C100     1.0000 0.36120  0.00470  0.73401  Biso   1.000  C
  H93      1.0000 0.24061  0.10158  0.76099  Biso   1.000  H
  H94      1.0000 0.48615  0.92619  0.72071  Biso   1.000  H
  H95      1.0000 0.06000  0.63053  0.88140  Biso   1.000  H
  C101     1.0000 0.96429  0.60817  0.87011  Biso   1.000  C
  H96      1.0000 0.88791  0.55418  0.86041  Biso   1.000  H
  B3       1.0000 0.36991  0.10263  0.38068  Biso   1.000  B
  B4       1.0000 0.91400  0.98210  0.57479  Biso   1.000  B
  C102     1.0000 0.34911  0.00473  0.68829  Biso   1.000  C
  C103     1.0000 0.93403  0.67908  0.83721  Biso   1.000  C
  O5       1.0000 0.41250  0.09502  0.41147  Biso   1.000  O
  O6       1.0000 0.32930  0.05388  0.37800  Biso   1.000  O
  O7       1.0000 0.96911  0.92158  0.59840  Biso   1.000  O
  O8       1.0000 0.85319  0.05717  0.59459  Biso   1.000  O
  C104     1.0000 0.29643  0.08329  0.66549  Biso   1.000  C
  C105     1.0000 0.38223  0.93620  0.66399  Biso   1.000  C
  C106     1.0000 0.93107  0.75361  0.84500  Biso   1.000  C
  C107     1.0000 0.91751  0.67299  0.79621  Biso   1.000  C
  C108     1.0000 0.42741  0.02382  0.44029  Biso   1.000  C
  C109     1.0000 0.33443  0.98855  0.41290  Biso   1.000  C
  C110     1.0000 0.96290  0.93883  0.64600  Biso   1.000  C
  C111     1.0000 0.84389  0.07317  0.63950  Biso   1.000  C
  C112     1.0000 0.29139  0.08167  0.62249  Biso   1.000  C
  H97      1.0000 0.26678  0.13372  0.68169  Biso   1.000  H
  C113     1.0000 0.37460  0.93519  0.62160  Biso   1.000  C
  H98      1.0000 0.41292  0.88514  0.67781  Biso   1.000  H
  C114     1.0000 0.90790  0.82168  0.81621  Biso   1.000  C
  H99      1.0000 0.94601  0.75883  0.87191  Biso   1.000  H
  C115     1.0000 0.89388  0.73972  0.76630  Biso   1.000  C
  H100     1.0000 0.92230  0.62181  0.78821  Biso   1.000  H
  C116     1.0000 0.35130  0.00047  0.45462  Biso   1.000  C
  H101     1.0000 0.44083  0.03370  0.46799  Biso   1.000  H
  H102     1.0000 0.47908  0.97665  0.42430  Biso   1.000  H
  H103     1.0000 0.27884  0.98362  0.42029  Biso   1.000  H
  H104     1.0000 0.38084  0.93560  0.39960  Biso   1.000  H
  H105     1.0000 0.00189  0.96451  0.64600  Biso   1.000  H
  C117     1.0000 0.86920  0.99652  0.66961  Biso   1.000  C
  H106     1.0000 0.98237  0.88629  0.66321  Biso   1.000  H
  H107     1.0000 0.78261  0.11116  0.65209  Biso   1.000  H
  H108     1.0000 0.88008  0.10150  0.64042  Biso   1.000  H
  C118     1.0000 0.33272  0.00638  0.59751  Biso   1.000  C
  H109     1.0000 0.25981  0.13169  0.60820  Biso   1.000  H
  H110     1.0000 0.39881  0.88350  0.60721  Biso   1.000  H
  C119     1.0000 0.89210  0.81522  0.77539  Biso   1.000  C
  H111     1.0000 0.90309  0.87261  0.82479  Biso   1.000  H
  H112     1.0000 0.87889  0.73438  0.73949  Biso   1.000  H
  C120     1.0000 0.27161  0.07388  0.48170  Biso   1.000  C
  C121     1.0000 0.37113  0.92293  0.48269  Biso   1.000  C
  C122     1.0000 0.81190  0.95533  0.67570  Biso   1.000  C
  C123     1.0000 0.86760  0.01815  0.71319  Biso   1.000  C
  B5       1.0000 0.32942  0.00578  0.54900  Biso   1.000  B
  B6       1.0000 0.86412  0.88902  0.73929  Biso   1.000  B
  O9       1.0000 0.28091  0.07701  0.52640  Biso   1.000  O
  H113     1.0000 0.26610  0.12621  0.46550  Biso   1.000  H
  H114     1.0000 0.21799  0.06769  0.48360  Biso   1.000  H
  O10      1.0000 0.37222  0.93162  0.52640  Biso   1.000  O
  H115     1.0000 0.32723  0.90271  0.48340  Biso   1.000  H
  H116     1.0000 0.42848  0.88043  0.46772  Biso   1.000  H
  O11      1.0000 0.83127  0.88762  0.70880  Biso   1.000  O
  H117     1.0000 0.75083  0.99618  0.68591  Biso   1.000  H
  H118     1.0000 0.81811  0.93359  0.64600  Biso   1.000  H
  O12      1.0000 0.88629  0.95049  0.74738  Biso   1.000  O
  H119     1.0000 0.80956  0.06267  0.72541  Biso   1.000  H
  H120     1.0000 0.91060  0.04088  0.70941  Biso   1.000  H
  O13      1.0000 0.40488  0.33373  0.55151  Biso   1.000  O
  C124     1.0000 0.36134  0.36337  0.51429  Biso   1.000  C
  B7       1.0000 0.41482  0.25641  0.57380  Biso   1.000  B
  C125     1.0000 0.36141  0.29822  0.49071  Biso   1.000  C
  H121     1.0000 0.30043  0.40309  0.52630  Biso   1.000  H
  H122     1.0000 0.38999  0.39331  0.49221  Biso   1.000  H
  O14      1.0000 0.37971  0.21469  0.55982  Biso   1.000  O
  C126     1.0000 0.45320  0.22988  0.61279  Biso   1.000  C
  C127     1.0000 0.29902  0.33388  0.45819  Biso   1.000  C
  C128     1.0000 0.45291  0.24921  0.45979  Biso   1.000  C
  C129     1.0000 0.33619  0.24061  0.52419  Biso   1.000  C
  C130     1.0000 0.44692  0.16580  0.64208  Biso   1.000  C
  C131     1.0000 0.50281  0.26692  0.62269  Biso   1.000  C
  O15      1.0000 0.32369  0.38142  0.42280  Biso   1.000  O
  H123     1.0000 0.23987  0.36833  0.47591  Biso   1.000  H
  H124     1.0000 0.29660  0.28790  0.44509  Biso   1.000  H
  O16      1.0000 0.47762  0.29700  0.42420  Biso   1.000  O
  H125     1.0000 0.45311  0.20181  0.44669  Biso   1.000  H
  H126     1.0000 0.49628  0.22733  0.47870  Biso   1.000  H
  H127     1.0000 0.34781  0.19142  0.50779  Biso   1.000  H
  H128     1.0000 0.27281  0.26823  0.53750  Biso   1.000  H
  H129     1.0000 0.41617  0.13762  0.63650  Biso   1.000  H
  C132     1.0000 0.48478  0.14250  0.67971  Biso   1.000  C
  C133     1.0000 0.53971  0.23980  0.66331  Biso   1.000  C
  H130     1.0000 0.51217  0.30883  0.60340  Biso   1.000  H
  B8       1.0000 0.41290  0.35860  0.40600  Biso   1.000  B
  H131     1.0000 0.47927  0.09850  0.69860  Biso   1.000  H
  C134     1.0000 0.52910  0.18058  0.68999  Biso   1.000  C
  H132     1.0000 0.57159  0.26562  0.67029  Biso   1.000  H
  C135     1.0000 0.43382  0.41830  0.36599  Biso   1.000  C
  C136     1.0000 0.56789  0.15442  0.72922  Biso   1.000  C
  C137     1.0000 0.37330  0.47107  0.34149  Biso   1.000  C
  C138     1.0000 0.51611  0.40247  0.34700  Biso   1.000  C
  C139     1.0000 0.60198  0.07060  0.74619  Biso   1.000  C
  C140     1.0000 0.57501  0.20871  0.75388  Biso   1.000  C
  C141     1.0000 0.39583  0.51058  0.30379  Biso   1.000  C
  H133     1.0000 0.31452  0.47940  0.35170  Biso   1.000  H
  C142     1.0000 0.53767  0.44502  0.30461  Biso   1.000  C
  H134     1.0000 0.56111  0.36380  0.36071  Biso   1.000  H
  H135     1.0000 0.59679  0.03037  0.73139  Biso   1.000  H
  C143     1.0000 0.64121  0.04529  0.78219  Biso   1.000  C
  C144     1.0000 0.61068  0.18732  0.79090  Biso   1.000  C
  H136     1.0000 0.55357  0.26493  0.74459  Biso   1.000  H
  C145     1.0000 0.48238  0.49722  0.28481  Biso   1.000  C
  H137     1.0000 0.35170  0.54890  0.28940  Biso   1.000  H
  H138     1.0000 0.59718  0.43199  0.29151  Biso   1.000  H
  C146     1.0000 0.65379  0.10198  0.80311  Biso   1.000  C
  H139     1.0000 0.65952  0.98991  0.79281  Biso   1.000  H
  H140     1.0000 0.60698  0.22892  0.80859  Biso   1.000  H
  C147     1.0000 0.49922  0.53878  0.24258  Biso   1.000  C
  C148     1.0000 0.70227  0.07772  0.83860  Biso   1.000  C
  C149     1.0000 0.44800  0.56227  0.20829  Biso   1.000  C
  C150     1.0000 0.57278  0.55590  0.22829  Biso   1.000  C
  N7       1.0000 0.70990  0.13018  0.85871  Biso   1.000  N
  H141     1.0000 0.72879  0.02110  0.84670  Biso   1.000  H
  C151     1.0000 0.46828  0.59940  0.16920  Biso   1.000  C
  H142     1.0000 0.39868  0.55091  0.21380  Biso   1.000  H
  H143     1.0000 0.61017  0.54040  0.24861  Biso   1.000  H
  C152     1.0000 0.59579  0.59299  0.18771  Biso   1.000  C
  C153     1.0000 0.76340  0.10308  0.89110  Biso   1.000  C
  C154     1.0000 0.54419  0.61597  0.15831  Biso   1.000  C
  H144     1.0000 0.43228  0.61522  0.14810  Biso   1.000  H
  H145     1.0000 0.64669  0.60192  0.18090  Biso   1.000  H
  C155     1.0000 0.82712  0.14098  0.88351  Biso   1.000  C
  H146     1.0000 0.72554  0.11698  0.92199  Biso   1.000  H
  H147     1.0000 0.79630  0.04243  0.88950  Biso   1.000  H
  C156     1.0000 0.56307  0.65590  0.11422  Biso   1.000  C
  C157     1.0000 0.79047  0.22652  0.89950  Biso   1.000  C
  C158     1.0000 0.91461  0.10041  0.85959  Biso   1.000  C
  N8       1.0000 0.51919  0.67510  0.08581  Biso   1.000  N
  H148     1.0000 0.61249  0.66741  0.10731  Biso   1.000  H
  C159     1.0000 0.84968  0.26192  0.89001  Biso   1.000  C
  C160     1.0000 0.70028  0.27000  0.92220  Biso   1.000  C
  C161     1.0000 0.96889  0.13701  0.85190  Biso   1.000  C
  C162     1.0000 0.94328  0.01192  0.84268  Biso   1.000  C
  C163     1.0000 0.53940  0.71951  0.04239  Biso   1.000  C
  C164     1.0000 0.93881  0.21722  0.86640  Biso   1.000  C
  C165     1.0000 0.82451  0.34350  0.90780  Biso   1.000  C
  H149     1.0000 0.68061  0.32922  0.91410  Biso   1.000  H
  H150     1.0000 0.66569  0.24969  0.91049  Biso   1.000  H
  C166     1.0000 0.68208  0.26172  0.97139  Biso   1.000  C
  C167     1.0000 0.05887  0.09621  0.82370  Biso   1.000  C
  H151     1.0000 0.98926  0.00082  0.81431  Biso   1.000  H
  H152     1.0000 0.89321  0.00828  0.83601  Biso   1.000  H
  C168     1.0000 0.97792  0.94681  0.87909  Biso   1.000  C
  C169     1.0000 0.60961  0.74878  0.03831  Biso   1.000  C
  H153     1.0000 0.55734  0.68237  0.01660  Biso   1.000  H
  H154     1.0000 0.48522  0.76799  0.03899  Biso   1.000  H
  C170     1.0000 0.00239  0.25741  0.85779  Biso   1.000  C
  N9       1.0000 0.80651  0.41047  0.87051  Biso   1.000  N
  H155     1.0000 0.77180  0.35767  0.93291  Biso   1.000  H
  H156     1.0000 0.87172  0.34162  0.92039  Biso   1.000  H
  H157     1.0000 0.61949  0.29188  0.98402  Biso   1.000  H
  H158     1.0000 0.70079  0.20330  0.97980  Biso   1.000  H
  H159     1.0000 0.71358  0.28419  0.98350  Biso   1.000  H
  N10      1.0000 0.08610  0.07338  0.77481  Biso   1.000  N
  H160     1.0000 0.08712  0.13160  0.82601  Biso   1.000  H
  H161     1.0000 0.08762  0.04437  0.84010  Biso   1.000  H
  H162     1.0000 0.99110  0.89221  0.86898  Biso   1.000  H
  H163     1.0000 0.93369  0.95994  0.90780  Biso   1.000  H
  H164     1.0000 0.03081  0.94679  0.88372  Biso   1.000  H
  C171     1.0000 0.58580  0.82990  0.05430  Biso   1.000  C
  C172     1.0000 0.69379  0.70098  0.01640  Biso   1.000  C
  H165     1.0000 0.96902  0.31788  0.85571  Biso   1.000  H
  H166     1.0000 0.04393  0.23838  0.82809  Biso   1.000  H
  C173     1.0000 0.05293  0.23882  0.89379  Biso   1.000  C
  C174     1.0000 0.73292  0.45578  0.86541  Biso   1.000  C
  C175     1.0000 0.04371  0.11419  0.74759  Biso   1.000  C
  C176     1.0000 0.64731  0.85839  0.04858  Biso   1.000  C
  C177     1.0000 0.49480  0.87838  0.07961  Biso   1.000  C
  C178     1.0000 0.75869  0.73062  0.01191  Biso   1.000  C
  C179     1.0000 0.71746  0.61534  0.99840  Biso   1.000  C
  H167     1.0000 0.09421  0.26342  0.88501  Biso   1.000  H
  H168     1.0000 0.01279  0.26192  0.92291  Biso   1.000  H
  H169     1.0000 0.08470  0.17900  0.89709  Biso   1.000  H
  C180     1.0000 0.71542  0.51988  0.83071  Biso   1.000  C
  H170     1.0000 0.68510  0.44848  0.88511  Biso   1.000  H
  H171     1.0000 0.99291  0.16407  0.75589  Biso   1.000  H
  C181     1.0000 0.07621  0.08111  0.69979  Biso   1.000  C
  C182     1.0000 0.73952  0.80832  0.02559  Biso   1.000  C
  C183     1.0000 0.62501  0.94478  0.06230  Biso   1.000  C
  H172     1.0000 0.47139  0.83990  0.09659  Biso   1.000  H
  H173     1.0000 0.49479  0.91349  0.10200  Biso   1.000  H
  C184     1.0000 0.43081  0.93660  0.04688  Biso   1.000  C
  C185     1.0000 0.85409  0.67430  0.99068  Biso   1.000  C
  H174     1.0000 0.67839  0.59228  0.01779  Biso   1.000  H
  H175     1.0000 0.77787  0.57730  0.00000  Biso   1.000  H
  C186     1.0000 0.70895  0.62154  0.94890  Biso   1.000  C
  C187     1.0000 0.78181  0.53728  0.80301  Biso   1.000  C
  C188     1.0000 0.63162  0.56121  0.82390  Biso   1.000  C
  C189     1.0000 0.13713  0.01298  0.67369  Biso   1.000  C
  C190     1.0000 0.01352  0.14550  0.68090  Biso   1.000  C
  C191     1.0000 0.80360  0.83920  0.02130  Biso   1.000  C
  N11      1.0000 0.65111  0.94197  0.10448  Biso   1.000  N
  H176     1.0000 0.56172  0.97920  0.06658  Biso   1.000  H
  H177     1.0000 0.65539  0.97008  0.03780  Biso   1.000  H
  H178     1.0000 0.37253  0.96789  0.06549  Biso   1.000  H
  H179     1.0000 0.45350  0.97490  0.02980  Biso   1.000  H
  H180     1.0000 0.42803  0.90209  0.02559  Biso   1.000  H
  N12      1.0000 0.88659  0.60381  0.02120  Biso   1.000  N
  H181     1.0000 0.88950  0.70562  0.98588  Biso   1.000  H
  H182     1.0000 0.85871  0.65460  0.96081  Biso   1.000  H
  H183     1.0000 0.72046  0.56743  0.93900  Biso   1.000  H
  H184     1.0000 0.65007  0.66124  0.94699  Biso   1.000  H
  H185     1.0000 0.75110  0.63992  0.92930  Biso   1.000  H
  C192     1.0000 0.76440  0.59590  0.76851  Biso   1.000  C
  H186     1.0000 0.83910  0.50911  0.80771  Biso   1.000  H
  H187     1.0000 0.58632  0.54931  0.84279  Biso   1.000  H
  C193     1.0000 0.61420  0.61982  0.78930  Biso   1.000  C
  H188     1.0000 0.17999  0.96903  0.68659  Biso   1.000  H
  C194     1.0000 0.13539  0.00918  0.62861  Biso   1.000  C
  H189     1.0000 0.97177  0.19202  0.69880  Biso   1.000  H
  C195     1.0000 0.01181  0.14158  0.63589  Biso   1.000  C
  H190     1.0000 0.78207  0.88162  0.04471  Biso   1.000  H
  H191     1.0000 0.85761  0.79351  0.02729  Biso   1.000  H
  C196     1.0000 0.82491  0.87664  0.97458  Biso   1.000  C
  C197     1.0000 0.59252  0.98339  0.13640  Biso   1.000  C
  C198     1.0000 0.95291  0.59110  0.03692  Biso   1.000  C
  C199     1.0000 0.68059  0.63723  0.76161  Biso   1.000  C
  H192     1.0000 0.80981  0.60780  0.74949  Biso   1.000  H
  H193     1.0000 0.55691  0.64811  0.78461  Biso   1.000  H
  H194     1.0000 0.17713  0.96260  0.61082  Biso   1.000  H
  C200     1.0000 0.07270  0.07351  0.60980  Biso   1.000  C
  H195     1.0000 0.96892  0.18559  0.62300  Biso   1.000  H
  H196     1.0000 0.86880  0.89612  0.97390  Biso   1.000  H
  H197     1.0000 0.84751  0.83471  0.95121  Biso   1.000  H
  H198     1.0000 0.77219  0.92301  0.96870  Biso   1.000  H
  C201     1.0000 0.61219  0.98339  0.18008  Biso   1.000  C
  H199     1.0000 0.53509  0.01500  0.13232  Biso   1.000  H
  H200     1.0000 0.98071  0.62668  0.02759  Biso   1.000  H
  C202     1.0000 0.98688  0.52199  0.06930  Biso   1.000  C
  C203     1.0000 0.66462  0.70659  0.72520  Biso   1.000  C
  C204     1.0000 0.07850  0.06001  0.56271  Biso   1.000  C
  C205     1.0000 0.69402  0.93530  0.18971  Biso   1.000  C
  C206     1.0000 0.54489  0.03727  0.21469  Biso   1.000  C
  C207     1.0000 0.95050  0.46507  0.07972  Biso   1.000  C
  C208     1.0000 0.04411  0.51289  0.08999  Biso   1.000  C
  C209     1.0000 0.70400  0.75710  0.72241  Biso   1.000  C
  C210     1.0000 0.61048  0.71383  0.69792  Biso   1.000  C
  C211     1.0000 0.12581  0.98163  0.54570  Biso   1.000  C
  C212     1.0000 0.03221  0.12568  0.53729  Biso   1.000  C
  C213     1.0000 0.70621  0.93638  0.23170  Biso   1.000  C
  H201     1.0000 0.74089  0.90181  0.16661  Biso   1.000  H
  H202     1.0000 0.48931  0.07168  0.20880  Biso   1.000  H
  C214     1.0000 0.56038  0.03958  0.25640  Biso   1.000  C
  H203     1.0000 0.90873  0.47058  0.06369  Biso   1.000  H
  C215     1.0000 0.97029  0.40313  0.11081  Biso   1.000  C
  C216     1.0000 0.07177  0.44931  0.12310  Biso   1.000  C
  H204     1.0000 0.06990  0.55027  0.08329  Biso   1.000  H
  C217     1.0000 0.68687  0.82329  0.69142  Biso   1.000  C
  H205     1.0000 0.74258  0.74760  0.74129  Biso   1.000  H
  C218     1.0000 0.60188  0.77368  0.66321  Biso   1.000  C
  H206     1.0000 0.58060  0.67999  0.70241  Biso   1.000  H
  C219     1.0000 0.12802  0.97015  0.49949  Biso   1.000  C
  H207     1.0000 0.15583  0.93684  0.56380  Biso   1.000  H
  C220     1.0000 0.03499  0.11187  0.49381  Biso   1.000  C
  H208     1.0000 0.99920  0.17931  0.54991  Biso   1.000  H
  C221     1.0000 0.63878  0.99531  0.26599  Biso   1.000  C
  H209     1.0000 0.75937  0.89843  0.23901  Biso   1.000  H
  H210     1.0000 0.51391  0.07376  0.27930  Biso   1.000  H
  H211     1.0000 0.94003  0.36948  0.11860  Biso   1.000  H
  C222     1.0000 0.03571  0.39178  0.12990  Biso   1.000  C
  H212     1.0000 0.11207  0.44583  0.13960  Biso   1.000  H
  C223     1.0000 0.64299  0.82650  0.65801  Biso   1.000  C
  H213     1.0000 0.70438  0.86528  0.69291  Biso   1.000  H
  H214     1.0000 0.56739  0.77883  0.64280  Biso   1.000  H
  C224     1.0000 0.08037  0.03393  0.47272  Biso   1.000  C
  H215     1.0000 0.16330  0.91701  0.48660  Biso   1.000  H
  H216     1.0000 0.00448  0.15781  0.47649  Biso   1.000  H
  C225     1.0000 0.65094  0.99528  0.31169  Biso   1.000  C
  C226     1.0000 0.06603  0.32087  0.16280  Biso   1.000  C
  B9       1.0000 0.63014  0.89738  0.61929  Biso   1.000  B
  B10      1.0000 0.08599  0.01791  0.42519  Biso   1.000  B
  C227     1.0000 0.70360  0.91672  0.33451  Biso   1.000  C
  C228     1.0000 0.61775  0.06381  0.33601  Biso   1.000  C
  C229     1.0000 0.06890  0.24640  0.15501  Biso   1.000  C
  C230     1.0000 0.08252  0.32702  0.20380  Biso   1.000  C
  O17      1.0000 0.58753  0.90499  0.58853  Biso   1.000  O
  O18      1.0000 0.67069  0.94613  0.62198  Biso   1.000  O
  O19      1.0000 0.14680  0.94284  0.40538  Biso   1.000  O
  O20      1.0000 0.03089  0.07837  0.40161  Biso   1.000  O
  C231     1.0000 0.70863  0.91828  0.37749  Biso   1.000  C
  H217     1.0000 0.73321  0.86629  0.31829  Biso   1.000  H
  H218     1.0000 0.58712  0.11487  0.32220  Biso   1.000  H
  C232     1.0000 0.62540  0.06476  0.37840  Biso   1.000  C
  H219     1.0000 0.05402  0.24118  0.12810  Biso   1.000  H
  C233     1.0000 0.09210  0.17827  0.18379  Biso   1.000  C
  C234     1.0000 0.10610  0.26029  0.23370  Biso   1.000  C
  H220     1.0000 0.07768  0.37820  0.21179  Biso   1.000  H
  C235     1.0000 0.57262  0.97619  0.55971  Biso   1.000  C
  C236     1.0000 0.66561  0.01146  0.58710  Biso   1.000  C
  C237     1.0000 0.15608  0.92684  0.36051  Biso   1.000  C
  C238     1.0000 0.03707  0.06119  0.35401  Biso   1.000  C
  C239     1.0000 0.66731  0.99363  0.40249  Biso   1.000  C
  H221     1.0000 0.74017  0.86832  0.39181  Biso   1.000  H
  H222     1.0000 0.60120  0.11645  0.39280  Biso   1.000  H
  H223     1.0000 0.09690  0.12741  0.17518  Biso   1.000  H
  C240     1.0000 0.10789  0.18479  0.22459  Biso   1.000  C
  H224     1.0000 0.12109  0.26563  0.26051  Biso   1.000  H
  C241     1.0000 0.64871  0.99948  0.54539  Biso   1.000  C
  H225     1.0000 0.55922  0.96631  0.53198  Biso   1.000  H
  H226     1.0000 0.52089  0.02336  0.57570  Biso   1.000  H
  H227     1.0000 0.72121  0.01639  0.57969  Biso   1.000  H
  H228     1.0000 0.61919  0.06441  0.60041  Biso   1.000  H
  C242     1.0000 0.13078  0.00349  0.33040  Biso   1.000  C
  H229     1.0000 0.21741  0.88879  0.34789  Biso   1.000  H
  H230     1.0000 0.11990  0.89851  0.35959  Biso   1.000  H
  H231     1.0000 0.99809  0.03550  0.35401  Biso   1.000  H
  H232     1.0000 0.01761  0.11372  0.33679  Biso   1.000  H
  B11      1.0000 0.67061  0.99423  0.45101  Biso   1.000  B
  B12      1.0000 0.13593  0.11099  0.26068  Biso   1.000  B
  C243     1.0000 0.72837  0.92613  0.51831  Biso   1.000  C
  C244     1.0000 0.62891  0.07708  0.51729  Biso   1.000  C
  C245     1.0000 0.13240  0.98180  0.28681  Biso   1.000  C
  C246     1.0000 0.18813  0.04468  0.32431  Biso   1.000  C
  O21      1.0000 0.71913  0.92300  0.47360  Biso   1.000  O
  O22      1.0000 0.62776  0.06839  0.47360  Biso   1.000  O
  O23      1.0000 0.11371  0.04953  0.25259  Biso   1.000  O
  O24      1.0000 0.16871  0.11239  0.29120  Biso   1.000  O
  H233     1.0000 0.73388  0.87380  0.53450  Biso   1.000  H
  H234     1.0000 0.78198  0.93232  0.51640  Biso   1.000  H
  H235     1.0000 0.67280  0.09730  0.51661  Biso   1.000  H
  H236     1.0000 0.57150  0.11958  0.53229  Biso   1.000  H
  H237     1.0000 0.19042  0.93734  0.27460  Biso   1.000  H
  H238     1.0000 0.08943  0.95913  0.29059  Biso   1.000  H
  H239     1.0000 0.24920  0.00383  0.31410  Biso   1.000  H
  H240     1.0000 0.18187  0.06642  0.35401  Biso   1.000  H
