data_image0
_cell_length_a       17.496
_cell_length_b       10.223
_cell_length_c       17.817
_cell_angle_alpha    90
_cell_angle_beta     104.52
_cell_angle_gamma    90

_symmetry_space_group_name_H-M    "P 1"
_symmetry_int_tables_number       1

loop_
  _symmetry_equiv_pos_as_xyz
  'x, y, z'

loop_
  _atom_site_label
  _atom_site_occupancy
  _atom_site_fract_x
  _atom_site_fract_y
  _atom_site_fract_z
  _atom_site_thermal_displace_type
  _atom_site_B_iso_or_equiv
  _atom_site_type_symbol
  C1       1.0000 0.56199  0.45603  0.39750  Biso   1.000  C
  C2       1.0000 0.51288  0.34501  0.36497  Biso   1.000  C
  S1       1.0000 0.57948  0.55052  0.31598  Biso   1.000  S
  S2       1.0000 0.49401  0.24572  0.44979  Biso   1.000  S
  C3       1.0000 0.48582  0.61303  0.27331  Biso   1.000  C
  C4       1.0000 0.40962  0.16903  0.39640  Biso   1.000  C
  C5       1.0000 0.45331  0.61596  0.19591  Biso   1.000  C
  S3       1.0000 0.43489  0.69363  0.33239  Biso   1.000  S
  S4       1.0000 0.42138  0.06123  0.32091  Biso   1.000  S
  C6       1.0000 0.33821  0.18204  0.40550  Biso   1.000  C
  S5       1.0000 0.49658  0.55698  0.12517  Biso   1.000  S
  S6       1.0000 0.36502  0.70664  0.16553  Biso   1.000  S
  C7       1.0000 0.34627  0.70997  0.25887  Biso   1.000  C
  C8       1.0000 0.31987  0.06603  0.27679  Biso   1.000  C
  S7       1.0000 0.26341  0.08373  0.34311  Biso   1.000  S
  S8       1.0000 0.30791  0.28064  0.47171  Biso   1.000  S
  C9       1.0000 0.43101  0.38805  0.08998  Biso   1.000  C
  C10      1.0000 0.27843  0.71603  0.27053  Biso   1.000  C
  C11      1.0000 0.28942  0.07601  0.19828  Biso   1.000  C
  C12      1.0000 0.22580  0.36897  0.40219  Biso   1.000  C
  C13      1.0000 0.37402  0.44204  0.05102  Biso   1.000  C
  S9       1.0000 0.19000  0.72934  0.19481  Biso   1.000  S
  S10      1.0000 0.25520  0.70909  0.36132  Biso   1.000  S
  S11      1.0000 0.34380  0.08324  0.13010  Biso   1.000  S
  S12      1.0000 0.18840  0.10506  0.15990  Biso   1.000  S
  C14      1.0000 0.19442  0.46102  0.44921  Biso   1.000  C
  S13      1.0000 0.31171  0.28113  0.00238  Biso   1.000  S
  C15      1.0000 0.13383  0.64003  0.24501  Biso   1.000  C
  C16      1.0000 0.16389  0.62897  0.32358  Biso   1.000  C
  C17      1.0000 0.27818  0.20102  0.07433  Biso   1.000  C
  C18      1.0000 0.20828  0.21002  0.08778  Biso   1.000  C
  S14      1.0000 0.11439  0.55678  0.38602  Biso   1.000  S
  S15      1.0000 0.04218  0.58026  0.19521  Biso   1.000  S
  S16      1.0000 0.13157  0.31322  0.04209  Biso   1.000  S
  C19      1.0000 0.06302  0.50005  0.10981  Biso   1.000  C
  C20      1.0000 0.11399  0.39499  0.13439  Biso   1.000  C
  C21      1.0000 0.43801  0.54397  0.60251  Biso   1.000  C
  C22      1.0000 0.48711  0.65499  0.63497  Biso   1.000  C
  S17      1.0000 0.42053  0.44948  0.68402  Biso   1.000  S
  S18      1.0000 0.50599  0.75428  0.55021  Biso   1.000  S
  C23      1.0000 0.51419  0.38697  0.72670  Biso   1.000  C
  C24      1.0000 0.59038  0.83097  0.60361  Biso   1.000  C
  S19      1.0000 0.56512  0.30637  0.66762  Biso   1.000  S
  C25      1.0000 0.54669  0.38404  0.80410  Biso   1.000  C
  C26      1.0000 0.66179  0.81796  0.59451  Biso   1.000  C
  S20      1.0000 0.57862  0.93877  0.67910  Biso   1.000  S
  C27      1.0000 0.65372  0.29003  0.74107  Biso   1.000  C
  S21      1.0000 0.63498  0.29336  0.83448  Biso   1.000  S
  S22      1.0000 0.50341  0.44302  0.87477  Biso   1.000  S
  S23      1.0000 0.69210  0.71936  0.52830  Biso   1.000  S
  S24      1.0000 0.73659  0.91627  0.65689  Biso   1.000  S
  C28      1.0000 0.68008  0.93397  0.72322  Biso   1.000  C
  C29      1.0000 0.72157  0.28397  0.72948  Biso   1.000  C
  C30      1.0000 0.56899  0.61195  0.91002  Biso   1.000  C
  C31      1.0000 0.77420  0.63103  0.59781  Biso   1.000  C
  C32      1.0000 0.71058  0.92399  0.80172  Biso   1.000  C
  S25      1.0000 0.81001  0.27066  0.80520  Biso   1.000  S
  S26      1.0000 0.74480  0.29091  0.63869  Biso   1.000  S
  C33      1.0000 0.62598  0.55796  0.94898  Biso   1.000  C
  C34      1.0000 0.80558  0.53898  0.55079  Biso   1.000  C
  S27      1.0000 0.65620  0.91676  0.86990  Biso   1.000  S
  S28      1.0000 0.81160  0.89494  0.84010  Biso   1.000  S
  C35      1.0000 0.86617  0.35997  0.75499  Biso   1.000  C
  C36      1.0000 0.83610  0.37103  0.67637  Biso   1.000  C
  S29      1.0000 0.68830  0.71887  0.99763  Biso   1.000  S
  S30      1.0000 0.88561  0.44322  0.61399  Biso   1.000  S
  C37      1.0000 0.72177  0.79898  0.92568  Biso   1.000  C
  C38      1.0000 0.79172  0.78998  0.91223  Biso   1.000  C
  S31      1.0000 0.95782  0.41974  0.80479  Biso   1.000  S
  S32      1.0000 0.86843  0.68678  0.95791  Biso   1.000  S
  C39      1.0000 0.93699  0.50005  0.89019  Biso   1.000  C
  C40      1.0000 0.88602  0.60501  0.86561  Biso   1.000  C
  C41      1.0000 0.69442  0.03903  0.44921  Biso   1.000  C
  S33      1.0000 0.61439  0.94317  0.38602  Biso   1.000  S
  C42      1.0000 0.72580  0.13098  0.40219  Biso   1.000  C
  C43      1.0000 0.66389  0.87098  0.32358  Biso   1.000  C
  S34      1.0000 0.80791  0.21941  0.47171  Biso   1.000  S
  C44      1.0000 0.63383  0.86002  0.24501  Biso   1.000  C
  S35      1.0000 0.75520  0.79086  0.36132  Biso   1.000  S
  C45      1.0000 0.83821  0.31801  0.40550  Biso   1.000  C
  S36      1.0000 0.54218  0.91969  0.19521  Biso   1.000  S
  S37      1.0000 0.69000  0.77071  0.19481  Biso   1.000  S
  C46      1.0000 0.77843  0.78402  0.27053  Biso   1.000  C
  S38      1.0000 0.76341  0.41632  0.34311  Biso   1.000  S
  C47      1.0000 0.90962  0.33102  0.39640  Biso   1.000  C
  C48      1.0000 0.56302  0.00000  0.10981  Biso   1.000  C
  C49      1.0000 0.84627  0.78998  0.25887  Biso   1.000  C
  C50      1.0000 0.81987  0.43402  0.27679  Biso   1.000  C
  S39      1.0000 0.92138  0.43881  0.32091  Biso   1.000  S
  S40      1.0000 0.99401  0.25433  0.44979  Biso   1.000  S
  C51      1.0000 0.61399  0.10496  0.13439  Biso   1.000  C
  S41      1.0000 0.93489  0.80642  0.33239  Biso   1.000  S
  S42      1.0000 0.86502  0.79341  0.16553  Biso   1.000  S
  C52      1.0000 0.78942  0.42404  0.19828  Biso   1.000  C
  C53      1.0000 0.01288  0.15504  0.36497  Biso   1.000  C
  S43      1.0000 0.63157  0.18683  0.04209  Biso   1.000  S
  C54      1.0000 0.98582  0.88702  0.27331  Biso   1.000  C
  C55      1.0000 0.95331  0.88399  0.19591  Biso   1.000  C
  S44      1.0000 0.68840  0.39489  0.15990  Biso   1.000  S
  S45      1.0000 0.84380  0.41681  0.13010  Biso   1.000  S
  C56      1.0000 0.06199  0.04402  0.39750  Biso   1.000  C
  C57      1.0000 0.70828  0.29003  0.08778  Biso   1.000  C
  S46      1.0000 0.07948  0.94953  0.31598  Biso   1.000  S
  S47      1.0000 0.99658  0.94297  0.12517  Biso   1.000  S
  C58      1.0000 0.77818  0.29903  0.07433  Biso   1.000  C
  C59      1.0000 0.93101  0.11200  0.08998  Biso   1.000  C
  S48      1.0000 0.81171  0.21892  0.00238  Biso   1.000  S
  C60      1.0000 0.87402  0.05801  0.05102  Biso   1.000  C
  C61      1.0000 0.30558  0.96097  0.55079  Biso   1.000  C
  C62      1.0000 0.27420  0.86902  0.59781  Biso   1.000  C
  S49      1.0000 0.38561  0.05683  0.61399  Biso   1.000  S
  S50      1.0000 0.19210  0.78059  0.52830  Biso   1.000  S
  C63      1.0000 0.33610  0.12902  0.67637  Biso   1.000  C
  C64      1.0000 0.16179  0.68199  0.59451  Biso   1.000  C
  C65      1.0000 0.36617  0.13998  0.75499  Biso   1.000  C
  S51      1.0000 0.24480  0.20914  0.63869  Biso   1.000  S
  S52      1.0000 0.23659  0.58368  0.65689  Biso   1.000  S
  C66      1.0000 0.09038  0.66898  0.60361  Biso   1.000  C
  S53      1.0000 0.45782  0.08031  0.80479  Biso   1.000  S
  S54      1.0000 0.31001  0.22929  0.80520  Biso   1.000  S
  C67      1.0000 0.22157  0.21598  0.72948  Biso   1.000  C
  C68      1.0000 0.18008  0.56598  0.72322  Biso   1.000  C
  S55      1.0000 0.07862  0.56119  0.67910  Biso   1.000  S
  S56      1.0000 0.00599  0.74567  0.55021  Biso   1.000  S
  C69      1.0000 0.43699  0.00000  0.89019  Biso   1.000  C
  C70      1.0000 0.15372  0.21002  0.74107  Biso   1.000  C
  C71      1.0000 0.21058  0.57596  0.80172  Biso   1.000  C
  C72      1.0000 0.98711  0.84496  0.63497  Biso   1.000  C
  C73      1.0000 0.38602  0.89504  0.86561  Biso   1.000  C
  S57      1.0000 0.06512  0.19358  0.66762  Biso   1.000  S
  S58      1.0000 0.13498  0.20659  0.83448  Biso   1.000  S
  S59      1.0000 0.15620  0.58319  0.86990  Biso   1.000  S
  S60      1.0000 0.31160  0.60511  0.84010  Biso   1.000  S
  C74      1.0000 0.93801  0.95598  0.60251  Biso   1.000  C
  S61      1.0000 0.36843  0.81317  0.95791  Biso   1.000  S
  C75      1.0000 0.01419  0.11298  0.72670  Biso   1.000  C
  C76      1.0000 0.04669  0.11601  0.80410  Biso   1.000  C
  C77      1.0000 0.22177  0.70097  0.92568  Biso   1.000  C
  C78      1.0000 0.29172  0.70997  0.91223  Biso   1.000  C
  S62      1.0000 0.92053  0.05047  0.68402  Biso   1.000  S
  S63      1.0000 0.00341  0.05703  0.87477  Biso   1.000  S
  S64      1.0000 0.18830  0.78108  0.99763  Biso   1.000  S
  C79      1.0000 0.06899  0.88800  0.91002  Biso   1.000  C
  C80      1.0000 0.12598  0.94199  0.94898  Biso   1.000  C
  Ne1      1.0000 0.30886  0.40878  0.24993  Biso   1.000  Ne
  He1      1.0000 0.39429  0.47231  0.41129  Biso   1.000  He
  He2      1.0000 0.17961  0.28683  0.26321  Biso   1.000  He
  He3      1.0000 0.45609  0.24943  0.22167  Biso   1.000  He
  He4      1.0000 0.26088  0.48772  0.13103  Biso   1.000  He
  Ar1      1.0000 0.30484  0.39068  0.25044  Biso   1.000  Ar
  Ne2      1.0000 0.80886  0.09124  0.24993  Biso   1.000  Ne
  He5      1.0000 0.88774  0.03265  0.40133  Biso   1.000  He
  He6      1.0000 0.67907  0.21349  0.26329  Biso   1.000  He
  He7      1.0000 0.94423  0.23990  0.22279  Biso   1.000  He
  He8      1.0000 0.76241  0.01507  0.13355  Biso   1.000  He
  Ar2      1.0000 0.80507  0.10946  0.25050  Biso   1.000  Ar
  Ne3      1.0000 0.69114  0.59122  0.75007  Biso   1.000  Ne
  He9      1.0000 0.73783  0.51461  0.86683  Biso   1.000  He
  He10     1.0000 0.54939  0.74610  0.77782  Biso   1.000  He
  He11     1.0000 0.81824  0.71173  0.73712  Biso   1.000  He
  He12     1.0000 0.60604  0.52786  0.58918  Biso   1.000  He
  Ar3      1.0000 0.69419  0.60932  0.75079  Biso   1.000  Ar
  Ne4      1.0000 0.19114  0.90876  0.75007  Biso   1.000  Ne
  He13     1.0000 0.23908  0.98762  0.86891  Biso   1.000  He
  He14     1.0000 0.04672  0.75170  0.77806  Biso   1.000  He
  He15     1.0000 0.31835  0.78824  0.73710  Biso   1.000  He
  He16     1.0000 0.13791  0.99535  0.59992  Biso   1.000  He
  Ar4      1.0000 0.19494  0.89053  0.74950  Biso   1.000  Ar
