data_image0
_cell_length_a       18.051
_cell_length_b       14.216
_cell_length_c       19.058
_cell_angle_alpha    90
_cell_angle_beta     103.15
_cell_angle_gamma    90

_symmetry_space_group_name_H-M    "P 1"
_symmetry_int_tables_number       1

loop_
  _symmetry_equiv_pos_as_xyz
  'x, y, z'

loop_
  _atom_site_label
  _atom_site_occupancy
  _atom_site_fract_x
  _atom_site_fract_y
  _atom_site_fract_z
  _atom_site_thermal_displace_type
  _atom_site_B_iso_or_equiv
  _atom_site_type_symbol
  C1       1.0000 0.58600  0.55198  0.53297  Biso   1.000  C
  C2       1.0000 0.61897  0.50197  0.48598  Biso   1.000  C
  S1       1.0000 0.53740  0.65947  0.50479  Biso   1.000  S
  S2       1.0000 0.58310  0.51681  0.61778  Biso   1.000  S
  S3       1.0000 0.61626  0.54087  0.39858  Biso   1.000  S
  S4       1.0000 0.66577  0.39653  0.50829  Biso   1.000  S
  C3       1.0000 0.52499  0.68901  0.59197  Biso   1.000  C
  C4       1.0000 0.54496  0.62303  0.64397  Biso   1.000  C
  C5       1.0000 0.69401  0.46898  0.38899  Biso   1.000  C
  C6       1.0000 0.71602  0.40201  0.44002  Biso   1.000  C
  S5       1.0000 0.47629  0.79249  0.59909  Biso   1.000  S
  S6       1.0000 0.52986  0.62641  0.73008  Biso   1.000  S
  S7       1.0000 0.72917  0.48122  0.31188  Biso   1.000  S
  S8       1.0000 0.77760  0.31211  0.43048  Biso   1.000  S
  C7       1.0000 0.54496  0.88098  0.59898  Biso   1.000  C
  C8       1.0000 0.62198  0.65602  0.78197  Biso   1.000  C
  C9       1.0000 0.68801  0.58898  0.26597  Biso   1.000  C
  C10      1.0000 0.84900  0.32098  0.51002  Biso   1.000  C
  C11      1.0000 0.58500  0.89399  0.54499  Biso   1.000  C
  C12      1.0000 0.67595  0.69499  0.77001  Biso   1.000  C
  C13      1.0000 0.71398  0.69499  0.30402  Biso   1.000  C
  C14      1.0000 0.89801  0.38597  0.53599  Biso   1.000  C
  C15      1.0000 0.63398  0.97102  0.54800  Biso   1.000  C
  C16      1.0000 0.74798  0.71799  0.81802  Biso   1.000  C
  C17      1.0000 0.78199  0.69999  0.29701  Biso   1.000  C
  C18      1.0000 0.95100  0.38801  0.60302  Biso   1.000  C
  C19      1.0000 0.68599  0.97299  0.49698  Biso   1.000  C
  C20      1.0000 0.81595  0.69499  0.80902  Biso   1.000  C
  C21      1.0000 0.79601  0.80902  0.33899  Biso   1.000  C
  C22      1.0000 0.98697  0.45801  0.63998  Biso   1.000  C
  C23      1.0000 0.73197  0.05402  0.49698  Biso   1.000  C
  C24      1.0000 0.88495  0.73298  0.85897  Biso   1.000  C
  C25      1.0000 0.87701  0.81901  0.33602  Biso   1.000  C
  C26      1.0000 0.02995  0.47003  0.69899  Biso   1.000  C
  S9       1.0000 0.81126  0.06141  0.46130  Biso   1.000  S
  S10      1.0000 0.96915  0.67361  0.84949  Biso   1.000  S
  S11      1.0000 0.91348  0.93338  0.37137  Biso   1.000  S
  S12      1.0000 0.07196  0.55459  0.75902  Biso   1.000  S
  C27      1.0000 0.86997  0.97003  0.49698  Biso   1.000  C
  C28      1.0000 0.98500  0.71103  0.76602  Biso   1.000  C
  C29      1.0000 0.91399  0.92199  0.46001  Biso   1.000  C
  C30      1.0000 0.02497  0.65898  0.72900  Biso   1.000  C
  S13      1.0000 0.89267  0.95639  0.59240  Biso   1.000  S
  S14      1.0000 0.95829  0.82470  0.73579  Biso   1.000  S
  S15      1.0000 0.98350  0.84651  0.51368  Biso   1.000  S
  S16      1.0000 0.04598  0.71560  0.65319  Biso   1.000  S
  C31      1.0000 0.95696  0.86199  0.59602  Biso   1.000  C
  C32      1.0000 0.98199  0.80902  0.65200  Biso   1.000  C
  C33      1.0000 0.41399  0.44802  0.46702  Biso   1.000  C
  S17      1.0000 0.41688  0.48319  0.38220  Biso   1.000  S
  S18      1.0000 0.46258  0.34053  0.49520  Biso   1.000  S
  C34      1.0000 0.38101  0.49803  0.51400  Biso   1.000  C
  C35      1.0000 0.45497  0.37697  0.35601  Biso   1.000  C
  C36      1.0000 0.47499  0.31099  0.40801  Biso   1.000  C
  S19      1.0000 0.33416  0.60347  0.49169  Biso   1.000  S
  S20      1.0000 0.38366  0.45913  0.60140  Biso   1.000  S
  S21      1.0000 0.47007  0.37359  0.26991  Biso   1.000  S
  S22      1.0000 0.52369  0.20751  0.40090  Biso   1.000  S
  C37      1.0000 0.28398  0.59799  0.56002  Biso   1.000  C
  C38      1.0000 0.30597  0.53102  0.61099  Biso   1.000  C
  C39      1.0000 0.37800  0.34398  0.21802  Biso   1.000  C
  C40      1.0000 0.45497  0.11902  0.40101  Biso   1.000  C
  S23      1.0000 0.22238  0.68789  0.56950  Biso   1.000  S
  S24      1.0000 0.27076  0.51878  0.68810  Biso   1.000  S
  C41      1.0000 0.32398  0.30501  0.22998  Biso   1.000  C
  C42      1.0000 0.41498  0.10601  0.45500  Biso   1.000  C
  C43      1.0000 0.15098  0.67902  0.48997  Biso   1.000  C
  C44      1.0000 0.31198  0.41102  0.73401  Biso   1.000  C
  C45      1.0000 0.25202  0.28201  0.18202  Biso   1.000  C
  C46      1.0000 0.36600  0.02898  0.45198  Biso   1.000  C
  C47      1.0000 0.10198  0.61403  0.46400  Biso   1.000  C
  C48      1.0000 0.28594  0.30501  0.69597  Biso   1.000  C
  C49      1.0000 0.18399  0.30501  0.19102  Biso   1.000  C
  C50      1.0000 0.31399  0.02701  0.50301  Biso   1.000  C
  C51      1.0000 0.04899  0.61199  0.39702  Biso   1.000  C
  C52      1.0000 0.21799  0.30001  0.70298  Biso   1.000  C
  C53      1.0000 0.11497  0.26702  0.14102  Biso   1.000  C
  C54      1.0000 0.26796  0.94598  0.50301  Biso   1.000  C
  C55      1.0000 0.01301  0.54199  0.36000  Biso   1.000  C
  C56      1.0000 0.20397  0.19098  0.66100  Biso   1.000  C
  S25      1.0000 0.03078  0.32639  0.15050  Biso   1.000  S
  S26      1.0000 0.18866  0.93859  0.53868  Biso   1.000  S
  C57      1.0000 0.96998  0.52997  0.30100  Biso   1.000  C
  C58      1.0000 0.12298  0.18099  0.66402  Biso   1.000  C
  C59      1.0000 0.01499  0.28897  0.23402  Biso   1.000  C
  C60      1.0000 0.12996  0.02997  0.50301  Biso   1.000  C
  S27      1.0000 0.92798  0.44541  0.24102  Biso   1.000  S
  S28      1.0000 0.08650  0.06662  0.62862  Biso   1.000  S
  S29      1.0000 0.04169  0.17530  0.26420  Biso   1.000  S
  C61      1.0000 0.97501  0.34102  0.27098  Biso   1.000  C
  S30      1.0000 0.10726  0.04361  0.40758  Biso   1.000  S
  C62      1.0000 0.08599  0.07801  0.53998  Biso   1.000  C
  C63      1.0000 0.01799  0.19098  0.34799  Biso   1.000  C
  S31      1.0000 0.95400  0.28440  0.34680  Biso   1.000  S
  C64      1.0000 0.04296  0.13801  0.40397  Biso   1.000  C
  S32      1.0000 0.01648  0.15349  0.48631  Biso   1.000  S
  C65      1.0000 0.61499  0.23298  0.64101  Biso   1.000  C
  S33      1.0000 0.53079  0.17361  0.65049  Biso   1.000  S
  C66      1.0000 0.68395  0.19499  0.69101  Biso   1.000  C
  C67      1.0000 0.51496  0.21103  0.73401  Biso   1.000  C
  C68      1.0000 0.75198  0.21799  0.68201  Biso   1.000  C
  S34      1.0000 0.54165  0.32470  0.76419  Biso   1.000  S
  C69      1.0000 0.47497  0.15898  0.77098  Biso   1.000  C
  C70      1.0000 0.82394  0.19499  0.72997  Biso   1.000  C
  C71      1.0000 0.51795  0.30902  0.84798  Biso   1.000  C
  S35      1.0000 0.42800  0.05459  0.74102  Biso   1.000  S
  S36      1.0000 0.45396  0.21560  0.84679  Biso   1.000  S
  C72      1.0000 0.87796  0.15602  0.71801  Biso   1.000  C
  C73      1.0000 0.54299  0.36199  0.90402  Biso   1.000  C
  C74      1.0000 0.46999  0.97003  0.80099  Biso   1.000  C
  S37      1.0000 0.97009  0.12641  0.76990  Biso   1.000  S
  S38      1.0000 0.51644  0.34651  0.98630  Biso   1.000  S
  S39      1.0000 0.60728  0.45639  0.90757  Biso   1.000  S
  C75      1.0000 0.51297  0.95801  0.85999  Biso   1.000  C
  C76      1.0000 0.95498  0.12303  0.85601  Biso   1.000  C
  C77      1.0000 0.58595  0.42199  0.03997  Biso   1.000  C
  C78      1.0000 0.62998  0.47003  0.00300  Biso   1.000  C
  C79      1.0000 0.54896  0.88801  0.89701  Biso   1.000  C
  C80      1.0000 0.97495  0.18901  0.90801  Biso   1.000  C
  S40      1.0000 0.91684  0.01681  0.88219  Biso   1.000  S
  S41      1.0000 0.58647  0.43338  0.12861  Biso   1.000  S
  S42      1.0000 0.68868  0.56141  0.03868  Biso   1.000  S
  C81      1.0000 0.60194  0.88597  0.96399  Biso   1.000  C
  S43      1.0000 0.96254  0.15947  0.99519  Biso   1.000  S
  S44      1.0000 0.02366  0.29249  0.90089  Biso   1.000  S
  C82      1.0000 0.91395  0.05198  0.96701  Biso   1.000  C
  C83      1.0000 0.62300  0.31901  0.16401  Biso   1.000  C
  C84      1.0000 0.76798  0.55402  0.00300  Biso   1.000  C
  C85      1.0000 0.65096  0.82098  0.99002  Biso   1.000  C
  C86      1.0000 0.95499  0.38098  0.90100  Biso   1.000  C
  C87      1.0000 0.88097  0.00197  0.01400  Biso   1.000  C
  C88      1.0000 0.70399  0.30902  0.16099  Biso   1.000  C
  C89      1.0000 0.81401  0.47299  0.00300  Biso   1.000  C
  S45      1.0000 0.72240  0.81211  0.06950  Biso   1.000  S
  C90      1.0000 0.91494  0.39399  0.95499  Biso   1.000  C
  S46      1.0000 0.83417  0.89653  0.99169  Biso   1.000  S
  S47      1.0000 0.88368  0.04087  0.10140  Biso   1.000  S
  C91      1.0000 0.71795  0.19999  0.20297  Biso   1.000  C
  C92      1.0000 0.86596  0.47102  0.95198  Biso   1.000  C
  C93      1.0000 0.78398  0.90201  0.05996  Biso   1.000  C
  C94      1.0000 0.80599  0.96898  0.11099  Biso   1.000  C
  C95      1.0000 0.78596  0.19499  0.19596  Biso   1.000  C
  S48      1.0000 0.77077  0.98122  0.18810  Biso   1.000  S
  C96      1.0000 0.81199  0.08898  0.23401  Biso   1.000  C
  C97      1.0000 0.38499  0.76702  0.35898  Biso   1.000  C
  C98      1.0000 0.31597  0.80501  0.30897  Biso   1.000  C
  S49      1.0000 0.46919  0.82639  0.34949  Biso   1.000  S
  C99      1.0000 0.24800  0.78201  0.31797  Biso   1.000  C
  C100     1.0000 0.48497  0.78897  0.26597  Biso   1.000  C
  C101     1.0000 0.17599  0.80501  0.27001  Biso   1.000  C
  S50      1.0000 0.45828  0.67530  0.23580  Biso   1.000  S
  C102     1.0000 0.52501  0.84102  0.22901  Biso   1.000  C
  C103     1.0000 0.12196  0.84398  0.28198  Biso   1.000  C
  C104     1.0000 0.48197  0.69098  0.15201  Biso   1.000  C
  S51      1.0000 0.54602  0.78440  0.15319  Biso   1.000  S
  S52      1.0000 0.57199  0.94541  0.25902  Biso   1.000  S
  S53      1.0000 0.02989  0.87359  0.23009  Biso   1.000  S
  C105     1.0000 0.45700  0.63801  0.09602  Biso   1.000  C
  C106     1.0000 0.52999  0.02997  0.19899  Biso   1.000  C
  C107     1.0000 0.04500  0.87697  0.14398  Biso   1.000  C
  S54      1.0000 0.39270  0.54361  0.09241  Biso   1.000  S
  S55      1.0000 0.48348  0.65349  0.01369  Biso   1.000  S
  C108     1.0000 0.48701  0.04199  0.13999  Biso   1.000  C
  C109     1.0000 0.02497  0.81099  0.09198  Biso   1.000  C
  S56      1.0000 0.08308  0.98319  0.11779  Biso   1.000  S
  C110     1.0000 0.37000  0.52997  0.99698  Biso   1.000  C
  C111     1.0000 0.41397  0.57801  0.96002  Biso   1.000  C
  C112     1.0000 0.45097  0.11199  0.10297  Biso   1.000  C
  S57      1.0000 0.97627  0.70751  0.09909  Biso   1.000  S
  S58      1.0000 0.03738  0.84053  0.00480  Biso   1.000  S
  C113     1.0000 0.08598  0.94802  0.03298  Biso   1.000  C
  S59      1.0000 0.31130  0.43859  0.96131  Biso   1.000  S
  S60      1.0000 0.41347  0.56662  0.87143  Biso   1.000  S
  C114     1.0000 0.39799  0.11403  0.03599  Biso   1.000  C
  C115     1.0000 0.04499  0.61902  0.09899  Biso   1.000  C
  C116     1.0000 0.11896  0.99803  0.98599  Biso   1.000  C
  C117     1.0000 0.23195  0.44598  0.99698  Biso   1.000  C
  C118     1.0000 0.37699  0.68099  0.83603  Biso   1.000  C
  C119     1.0000 0.34898  0.17902  0.01002  Biso   1.000  C
  C120     1.0000 0.08499  0.60601  0.04499  Biso   1.000  C
  S61      1.0000 0.11630  0.95913  0.89859  Biso   1.000  S
  S62      1.0000 0.16581  0.10347  0.00830  Biso   1.000  S
  C121     1.0000 0.18597  0.52701  0.99698  Biso   1.000  C
  C122     1.0000 0.29599  0.69098  0.83899  Biso   1.000  C
  S63      1.0000 0.27758  0.18789  0.93049  Biso   1.000  S
  C123     1.0000 0.13402  0.52898  0.04801  Biso   1.000  C
  C124     1.0000 0.19399  0.03102  0.88900  Biso   1.000  C
  C125     1.0000 0.21600  0.09799  0.94003  Biso   1.000  C
  C126     1.0000 0.28197  0.80001  0.79702  Biso   1.000  C
  S64      1.0000 0.22921  0.01878  0.81189  Biso   1.000  S
  C127     1.0000 0.21397  0.80501  0.80402  Biso   1.000  C
  C128     1.0000 0.18800  0.91102  0.76603  Biso   1.000  C
