data_image0
_cell_length_a       16.944
_cell_length_b       14.257
_cell_length_c       19.719
_cell_angle_alpha    90
_cell_angle_beta     102.97
_cell_angle_gamma    90

_symmetry_space_group_name_H-M    "P 1"
_symmetry_int_tables_number       1

loop_
  _symmetry_equiv_pos_as_xyz
  'x, y, z'

loop_
  _atom_site_label
  _atom_site_occupancy
  _atom_site_fract_x
  _atom_site_fract_y
  _atom_site_fract_z
  _atom_site_thermal_displace_type
  _atom_site_B_iso_or_equiv
  _atom_site_type_symbol
  C1       1.0000 0.58183  0.40191  0.55392  Biso   1.000  C
  S1       1.0000 0.50540  0.33478  0.50151  Biso   1.000  S
  C2       1.0000 0.62632  0.45578  0.52248  Biso   1.000  C
  S2       1.0000 0.58591  0.39903  0.64342  Biso   1.000  S
  C3       1.0000 0.53482  0.35898  0.42298  Biso   1.000  C
  S3       1.0000 0.60140  0.45521  0.43048  Biso   1.000  S
  S4       1.0000 0.69861  0.53791  0.56401  Biso   1.000  S
  C4       1.0000 0.63641  0.28800  0.67049  Biso   1.000  C
  C5       1.0000 0.50808  0.30890  0.36558  Biso   1.000  C
  C6       1.0000 0.78163  0.52318  0.51832  Biso   1.000  C
  C7       1.0000 0.72502  0.29501  0.66809  Biso   1.000  C
  S5       1.0000 0.44318  0.21358  0.36069  Biso   1.000  S
  S6       1.0000 0.53422  0.33619  0.28601  Biso   1.000  S
  C8       1.0000 0.82938  0.43600  0.53529  Biso   1.000  C
  C9       1.0000 0.77600  0.20502  0.70801  Biso   1.000  C
  C10      1.0000 0.46212  0.17100  0.28201  Biso   1.000  C
  C11      1.0000 0.50240  0.22599  0.24802  Biso   1.000  C
  C12      1.0000 0.89791  0.43200  0.49599  Biso   1.000  C
  C13      1.0000 0.74600  0.11503  0.67631  Biso   1.000  C
  S7       1.0000 0.41297  0.06509  0.25089  Biso   1.000  S
  S8       1.0000 0.52408  0.20558  0.16721  Biso   1.000  S
  C14      1.0000 0.86809  0.39202  0.42048  Biso   1.000  C
  C15      1.0000 0.80702  0.04201  0.71357  Biso   1.000  C
  C16      1.0000 0.48599  0.97201  0.28461  Biso   1.000  C
  C17      1.0000 0.64501  0.18398  0.19999  Biso   1.000  C
  C18      1.0000 0.93121  0.39798  0.37563  Biso   1.000  C
  S9       1.0000 0.78593  0.92937  0.67012  Biso   1.000  S
  C19      1.0000 0.51242  0.96402  0.36480  Biso   1.000  C
  C20      1.0000 0.67901  0.17598  0.13900  Biso   1.000  C
  S10      1.0000 0.02508  0.32707  0.41122  Biso   1.000  S
  C21      1.0000 0.82230  0.94599  0.59539  Biso   1.000  C
  C22      1.0000 0.56340  0.87403  0.38010  Biso   1.000  C
  C23      1.0000 0.75752  0.12801  0.15758  Biso   1.000  C
  C24      1.0000 0.98459  0.21610  0.41211  Biso   1.000  C
  C25      1.0000 0.80228  0.88497  0.54091  Biso   1.000  C
  S11      1.0000 0.88438  0.03732  0.58498  Biso   1.000  S
  C26      1.0000 0.61562  0.87297  0.45509  Biso   1.000  C
  C27      1.0000 0.82070  0.17500  0.21711  Biso   1.000  C
  C28      1.0000 0.96451  0.15242  0.35871  Biso   1.000  C
  S12      1.0000 0.96570  0.17718  0.49142  Biso   1.000  S
  S13      1.0000 0.74619  0.78193  0.54169  Biso   1.000  S
  S14      1.0000 0.84468  0.90727  0.46982  Biso   1.000  S
  C29      1.0000 0.88812  0.01122  0.50011  Biso   1.000  C
  C30      1.0000 0.67170  0.79301  0.45988  Biso   1.000  C
  C31      1.0000 0.89992  0.12401  0.21992  Biso   1.000  C
  S15      1.0000 0.98700  0.17220  0.27810  Biso   1.000  S
  S16      1.0000 0.92508  0.04629  0.37589  Biso   1.000  S
  C32      1.0000 0.92643  0.06923  0.46170  Biso   1.000  C
  C33      1.0000 0.41822  0.59809  0.44609  Biso   1.000  C
  C34      1.0000 0.37372  0.54422  0.47752  Biso   1.000  C
  S17      1.0000 0.41408  0.60097  0.35658  Biso   1.000  S
  S18      1.0000 0.49458  0.66522  0.49849  Biso   1.000  S
  S19      1.0000 0.30138  0.46209  0.43599  Biso   1.000  S
  S20      1.0000 0.39857  0.54479  0.56948  Biso   1.000  S
  C35      1.0000 0.36363  0.71200  0.32952  Biso   1.000  C
  C36      1.0000 0.46522  0.64102  0.57702  Biso   1.000  C
  C37      1.0000 0.21841  0.47682  0.48168  Biso   1.000  C
  C38      1.0000 0.27502  0.70499  0.33191  Biso   1.000  C
  C39      1.0000 0.49190  0.69110  0.63442  Biso   1.000  C
  C40      1.0000 0.17060  0.56400  0.46472  Biso   1.000  C
  C41      1.0000 0.22399  0.79498  0.29200  Biso   1.000  C
  S21      1.0000 0.46583  0.66381  0.71399  Biso   1.000  S
  S22      1.0000 0.55680  0.78642  0.63931  Biso   1.000  S
  C42      1.0000 0.10208  0.56800  0.50401  Biso   1.000  C
  C43      1.0000 0.25399  0.88497  0.32369  Biso   1.000  C
  C44      1.0000 0.49758  0.77401  0.75198  Biso   1.000  C
  C45      1.0000 0.53787  0.82900  0.71800  Biso   1.000  C
  C46      1.0000 0.13189  0.60798  0.57952  Biso   1.000  C
  C47      1.0000 0.19301  0.95799  0.28638  Biso   1.000  C
  S23      1.0000 0.47591  0.79442  0.83280  Biso   1.000  S
  S24      1.0000 0.58702  0.93491  0.74912  Biso   1.000  S
  C48      1.0000 0.06878  0.60202  0.62438  Biso   1.000  C
  S25      1.0000 0.21412  0.07063  0.32988  Biso   1.000  S
  C49      1.0000 0.35503  0.81602  0.80001  Biso   1.000  C
  C50      1.0000 0.51400  0.02799  0.71540  Biso   1.000  C
  S26      1.0000 0.97491  0.67293  0.58878  Biso   1.000  S
  C51      1.0000 0.17769  0.05401  0.40461  Biso   1.000  C
  C52      1.0000 0.32097  0.82402  0.86100  Biso   1.000  C
  C53      1.0000 0.48762  0.03598  0.63520  Biso   1.000  C
  C54      1.0000 0.01540  0.78390  0.58790  Biso   1.000  C
  S27      1.0000 0.11560  0.96268  0.41502  Biso   1.000  S
  C55      1.0000 0.19770  0.11503  0.45910  Biso   1.000  C
  C56      1.0000 0.24251  0.87199  0.84237  Biso   1.000  C
  C57      1.0000 0.43659  0.12597  0.61990  Biso   1.000  C
  S28      1.0000 0.03428  0.82282  0.50859  Biso   1.000  S
  C58      1.0000 0.03548  0.84758  0.64129  Biso   1.000  C
  C59      1.0000 0.11192  0.98878  0.49990  Biso   1.000  C
  S29      1.0000 0.15530  0.09273  0.53019  Biso   1.000  S
  S30      1.0000 0.25380  0.21807  0.45832  Biso   1.000  S
  C60      1.0000 0.17929  0.82500  0.78289  Biso   1.000  C
  C61      1.0000 0.38442  0.12703  0.54491  Biso   1.000  C
  C62      1.0000 0.07362  0.93077  0.53830  Biso   1.000  C
  S31      1.0000 0.07490  0.95371  0.62412  Biso   1.000  S
  S32      1.0000 0.01298  0.82780  0.72190  Biso   1.000  S
  C63      1.0000 0.32828  0.20699  0.54012  Biso   1.000  C
  C64      1.0000 0.10012  0.87599  0.78008  Biso   1.000  C
  C65      1.0000 0.60007  0.62397  0.28008  Biso   1.000  C
  S33      1.0000 0.51299  0.67223  0.22190  Biso   1.000  S
  C66      1.0000 0.67930  0.67497  0.28289  Biso   1.000  C
  C67      1.0000 0.53549  0.65238  0.14129  Biso   1.000  C
  C68      1.0000 0.74253  0.62797  0.34242  Biso   1.000  C
  C69      1.0000 0.51540  0.71607  0.08790  Biso   1.000  C
  S34      1.0000 0.57491  0.54633  0.12412  Biso   1.000  S
  C70      1.0000 0.82098  0.67602  0.36100  Biso   1.000  C
  S35      1.0000 0.47491  0.82710  0.08878  Biso   1.000  S
  S36      1.0000 0.53429  0.67721  0.00859  Biso   1.000  S
  C71      1.0000 0.57363  0.56919  0.03830  Biso   1.000  C
  C72      1.0000 0.85498  0.68401  0.30001  Biso   1.000  C
  C73      1.0000 0.56878  0.89802  0.12438  Biso   1.000  C
  C74      1.0000 0.61187  0.51119  0.99990  Biso   1.000  C
  S37      1.0000 0.97591  0.70562  0.33280  Biso   1.000  S
  C75      1.0000 0.63190  0.89198  0.07952  Biso   1.000  C
  S38      1.0000 0.65531  0.40731  0.03018  Biso   1.000  S
  S39      1.0000 0.61561  0.53728  0.91502  Biso   1.000  S
  C76      1.0000 0.99759  0.72603  0.25198  Biso   1.000  C
  C77      1.0000 0.60209  0.93203  0.00401  Biso   1.000  C
  C78      1.0000 0.69771  0.38500  0.95910  Biso   1.000  C
  C79      1.0000 0.67769  0.44603  0.90461  Biso   1.000  C
  S40      1.0000 0.96577  0.83622  0.21399  Biso   1.000  S
  C80      1.0000 0.03788  0.67097  0.21800  Biso   1.000  C
  C81      1.0000 0.67061  0.93603  0.96472  Biso   1.000  C
  S41      1.0000 0.75381  0.28190  0.95832  Biso   1.000  S
  S42      1.0000 0.71412  0.42940  0.82988  Biso   1.000  S
  C82      1.0000 0.99191  0.80887  0.13442  Biso   1.000  C
  S43      1.0000 0.05681  0.71361  0.13931  Biso   1.000  S
  S44      1.0000 0.08702  0.56513  0.24912  Biso   1.000  S
  C83      1.0000 0.71842  0.02322  0.98168  Biso   1.000  C
  C84      1.0000 0.82829  0.29298  0.04012  Biso   1.000  C
  C85      1.0000 0.69302  0.54198  0.78638  Biso   1.000  C
  C86      1.0000 0.96523  0.85902  0.07702  Biso   1.000  C
  C87      1.0000 0.01400  0.47198  0.21539  Biso   1.000  C
  S45      1.0000 0.80139  0.03788  0.93599  Biso   1.000  S
  C88      1.0000 0.88443  0.37301  0.04491  Biso   1.000  C
  C89      1.0000 0.75399  0.61500  0.82369  Biso   1.000  C
  S46      1.0000 0.89859  0.95518  0.06953  Biso   1.000  S
  S47      1.0000 0.99459  0.83482  0.99849  Biso   1.000  S
  C90      1.0000 0.98763  0.46398  0.13520  Biso   1.000  C
  C91      1.0000 0.87373  0.95581  0.97752  Biso   1.000  C
  C92      1.0000 0.93659  0.37399  0.11990  Biso   1.000  C
  C93      1.0000 0.72400  0.70499  0.79200  Biso   1.000  C
  C94      1.0000 0.91822  0.90187  0.94609  Biso   1.000  C
  C95      1.0000 0.77503  0.79498  0.83191  Biso   1.000  C
  S48      1.0000 0.91408  0.89900  0.85658  Biso   1.000  S
  C96      1.0000 0.86358  0.78803  0.82952  Biso   1.000  C
  C97      1.0000 0.39992  0.37603  0.71992  Biso   1.000  C
  C98      1.0000 0.32069  0.32503  0.71711  Biso   1.000  C
  S49      1.0000 0.48700  0.32777  0.77810  Biso   1.000  S
  C99      1.0000 0.25751  0.37203  0.65758  Biso   1.000  C
  C100     1.0000 0.46450  0.34762  0.85871  Biso   1.000  C
  C101     1.0000 0.17900  0.32398  0.63900  Biso   1.000  C
  C102     1.0000 0.48458  0.28393  0.91211  Biso   1.000  C
  S50      1.0000 0.42507  0.45367  0.87589  Biso   1.000  S
  C103     1.0000 0.14501  0.31599  0.69999  Biso   1.000  C
  S51      1.0000 0.52513  0.17290  0.91122  Biso   1.000  S
  S52      1.0000 0.46570  0.32279  0.99142  Biso   1.000  S
  C104     1.0000 0.42642  0.43081  0.96170  Biso   1.000  C
  S53      1.0000 0.02407  0.29438  0.66721  Biso   1.000  S
  C105     1.0000 0.43119  0.10198  0.87558  Biso   1.000  C
  C106     1.0000 0.38812  0.48881  0.00011  Biso   1.000  C
  C107     1.0000 0.00239  0.27397  0.74803  Biso   1.000  C
  C108     1.0000 0.36809  0.10802  0.92049  Biso   1.000  C
  S54      1.0000 0.34473  0.59269  0.96982  Biso   1.000  S
  S55      1.0000 0.38438  0.46272  0.08499  Biso   1.000  S
  S56      1.0000 0.03421  0.16378  0.78601  Biso   1.000  S
  C109     1.0000 0.96211  0.32903  0.78201  Biso   1.000  C
  C110     1.0000 0.39790  0.06797  0.99600  Biso   1.000  C
  C111     1.0000 0.30228  0.61500  0.04091  Biso   1.000  C
  C112     1.0000 0.32229  0.55397  0.09539  Biso   1.000  C
  C113     1.0000 0.00808  0.19113  0.86558  Biso   1.000  C
  S57      1.0000 0.94318  0.28639  0.86069  Biso   1.000  S
  S58      1.0000 0.91302  0.43487  0.75089  Biso   1.000  S
  C114     1.0000 0.32937  0.06397  0.03529  Biso   1.000  C
  S59      1.0000 0.24618  0.71810  0.04169  Biso   1.000  S
  S60      1.0000 0.28592  0.57060  0.17012  Biso   1.000  S
  C115     1.0000 0.03481  0.14098  0.92298  Biso   1.000  C
  C116     1.0000 0.98598  0.52802  0.78461  Biso   1.000  C
  C117     1.0000 0.28162  0.97678  0.01832  Biso   1.000  C
  C118     1.0000 0.17169  0.70702  0.95988  Biso   1.000  C
  C119     1.0000 0.30701  0.45802  0.21358  Biso   1.000  C
  S61      1.0000 0.10140  0.04482  0.93048  Biso   1.000  S
  S62      1.0000 0.00540  0.16518  0.00151  Biso   1.000  S
  C120     1.0000 0.01242  0.53602  0.86480  Biso   1.000  C
  S63      1.0000 0.19860  0.96212  0.06401  Biso   1.000  S
  C121     1.0000 0.11562  0.62699  0.95509  Biso   1.000  C
  C122     1.0000 0.24599  0.38500  0.17632  Biso   1.000  C
  C123     1.0000 0.12631  0.04419  0.02249  Biso   1.000  C
  C124     1.0000 0.08182  0.09813  0.05392  Biso   1.000  C
  C125     1.0000 0.06339  0.62601  0.88010  Biso   1.000  C
  C126     1.0000 0.27599  0.29501  0.20801  Biso   1.000  C
  S64      1.0000 0.08589  0.10100  0.14337  Biso   1.000  S
  C127     1.0000 0.22502  0.20502  0.16809  Biso   1.000  C
  C128     1.0000 0.13641  0.21197  0.17049  Biso   1.000  C
  Ne1      1.0000 0.72107  0.17939  0.43747  Biso   1.000  Ne
  He1      1.0000 0.82802  0.23876  0.57473  Biso   1.000  He
  He2      1.0000 0.59711  0.10245  0.51860  Biso   1.000  He
  He3      1.0000 0.72283  0.31568  0.31650  Biso   1.000  He
  He4      1.0000 0.70283  0.02923  0.33806  Biso   1.000  He
  Ar1      1.0000 0.71388  0.18664  0.43477  Biso   1.000  Ar
  Ne2      1.0000 0.27893  0.82061  0.56253  Biso   1.000  Ne
  He5      1.0000 0.27695  0.68134  0.68549  Biso   1.000  He
  He6      1.0000 0.29755  0.96905  0.66071  Biso   1.000  He
  He7      1.0000 0.41278  0.90301  0.47517  Biso   1.000  He
  He8      1.0000 0.16701  0.75974  0.42119  Biso   1.000  He
  Ar2      1.0000 0.28268  0.80833  0.56681  Biso   1.000  Ar
  Ne3      1.0000 0.77893  0.67940  0.06254  Biso   1.000  Ne
  He9      1.0000 0.77862  0.79728  0.17123  Biso   1.000  He
  He10     1.0000 0.78608  0.47396  0.20229  Biso   1.000  He
  He11     1.0000 0.92138  0.59227  0.96975  Biso   1.000  He
  He12     1.0000 0.66317  0.74142  0.91809  Biso   1.000  He
  Ar3      1.0000 0.78266  0.69168  0.06663  Biso   1.000  Ar
  Ne4      1.0000 0.22107  0.32060  0.93747  Biso   1.000  Ne
  He13     1.0000 0.33961  0.25774  0.08416  Biso   1.000  He
  He14     1.0000 0.10807  0.39149  0.01171  Biso   1.000  He
  He15     1.0000 0.22179  0.19729  0.82516  Biso   1.000  He
  He16     1.0000 0.20240  0.46894  0.83938  Biso   1.000  He
  Ar4      1.0000 0.21389  0.31337  0.93477  Biso   1.000  Ar
