data_image0
_cell_length_a       18.77
_cell_length_b       18.77
_cell_length_c       10.921
_cell_angle_alpha    90
_cell_angle_beta     90
_cell_angle_gamma    120

_symmetry_space_group_name_H-M    "P 1"
_symmetry_int_tables_number       1

loop_
  _symmetry_equiv_pos_as_xyz
  'x, y, z'

loop_
  _atom_site_label
  _atom_site_occupancy
  _atom_site_fract_x
  _atom_site_fract_y
  _atom_site_fract_z
  _atom_site_thermal_displace_type
  _atom_site_B_iso_or_equiv
  _atom_site_type_symbol
  C1       1.0000 0.61612  0.55200  0.40317  Biso   1.000  C
  N1       1.0000 0.59079  0.53490  0.29237  Biso   1.000  N
  C2       1.0000 0.69681  0.56431  0.44099  Biso   1.000  C
  H1       1.0000 0.58182  0.55693  0.46269  Biso   1.000  H
  C3       1.0000 0.51012  0.52561  0.26719  Biso   1.000  C
  C4       1.0000 0.72821  0.59568  0.55526  Biso   1.000  C
  C5       1.0000 0.74409  0.54401  0.36059  Biso   1.000  C
  C6       1.0000 0.45259  0.43838  0.21894  Biso   1.000  C
  C7       1.0000 0.51179  0.58160  0.17077  Biso   1.000  C
  H2       1.0000 0.48680  0.53459  0.34420  Biso   1.000  H
  H3       1.0000 0.51543  0.56671  0.20557  Biso   1.000  H
  H4       1.0000 0.48700  0.53490  0.34310  Biso   1.000  H
  C8       1.0000 0.80419  0.60891  0.59006  Biso   1.000  C
  H5       1.0000 0.69690  0.60829  0.61048  Biso   1.000  H
  C9       1.0000 0.82191  0.56049  0.39429  Biso   1.000  C
  H6       1.0000 0.72187  0.51897  0.28377  Biso   1.000  H
  N2       1.0000 0.43574  0.38123  0.32122  Biso   1.000  N
  H7       1.0000 0.40070  0.43358  0.18854  Biso   1.000  H
  H8       1.0000 0.47917  0.42558  0.15072  Biso   1.000  H
  C10      1.0000 0.38661  0.43918  0.14797  Biso   1.000  C
  H9       1.0000 0.48580  0.42700  0.15869  Biso   1.000  H
  H10      1.0000 0.53351  0.57188  0.09495  Biso   1.000  H
  H11      1.0000 0.54699  0.63868  0.19696  Biso   1.000  H
  H12      1.0000 0.45582  0.57120  0.15649  Biso   1.000  H
  C11      1.0000 0.84231  0.64348  0.71037  Biso   1.000  C
  C12      1.0000 0.85216  0.59298  0.51067  Biso   1.000  C
  C13      1.0000 0.87198  0.54438  0.30519  Biso   1.000  C
  C14      1.0000 0.45559  0.32759  0.30519  Biso   1.000  C
  H13      1.0000 0.37549  0.48120  0.18084  Biso   1.000  H
  H14      1.0000 0.33661  0.38511  0.15319  Biso   1.000  H
  H15      1.0000 0.40360  0.45173  0.06199  Biso   1.000  H
  N3       1.0000 0.79928  0.65579  0.79361  Biso   1.000  N
  H16      1.0000 0.89719  0.65671  0.72704  Biso   1.000  H
  H17      1.0000 0.90543  0.60393  0.53512  Biso   1.000  H
  N4       1.0000 0.94550  0.56431  0.32122  Biso   1.000  N
  H18      1.0000 0.84639  0.51719  0.23102  Biso   1.000  H
  C15      1.0000 0.43949  0.26139  0.39429  Biso   1.000  C
  H19      1.0000 0.48281  0.32919  0.23102  Biso   1.000  H
  C16      1.0000 0.84423  0.69411  0.90962  Biso   1.000  C
  C17      1.0000 0.98579  0.54739  0.21894  Biso   1.000  C
  C18      1.0000 0.45600  0.20012  0.36059  Biso   1.000  C
  C19      1.0000 0.40700  0.25918  0.51067  Biso   1.000  C
  C20      1.0000 0.85998  0.77888  0.92556  Biso   1.000  C
  H20      1.0000 0.89699  0.69319  0.91283  Biso   1.000  H
  H21      1.0000 0.85761  0.75219  0.91411  Biso   1.000  H
  C21      1.0000 0.78831  0.64502  0.01804  Biso   1.000  C
  H22      1.0000 0.94640  0.52081  0.15072  Biso   1.000  H
  H23      1.0000 0.94121  0.51417  0.15869  Biso   1.000  H
  C22      1.0000 0.01547  0.48987  0.26719  Biso   1.000  C
  H24      1.0000 0.03290  0.59931  0.18854  Biso   1.000  H
  C23      1.0000 0.05262  0.61340  0.14797  Biso   1.000  C
  C24      1.0000 0.43573  0.13251  0.44099  Biso   1.000  C
  H25      1.0000 0.48099  0.20289  0.28377  Biso   1.000  H
  C25      1.0000 0.39111  0.19532  0.59006  Biso   1.000  C
  H26      1.0000 0.39609  0.30150  0.53512  Biso   1.000  H
  H27      1.0000 0.89482  0.81340  0.85844  Biso   1.000  H
  H28      1.0000 0.80768  0.77870  0.92510  Biso   1.000  H
  H29      1.0000 0.88809  0.80091  0.00375  Biso   1.000  H
  N5       1.0000 0.77938  0.56271  0.01776  Biso   1.000  N
  H30      1.0000 0.81320  0.67338  0.09615  Biso   1.000  H
  H31      1.0000 0.73377  0.64059  0.00952  Biso   1.000  H
  C26      1.0000 0.83231  0.69553  0.12655  Biso   1.000  C
  N6       1.0000 0.94409  0.40922  0.29237  Biso   1.000  N
  C27      1.0000 0.06978  0.48821  0.17077  Biso   1.000  C
  H32      1.0000 0.04780  0.51319  0.34420  Biso   1.000  H
  H33      1.0000 0.05129  0.48458  0.20557  Biso   1.000  H
  H34      1.0000 0.04792  0.51300  0.34310  Biso   1.000  H
  H35      1.0000 0.10568  0.62447  0.18084  Biso   1.000  H
  H36      1.0000 0.04849  0.66341  0.15319  Biso   1.000  H
  H37      1.0000 0.04813  0.59642  0.06199  Biso   1.000  H
  C28      1.0000 0.40429  0.13251  0.55526  Biso   1.000  C
  C29      1.0000 0.44798  0.06410  0.40317  Biso   1.000  C
  C30      1.0000 0.35653  0.19883  0.71037  Biso   1.000  C
  C31      1.0000 0.70651  0.50359  0.02188  Biso   1.000  C
  H38      1.0000 0.88978  0.70882  0.12426  Biso   1.000  H
  H39      1.0000 0.80610  0.66452  0.20126  Biso   1.000  H
  H40      1.0000 0.82989  0.74640  0.12572  Biso   1.000  H
  C32      1.0000 0.93589  0.38387  0.40317  Biso   1.000  C
  H41      1.0000 0.03841  0.46649  0.09495  Biso   1.000  H
  H42      1.0000 0.09172  0.45302  0.19696  Biso   1.000  H
  H43      1.0000 0.11541  0.54419  0.15649  Biso   1.000  H
  H44      1.0000 0.39171  0.08859  0.61048  Biso   1.000  H
  N7       1.0000 0.46509  0.05592  0.29237  Biso   1.000  N
  H45      1.0000 0.44309  0.02491  0.46269  Biso   1.000  H
  N8       1.0000 0.34422  0.14352  0.79361  Biso   1.000  N
  H46      1.0000 0.34331  0.24048  0.72704  Biso   1.000  H
  C33      1.0000 0.68831  0.41562  0.02152  Biso   1.000  C
  H47      1.0000 0.66230  0.51448  0.02518  Biso   1.000  H
  C34      1.0000 0.86749  0.30322  0.44099  Biso   1.000  C
  H48      1.0000 0.97511  0.41820  0.46269  Biso   1.000  H
  C35      1.0000 0.47440  0.98450  0.26719  Biso   1.000  C
  C36      1.0000 0.30590  0.15010  0.90962  Biso   1.000  C
  C37      1.0000 0.60818  0.35668  0.02353  Biso   1.000  C
  C38      1.0000 0.74849  0.39181  0.02353  Biso   1.000  C
  C39      1.0000 0.79993  0.25592  0.36059  Biso   1.000  C
  C40      1.0000 0.86749  0.27179  0.55526  Biso   1.000  C
  C41      1.0000 0.56161  0.01421  0.21894  Biso   1.000  C
  C42      1.0000 0.41840  0.93024  0.17077  Biso   1.000  C
  H49      1.0000 0.46539  0.95220  0.34420  Biso   1.000  H
  H50      1.0000 0.43327  0.94869  0.20557  Biso   1.000  H
  H51      1.0000 0.46509  0.95214  0.34310  Biso   1.000  H
  C43      1.0000 0.22109  0.08108  0.92556  Biso   1.000  C
  H52      1.0000 0.30681  0.20381  0.91283  Biso   1.000  H
  H53      1.0000 0.24779  0.10538  0.91411  Biso   1.000  H
  C44      1.0000 0.35496  0.14328  0.01804  Biso   1.000  C
  C45      1.0000 0.58441  0.27271  0.02152  Biso   1.000  C
  H54      1.0000 0.56710  0.37212  0.02619  Biso   1.000  H
  C46      1.0000 0.72730  0.31171  0.02152  Biso   1.000  C
  H55      1.0000 0.80500  0.43291  0.02619  Biso   1.000  H
  C47      1.0000 0.73860  0.17810  0.39429  Biso   1.000  C
  H56      1.0000 0.79713  0.27812  0.28377  Biso   1.000  H
  C48      1.0000 0.80473  0.19581  0.59006  Biso   1.000  C
  H57      1.0000 0.91138  0.30310  0.61048  Biso   1.000  H
  N9       1.0000 0.61878  0.05451  0.32122  Biso   1.000  N
  H58      1.0000 0.57437  0.05358  0.15072  Biso   1.000  H
  H59      1.0000 0.57299  0.05881  0.15869  Biso   1.000  H
  H60      1.0000 0.56639  0.96709  0.18854  Biso   1.000  H
  C49      1.0000 0.56081  0.94740  0.14797  Biso   1.000  C
  H61      1.0000 0.42812  0.96161  0.09495  Biso   1.000  H
  H62      1.0000 0.36131  0.90834  0.19696  Biso   1.000  H
  H63      1.0000 0.42882  0.88459  0.15649  Biso   1.000  H
  H64      1.0000 0.18662  0.08139  0.85844  Biso   1.000  H
  H65      1.0000 0.22131  0.02898  0.92510  Biso   1.000  H
  H66      1.0000 0.19910  0.08717  0.00375  Biso   1.000  H
  N10      1.0000 0.43729  0.21673  0.01776  Biso   1.000  N
  H67      1.0000 0.32657  0.13977  0.09615  Biso   1.000  H
  H68      1.0000 0.35939  0.09320  0.00952  Biso   1.000  H
  C50      1.0000 0.30453  0.13682  0.12655  Biso   1.000  C
  C51      1.0000 0.49638  0.20289  0.02188  Biso   1.000  C
  C52      1.0000 0.64327  0.25149  0.02353  Biso   1.000  C
  C53      1.0000 0.79710  0.29350  0.02188  Biso   1.000  C
  C54      1.0000 0.67243  0.12802  0.30519  Biso   1.000  C
  C55      1.0000 0.74083  0.14783  0.51067  Biso   1.000  C
  C56      1.0000 0.80121  0.15767  0.71037  Biso   1.000  C
  H69      1.0000 0.51881  0.89431  0.18084  Biso   1.000  H
  H70      1.0000 0.61492  0.95152  0.15319  Biso   1.000  H
  H71      1.0000 0.54830  0.95189  0.06199  Biso   1.000  H
  H72      1.0000 0.29119  0.18099  0.12426  Biso   1.000  H
  H73      1.0000 0.33549  0.14162  0.20126  Biso   1.000  H
  H74      1.0000 0.25357  0.08348  0.12572  Biso   1.000  H
  H75      1.0000 0.48553  0.14783  0.02518  Biso   1.000  H
  H76      1.0000 0.62793  0.19501  0.02619  Biso   1.000  H
  N11      1.0000 0.78329  0.22061  0.01776  Biso   1.000  N
  H77      1.0000 0.85216  0.33767  0.02518  Biso   1.000  H
  H78      1.0000 0.67079  0.15361  0.23102  Biso   1.000  H
  H79      1.0000 0.69851  0.09462  0.53512  Biso   1.000  H
  N12      1.0000 0.85649  0.20067  0.79361  Biso   1.000  N
  H80      1.0000 0.75950  0.10280  0.72704  Biso   1.000  H
  C57      1.0000 0.85667  0.21168  0.01804  Biso   1.000  C
  C58      1.0000 0.84989  0.15583  0.90962  Biso   1.000  C
  H81      1.0000 0.86019  0.18677  0.09615  Biso   1.000  H
  H82      1.0000 0.90678  0.26619  0.00952  Biso   1.000  H
  C59      1.0000 0.86318  0.16770  0.12655  Biso   1.000  C
  C60      1.0000 0.91892  0.14002  0.92556  Biso   1.000  C
  H83      1.0000 0.79619  0.10298  0.91283  Biso   1.000  H
  H84      1.0000 0.89460  0.14242  0.91411  Biso   1.000  H
  H85      1.0000 0.81897  0.11018  0.12426  Biso   1.000  H
  H86      1.0000 0.85838  0.19391  0.20126  Biso   1.000  H
  H87      1.0000 0.91648  0.17010  0.12572  Biso   1.000  H
  H88      1.0000 0.91861  0.10520  0.85844  Biso   1.000  H
  H89      1.0000 0.97101  0.19231  0.92510  Biso   1.000  H
  H90      1.0000 0.91280  0.11190  0.00375  Biso   1.000  H
  C61      1.0000 0.38387  0.44798  0.59683  Biso   1.000  C
  C62      1.0000 0.30319  0.43567  0.55901  Biso   1.000  C
  N13      1.0000 0.40920  0.46508  0.70763  Biso   1.000  N
  H91      1.0000 0.41820  0.44312  0.53731  Biso   1.000  H
  C63      1.0000 0.27178  0.40430  0.44474  Biso   1.000  C
  C64      1.0000 0.25590  0.45597  0.63941  Biso   1.000  C
  C65      1.0000 0.48991  0.47443  0.73281  Biso   1.000  C
  C66      1.0000 0.19580  0.39107  0.40994  Biso   1.000  C
  H92      1.0000 0.30309  0.39169  0.38952  Biso   1.000  H
  C67      1.0000 0.17808  0.43949  0.60571  Biso   1.000  C
  H93      1.0000 0.27812  0.48101  0.71623  Biso   1.000  H
  C68      1.0000 0.54740  0.56160  0.78106  Biso   1.000  C
  C69      1.0000 0.48820  0.41839  0.82923  Biso   1.000  C
  H94      1.0000 0.51319  0.46539  0.65580  Biso   1.000  H
  H95      1.0000 0.48456  0.43327  0.79443  Biso   1.000  H
  H96      1.0000 0.51299  0.46508  0.65690  Biso   1.000  H
  C70      1.0000 0.15768  0.35650  0.28963  Biso   1.000  C
  C71      1.0000 0.14783  0.40701  0.48933  Biso   1.000  C
  C72      1.0000 0.12802  0.45561  0.69481  Biso   1.000  C
  N14      1.0000 0.56428  0.61881  0.67878  Biso   1.000  N
  H97      1.0000 0.59929  0.56640  0.81146  Biso   1.000  H
  H98      1.0000 0.52082  0.57440  0.84928  Biso   1.000  H
  C73      1.0000 0.61338  0.56080  0.85203  Biso   1.000  C
  H99      1.0000 0.51420  0.57298  0.84131  Biso   1.000  H
  H100     1.0000 0.46648  0.42811  0.90505  Biso   1.000  H
  H101     1.0000 0.45300  0.36130  0.80304  Biso   1.000  H
  H102     1.0000 0.54417  0.42878  0.84351  Biso   1.000  H
  N15      1.0000 0.20071  0.34420  0.20639  Biso   1.000  N
  H103     1.0000 0.10280  0.34327  0.27296  Biso   1.000  H
  H104     1.0000 0.09460  0.39612  0.46488  Biso   1.000  H
  N16      1.0000 0.05449  0.43567  0.67878  Biso   1.000  N
  H105     1.0000 0.15360  0.48280  0.76898  Biso   1.000  H
  C74      1.0000 0.54440  0.67240  0.69481  Biso   1.000  C
  H106     1.0000 0.62450  0.51878  0.81916  Biso   1.000  H
  H107     1.0000 0.66338  0.61488  0.84681  Biso   1.000  H
  H108     1.0000 0.59643  0.54831  0.93801  Biso   1.000  H
  C75      1.0000 0.15576  0.30587  0.09038  Biso   1.000  C
  C76      1.0000 0.01420  0.45259  0.78106  Biso   1.000  C
  C77      1.0000 0.56050  0.73859  0.60571  Biso   1.000  C
  H109     1.0000 0.51718  0.67080  0.76898  Biso   1.000  H
  C78      1.0000 0.14001  0.22110  0.07444  Biso   1.000  C
  H110     1.0000 0.10300  0.30679  0.08717  Biso   1.000  H
  H111     1.0000 0.14239  0.24780  0.08589  Biso   1.000  H
  C79      1.0000 0.21171  0.35502  0.98196  Biso   1.000  C
  H112     1.0000 0.05363  0.47923  0.84928  Biso   1.000  H
  H113     1.0000 0.05878  0.48581  0.84131  Biso   1.000  H
  C80      1.0000 0.98452  0.51011  0.73281  Biso   1.000  C
  H114     1.0000 0.96709  0.40067  0.81146  Biso   1.000  H
  C81      1.0000 0.94737  0.38658  0.85203  Biso   1.000  C
  C82      1.0000 0.54402  0.79992  0.63941  Biso   1.000  C
  C83      1.0000 0.59299  0.74080  0.48933  Biso   1.000  C
  H115     1.0000 0.10517  0.18659  0.14156  Biso   1.000  H
  H116     1.0000 0.19231  0.22128  0.07490  Biso   1.000  H
  H117     1.0000 0.11190  0.19907  0.99625  Biso   1.000  H
  N17      1.0000 0.22061  0.43727  0.98224  Biso   1.000  N
  H118     1.0000 0.18680  0.32660  0.90385  Biso   1.000  H
  H119     1.0000 0.26622  0.35939  0.99048  Biso   1.000  H
  C84      1.0000 0.16771  0.30452  0.87345  Biso   1.000  C
  N18      1.0000 0.05593  0.59082  0.70763  Biso   1.000  N
  C85      1.0000 0.93021  0.51177  0.82923  Biso   1.000  C
  H120     1.0000 0.95219  0.48680  0.65580  Biso   1.000  H
  H121     1.0000 0.94870  0.51540  0.79443  Biso   1.000  H
  H122     1.0000 0.95207  0.48698  0.65690  Biso   1.000  H
  H123     1.0000 0.89431  0.37551  0.81916  Biso   1.000  H
  H124     1.0000 0.95153  0.33663  0.84681  Biso   1.000  H
  H125     1.0000 0.95189  0.40362  0.93801  Biso   1.000  H
  C86      1.0000 0.56426  0.86747  0.55901  Biso   1.000  C
  H126     1.0000 0.51901  0.79709  0.71623  Biso   1.000  H
  C87      1.0000 0.60891  0.80472  0.40994  Biso   1.000  C
  H127     1.0000 0.60390  0.69848  0.46488  Biso   1.000  H
  C88      1.0000 0.29348  0.49639  0.97812  Biso   1.000  C
  H128     1.0000 0.11024  0.29123  0.87574  Biso   1.000  H
  H129     1.0000 0.19392  0.33552  0.79874  Biso   1.000  H
  H130     1.0000 0.17010  0.25358  0.87428  Biso   1.000  H
  C89      1.0000 0.06410  0.61611  0.59683  Biso   1.000  C
  H131     1.0000 0.96158  0.53349  0.90505  Biso   1.000  H
  H132     1.0000 0.90830  0.54702  0.80304  Biso   1.000  H
  H133     1.0000 0.88458  0.45579  0.84351  Biso   1.000  H
  C90      1.0000 0.59570  0.86747  0.44474  Biso   1.000  C
  C91      1.0000 0.55201  0.93588  0.59683  Biso   1.000  C
  C92      1.0000 0.64350  0.80122  0.28963  Biso   1.000  C
  C93      1.0000 0.31171  0.58442  0.97848  Biso   1.000  C
  H134     1.0000 0.33769  0.48550  0.97482  Biso   1.000  H
  C94      1.0000 0.13253  0.69682  0.55901  Biso   1.000  C
  H135     1.0000 0.02488  0.58178  0.53731  Biso   1.000  H
  H136     1.0000 0.60828  0.91140  0.38952  Biso   1.000  H
  N19      1.0000 0.53493  0.94412  0.70763  Biso   1.000  N
  H137     1.0000 0.55693  0.97513  0.53731  Biso   1.000  H
  N20      1.0000 0.65580  0.85652  0.20639  Biso   1.000  N
  H138     1.0000 0.65668  0.75951  0.27296  Biso   1.000  H
  C95      1.0000 0.25150  0.60817  0.97647  Biso   1.000  C
  C96      1.0000 0.39181  0.64330  0.97647  Biso   1.000  C
  C97      1.0000 0.13250  0.72819  0.44474  Biso   1.000  C
  C98      1.0000 0.20009  0.74413  0.63941  Biso   1.000  C
  C99      1.0000 0.52559  0.01548  0.73281  Biso   1.000  C
  C100     1.0000 0.69409  0.84988  0.09038  Biso   1.000  C
  C101     1.0000 0.27272  0.68833  0.97848  Biso   1.000  C
  H139     1.0000 0.19499  0.56708  0.97381  Biso   1.000  H
  C102     1.0000 0.41558  0.72727  0.97848  Biso   1.000  C
  H140     1.0000 0.43293  0.62792  0.97381  Biso   1.000  H
  C103     1.0000 0.19530  0.80423  0.40994  Biso   1.000  C
  H141     1.0000 0.08861  0.69688  0.38952  Biso   1.000  H
  C104     1.0000 0.26140  0.82189  0.60571  Biso   1.000  C
  H142     1.0000 0.20289  0.72192  0.71623  Biso   1.000  H
  C105     1.0000 0.43838  0.98577  0.78106  Biso   1.000  C
  C106     1.0000 0.58163  0.06981  0.82923  Biso   1.000  C
  H143     1.0000 0.53460  0.04778  0.65580  Biso   1.000  H
  H144     1.0000 0.56672  0.05129  0.79443  Biso   1.000  H
  H145     1.0000 0.53493  0.04790  0.65690  Biso   1.000  H
  C107     1.0000 0.64503  0.85671  0.98196  Biso   1.000  C
  C108     1.0000 0.77890  0.91890  0.07444  Biso   1.000  C
  H146     1.0000 0.69318  0.79617  0.08717  Biso   1.000  H
  H147     1.0000 0.75220  0.89460  0.08589  Biso   1.000  H
  C109     1.0000 0.20289  0.70648  0.97812  Biso   1.000  C
  C110     1.0000 0.35672  0.74849  0.97647  Biso   1.000  C
  C111     1.0000 0.50361  0.79709  0.97812  Biso   1.000  C
  C112     1.0000 0.19878  0.84231  0.28963  Biso   1.000  C
  C113     1.0000 0.25919  0.85221  0.48933  Biso   1.000  C
  C114     1.0000 0.32759  0.87202  0.69481  Biso   1.000  C
  N21      1.0000 0.38121  0.94548  0.67878  Biso   1.000  N
  H148     1.0000 0.42562  0.94640  0.84928  Biso   1.000  H
  H149     1.0000 0.42700  0.94117  0.84131  Biso   1.000  H
  H150     1.0000 0.43360  0.03289  0.81146  Biso   1.000  H
  C115     1.0000 0.43918  0.05258  0.85203  Biso   1.000  C
  H151     1.0000 0.57188  0.03837  0.90505  Biso   1.000  H
  H152     1.0000 0.63871  0.09171  0.80304  Biso   1.000  H
  H153     1.0000 0.57117  0.11539  0.84351  Biso   1.000  H
  N22      1.0000 0.56273  0.78331  0.98224  Biso   1.000  N
  H154     1.0000 0.67342  0.86021  0.90385  Biso   1.000  H
  H155     1.0000 0.64060  0.90678  0.99048  Biso   1.000  H
  C116     1.0000 0.69549  0.86323  0.87345  Biso   1.000  C
  H156     1.0000 0.81337  0.91859  0.14156  Biso   1.000  H
  H157     1.0000 0.77868  0.97101  0.07490  Biso   1.000  H
  H158     1.0000 0.80089  0.91281  0.99625  Biso   1.000  H
  N23      1.0000 0.21670  0.77938  0.98224  Biso   1.000  N
  H159     1.0000 0.14783  0.66231  0.97482  Biso   1.000  H
  H160     1.0000 0.37209  0.80503  0.97381  Biso   1.000  H
  H161     1.0000 0.51449  0.85221  0.97482  Biso   1.000  H
  N24      1.0000 0.14350  0.79931  0.20639  Biso   1.000  N
  H162     1.0000 0.24049  0.89718  0.27296  Biso   1.000  H
  H163     1.0000 0.30152  0.90543  0.46488  Biso   1.000  H
  H164     1.0000 0.32921  0.84637  0.76898  Biso   1.000  H
  H165     1.0000 0.48118  0.10567  0.81916  Biso   1.000  H
  H166     1.0000 0.38507  0.04846  0.84681  Biso   1.000  H
  H167     1.0000 0.45170  0.04809  0.93801  Biso   1.000  H
  H168     1.0000 0.70880  0.81899  0.87574  Biso   1.000  H
  H169     1.0000 0.66454  0.85843  0.79874  Biso   1.000  H
  H170     1.0000 0.74642  0.91650  0.87428  Biso   1.000  H
  C117     1.0000 0.14332  0.78830  0.98196  Biso   1.000  C
  C118     1.0000 0.15013  0.84422  0.09038  Biso   1.000  C
  H171     1.0000 0.13980  0.81321  0.90385  Biso   1.000  H
  H172     1.0000 0.09321  0.73379  0.99048  Biso   1.000  H
  C119     1.0000 0.13681  0.83228  0.87345  Biso   1.000  C
  C120     1.0000 0.08111  0.86003  0.07444  Biso   1.000  C
  H173     1.0000 0.20380  0.89700  0.08717  Biso   1.000  H
  H174     1.0000 0.10543  0.85763  0.08589  Biso   1.000  H
  H175     1.0000 0.18102  0.88980  0.87574  Biso   1.000  H
  H176     1.0000 0.14161  0.80608  0.79874  Biso   1.000  H
  H177     1.0000 0.08351  0.82988  0.87428  Biso   1.000  H
  H178     1.0000 0.08138  0.89479  0.14156  Biso   1.000  H
  H179     1.0000 0.02898  0.80768  0.07490  Biso   1.000  H
  H180     1.0000 0.08719  0.88808  0.99625  Biso   1.000  H
