data_image0
_cell_length_a       25.148
_cell_length_b       25.148
_cell_length_c       11.027
_cell_angle_alpha    90
_cell_angle_beta     90
_cell_angle_gamma    120

_symmetry_space_group_name_H-M    "P 1"
_symmetry_int_tables_number       1

loop_
  _symmetry_equiv_pos_as_xyz
  'x, y, z'

loop_
  _atom_site_label
  _atom_site_occupancy
  _atom_site_fract_x
  _atom_site_fract_y
  _atom_site_fract_z
  _atom_site_thermal_displace_type
  _atom_site_B_iso_or_equiv
  _atom_site_type_symbol
  C1       1.0000 0.27730  0.34010  0.57976  Biso   1.000  C
  C2       1.0000 0.26692  0.30750  0.45643  Biso   1.000  C
  H1       1.0000 0.31751  0.37679  0.58039  Biso   1.000  H
  H2       1.0000 0.24680  0.35259  0.59082  Biso   1.000  H
  C3       1.0000 0.27301  0.29901  0.68269  Biso   1.000  C
  C4       1.0000 0.20398  0.24859  0.45271  Biso   1.000  C
  H3       1.0000 0.26929  0.33491  0.39213  Biso   1.000  H
  H4       1.0000 0.29901  0.29740  0.44291  Biso   1.000  H
  C5       1.0000 0.21020  0.24138  0.68160  Biso   1.000  C
  H5       1.0000 0.27922  0.32040  0.75923  Biso   1.000  H
  H6       1.0000 0.30468  0.28799  0.67434  Biso   1.000  H
  N1       1.0000 0.19908  0.21659  0.34143  Biso   1.000  N
  H7       1.0000 0.17160  0.25938  0.45534  Biso   1.000  H
  C6       1.0000 0.19682  0.20731  0.56135  Biso   1.000  C
  H8       1.0000 0.17901  0.25249  0.69656  Biso   1.000  H
  H9       1.0000 0.20807  0.21438  0.74653  Biso   1.000  H
  C7       1.0000 0.15700  0.20942  0.26626  Biso   1.000  C
  N2       1.0000 0.13341  0.15731  0.56135  Biso   1.000  N
  H10      1.0000 0.22441  0.19060  0.55146  Biso   1.000  H
  C8       1.0000 0.14869  0.17999  0.15000  Biso   1.000  C
  H11      1.0000 0.13071  0.22389  0.28784  Biso   1.000  H
  C9       1.0000 0.12262  0.10271  0.55482  Biso   1.000  C
  C10      1.0000 0.11001  0.18431  0.06502  Biso   1.000  C
  C11      1.0000 0.17911  0.14891  0.11526  Biso   1.000  C
  H12      1.0000 0.15549  0.09569  0.54938  Biso   1.000  H
  C12      1.0000 0.06020  0.05009  0.55536  Biso   1.000  C
  H13      1.0000 0.08828  0.20368  0.08679  Biso   1.000  H
  C13      1.0000 0.10293  0.16052  0.94940  Biso   1.000  C
  C14      1.0000 0.17261  0.12430  0.00227  Biso   1.000  C
  H14      1.0000 0.20460  0.14468  0.17103  Biso   1.000  H
  C15      1.0000 0.00881  0.05850  0.55500  Biso   1.000  C
  C16      1.0000 0.04967  0.99118  0.55500  Biso   1.000  C
  C17      1.0000 0.13330  0.12870  0.92065  Biso   1.000  C
  C18      1.0000 0.06632  0.17122  0.86007  Biso   1.000  C
  C19      1.0000 0.20830  0.09339  0.96690  Biso   1.000  C
  H15      1.0000 0.01511  0.09821  0.55437  Biso   1.000  H
  C20      1.0000 0.94990  0.01010  0.55536  Biso   1.000  C
  C21      1.0000 0.98990  0.93980  0.55536  Biso   1.000  C
  H16      1.0000 0.08311  0.98489  0.55437  Biso   1.000  H
  H17      1.0000 0.12702  0.11002  0.84511  Biso   1.000  H
  N3       1.0000 0.04959  0.21020  0.87576  Biso   1.000  N
  H18      1.0000 0.05491  0.14831  0.78897  Biso   1.000  H
  H19      1.0000 0.22790  0.08352  0.02684  Biso   1.000  H
  N4       1.0000 0.21231  0.08090  0.85962  Biso   1.000  N
  C22      1.0000 0.94152  0.95032  0.55500  Biso   1.000  C
  C23      1.0000 0.89729  0.01988  0.55482  Biso   1.000  C
  C24      1.0000 0.98010  0.87740  0.55482  Biso   1.000  C
  C25      1.0000 0.01313  0.21792  0.78226  Biso   1.000  C
  C26      1.0000 0.24741  0.05009  0.83622  Biso   1.000  C
  H20      1.0000 0.90178  0.91689  0.55437  Biso   1.000  H
  N5       1.0000 0.84272  0.97612  0.56135  Biso   1.000  N
  H21      1.0000 0.90431  0.05978  0.54938  Biso   1.000  H
  H22      1.0000 0.94021  0.84448  0.54938  Biso   1.000  H
  N6       1.0000 0.02389  0.86661  0.56135  Biso   1.000  N
  C27      1.0000 0.94989  0.19730  0.83622  Biso   1.000  C
  H23      1.0000 0.00881  0.19202  0.71252  Biso   1.000  H
  C28      1.0000 0.04418  0.28440  0.74236  Biso   1.000  C
  C29      1.0000 0.20481  0.98691  0.78226  Biso   1.000  C
  H24      1.0000 0.26443  0.04532  0.91276  Biso   1.000  H
  C30      1.0000 0.30078  0.08940  0.74789  Biso   1.000  C
  C31      1.0000 0.79270  0.98949  0.56135  Biso   1.000  C
  C32      1.0000 0.01048  0.80320  0.56135  Biso   1.000  C
  N7       1.0000 0.91913  0.13141  0.85962  Biso   1.000  N
  H25      1.0000 0.95471  0.21911  0.91276  Biso   1.000  H
  C33      1.0000 0.91061  0.21140  0.74789  Biso   1.000  C
  C34      1.0000 0.00489  0.29680  0.65476  Biso   1.000  C
  H26      1.0000 0.08289  0.29510  0.70355  Biso   1.000  H
  H27      1.0000 0.05300  0.31039  0.81319  Biso   1.000  H
  N8       1.0000 0.16059  0.95041  0.87576  Biso   1.000  N
  H28      1.0000 0.18320  0.99118  0.71252  Biso   1.000  H
  C35      1.0000 0.24018  0.95578  0.74236  Biso   1.000  C
  H29      1.0000 0.28459  0.09900  0.67661  Biso   1.000  H
  H30      1.0000 0.32948  0.12778  0.78698  Biso   1.000  H
  C36      1.0000 0.33381  0.05620  0.71035  Biso   1.000  C
  C37      1.0000 0.75141  0.95542  0.45271  Biso   1.000  C
  C38      1.0000 0.75863  0.96882  0.68160  Biso   1.000  C
  H31      1.0000 0.80941  0.03379  0.55146  Biso   1.000  H
  H32      1.0000 0.96622  0.77561  0.55146  Biso   1.000  H
  C39      1.0000 0.04461  0.79599  0.45271  Biso   1.000  C
  C40      1.0000 0.03121  0.78980  0.68160  Biso   1.000  C
  C41      1.0000 0.90661  0.11488  0.96690  Biso   1.000  C
  H33      1.0000 0.90101  0.18559  0.67661  Biso   1.000  H
  H34      1.0000 0.87221  0.20171  0.78698  Biso   1.000  H
  C42      1.0000 0.94380  0.27761  0.71035  Biso   1.000  C
  H35      1.0000 0.99940  0.27421  0.58012  Biso   1.000  H
  H36      1.0000 0.02539  0.34019  0.63535  Biso   1.000  H
  C43      1.0000 0.10491  0.93370  0.86007  Biso   1.000  C
  C44      1.0000 0.29188  0.99509  0.65476  Biso   1.000  C
  H37      1.0000 0.21222  0.91712  0.70355  Biso   1.000  H
  H38      1.0000 0.25739  0.94701  0.81319  Biso   1.000  H
  H39      1.0000 0.36562  0.08132  0.65249  Biso   1.000  H
  H40      1.0000 0.35360  0.05060  0.78090  Biso   1.000  H
  N9       1.0000 0.78340  0.98251  0.34143  Biso   1.000  N
  H41      1.0000 0.74062  0.91221  0.45534  Biso   1.000  H
  C45      1.0000 0.69253  0.95941  0.45643  Biso   1.000  C
  C46      1.0000 0.70102  0.97401  0.68269  Biso   1.000  C
  H42      1.0000 0.74748  0.92649  0.69656  Biso   1.000  H
  H43      1.0000 0.78563  0.99371  0.74653  Biso   1.000  H
  N10      1.0000 0.01748  0.80091  0.34143  Biso   1.000  N
  H44      1.0000 0.08782  0.82841  0.45534  Biso   1.000  H
  C47      1.0000 0.04059  0.73309  0.45643  Biso   1.000  C
  C48      1.0000 0.02597  0.72698  0.68269  Biso   1.000  C
  H45      1.0000 0.07350  0.82102  0.69656  Biso   1.000  H
  H46      1.0000 0.00630  0.79191  0.74653  Biso   1.000  H
  H47      1.0000 0.91652  0.14441  0.02684  Biso   1.000  H
  C49      1.0000 0.87571  0.04830  0.00227  Biso   1.000  C
  H48      1.0000 0.91872  0.28431  0.65249  Biso   1.000  H
  H49      1.0000 0.94942  0.30300  0.78090  Biso   1.000  H
  C50      1.0000 0.05759  0.89710  0.94940  Biso   1.000  C
  H50      1.0000 0.09339  0.94508  0.78897  Biso   1.000  H
  H51      1.0000 0.31481  0.97461  0.63535  Biso   1.000  H
  H52      1.0000 0.27479  0.00060  0.58012  Biso   1.000  H
  C51      1.0000 0.79061  0.94761  0.26626  Biso   1.000  C
  H53      1.0000 0.66510  0.93439  0.39213  Biso   1.000  H
  C52      1.0000 0.65990  0.93719  0.57976  Biso   1.000  C
  H54      1.0000 0.70261  0.00161  0.44291  Biso   1.000  H
  H55      1.0000 0.67962  0.95881  0.75923  Biso   1.000  H
  H56      1.0000 0.71203  0.01671  0.67434  Biso   1.000  H
  C53      1.0000 0.05241  0.84301  0.26626  Biso   1.000  C
  H57      1.0000 0.99842  0.70099  0.44291  Biso   1.000  H
  H58      1.0000 0.06561  0.73070  0.39213  Biso   1.000  H
  C54      1.0000 0.06280  0.72271  0.57976  Biso   1.000  C
  H59      1.0000 0.98333  0.69530  0.67434  Biso   1.000  H
  H60      1.0000 0.04120  0.72078  0.75923  Biso   1.000  H
  C55      1.0000 0.87131  0.00459  0.92065  Biso   1.000  C
  C56      1.0000 0.85112  0.03021  0.11526  Biso   1.000  C
  C57      1.0000 0.99543  0.86671  0.92065  Biso   1.000  C
  C58      1.0000 0.07431  0.88998  0.06502  Biso   1.000  C
  C59      1.0000 0.82000  0.96869  0.15000  Biso   1.000  C
  H61      1.0000 0.77608  0.90679  0.28784  Biso   1.000  H
  H62      1.0000 0.62322  0.94072  0.58039  Biso   1.000  H
  H63      1.0000 0.64740  0.89421  0.59082  Biso   1.000  H
  C60      1.0000 0.03132  0.85132  0.15000  Biso   1.000  C
  H64      1.0000 0.09320  0.86932  0.28784  Biso   1.000  H
  H65      1.0000 0.05927  0.68249  0.58039  Biso   1.000  H
  H66      1.0000 0.10580  0.75320  0.59082  Biso   1.000  H
  C61      1.0000 0.83951  0.94242  0.94940  Biso   1.000  C
  H67      1.0000 0.89000  0.01699  0.84511  Biso   1.000  H
  H68      1.0000 0.85531  0.05992  0.17103  Biso   1.000  H
  H69      1.0000 0.98302  0.87300  0.84511  Biso   1.000  H
  C62      1.0000 0.95172  0.82740  0.00227  Biso   1.000  C
  H70      1.0000 0.11539  0.91170  0.08679  Biso   1.000  H
  C63      1.0000 0.81572  0.92571  0.06502  Biso   1.000  C
  C64      1.0000 0.96981  0.82088  0.11526  Biso   1.000  C
  C65      1.0000 0.82880  0.89508  0.86007  Biso   1.000  C
  C66      1.0000 0.88510  0.79168  0.96690  Biso   1.000  C
  H71      1.0000 0.79629  0.88461  0.08679  Biso   1.000  H
  H72      1.0000 0.94009  0.79540  0.17103  Biso   1.000  H
  N11      1.0000 0.78978  0.83939  0.87576  Biso   1.000  N
  H73      1.0000 0.85170  0.90661  0.78897  Biso   1.000  H
  N12      1.0000 0.86859  0.78768  0.85962  Biso   1.000  N
  H74      1.0000 0.85560  0.77212  0.02684  Biso   1.000  H
  C67      1.0000 0.78213  0.79521  0.78226  Biso   1.000  C
  C68      1.0000 0.80270  0.75260  0.83622  Biso   1.000  C
  H75      1.0000 0.80799  0.81679  0.71252  Biso   1.000  H
  C69      1.0000 0.71560  0.75981  0.74236  Biso   1.000  C
  H76      1.0000 0.78092  0.73561  0.91276  Biso   1.000  H
  C70      1.0000 0.78860  0.69920  0.74789  Biso   1.000  C
  C71      1.0000 0.70323  0.70811  0.65476  Biso   1.000  C
  H77      1.0000 0.70491  0.78782  0.70355  Biso   1.000  H
  H78      1.0000 0.68961  0.74259  0.81319  Biso   1.000  H
  H79      1.0000 0.81440  0.71541  0.67661  Biso   1.000  H
  H80      1.0000 0.79831  0.67051  0.78698  Biso   1.000  H
  C72      1.0000 0.72239  0.66619  0.71035  Biso   1.000  C
  H81      1.0000 0.65980  0.68520  0.63535  Biso   1.000  H
  H82      1.0000 0.72581  0.72519  0.58012  Biso   1.000  H
  H83      1.0000 0.71573  0.63442  0.65249  Biso   1.000  H
  H84      1.0000 0.69699  0.64640  0.78090  Biso   1.000  H
  C73      1.0000 0.44533  0.39272  0.49125  Biso   1.000  C
  C74      1.0000 0.49430  0.41210  0.59046  Biso   1.000  C
  H85      1.0000 0.45591  0.37532  0.42332  Biso   1.000  H
  H86      1.0000 0.40590  0.36150  0.52272  Biso   1.000  H
  C75      1.0000 0.44083  0.44782  0.44881  Biso   1.000  C
  N13      1.0000 0.49920  0.35819  0.62193  Biso   1.000  N
  C76      1.0000 0.55643  0.46302  0.54367  Biso   1.000  C
  H87      1.0000 0.48203  0.42652  0.66201  Biso   1.000  H
  H88      1.0000 0.40993  0.43501  0.38578  Biso   1.000  H
  H89      1.0000 0.42830  0.46389  0.51601  Biso   1.000  H
  C77      1.0000 0.50164  0.49723  0.40038  Biso   1.000  C
  C78      1.0000 0.48910  0.34070  0.72939  Biso   1.000  C
  N14      1.0000 0.59968  0.48129  0.64469  Biso   1.000  N
  H90      1.0000 0.57028  0.44699  0.47737  Biso   1.000  H
  C79      1.0000 0.55051  0.51591  0.49887  Biso   1.000  C
  H91      1.0000 0.49839  0.53249  0.37590  Biso   1.000  H
  H92      1.0000 0.51313  0.48212  0.32992  Biso   1.000  H
  C80      1.0000 0.49190  0.28601  0.77029  Biso   1.000  C
  H93      1.0000 0.47960  0.36242  0.78516  Biso   1.000  H
  C81      1.0000 0.64410  0.47239  0.63218  Biso   1.000  C
  H94      1.0000 0.58979  0.54709  0.46676  Biso   1.000  H
  H95      1.0000 0.54010  0.53368  0.56643  Biso   1.000  H
  C82      1.0000 0.51209  0.25681  0.69130  Biso   1.000  C
  C83      1.0000 0.47111  0.26113  0.88320  Biso   1.000  C
  C84      1.0000 0.69253  0.49011  0.72159  Biso   1.000  C
  H96      1.0000 0.64639  0.45351  0.56153  Biso   1.000  H
  C85      1.0000 0.50990  0.20240  0.72159  Biso   1.000  C
  H97      1.0000 0.52761  0.27440  0.61585  Biso   1.000  H
  C86      1.0000 0.46994  0.20772  0.91911  Biso   1.000  C
  H98      1.0000 0.45761  0.28041  0.93670  Biso   1.000  H
  C87      1.0000 0.68990  0.51119  0.83731  Biso   1.000  C
  C88      1.0000 0.74471  0.48791  0.69130  Biso   1.000  C
  C89      1.0000 0.48879  0.17871  0.83731  Biso   1.000  C
  C90      1.0000 0.52759  0.17168  0.63218  Biso   1.000  C
  C91      1.0000 0.44578  0.18050  0.03963  Biso   1.000  C
  C92      1.0000 0.73781  0.53010  0.91911  Biso   1.000  C
  H99      1.0000 0.65502  0.51261  0.86007  Biso   1.000  H
  H100     1.0000 0.74681  0.47239  0.61585  Biso   1.000  H
  C93      1.0000 0.79410  0.50811  0.77029  Biso   1.000  C
  H101     1.0000 0.48741  0.14239  0.86007  Biso   1.000  H
  N15      1.0000 0.51873  0.11842  0.64469  Biso   1.000  N
  H102     1.0000 0.54650  0.19289  0.56153  Biso   1.000  H
  N16      1.0000 0.42480  0.20350  0.11182  Biso   1.000  N
  H103     1.0000 0.44638  0.14519  0.06230  Biso   1.000  H
  C94      1.0000 0.79002  0.52891  0.88320  Biso   1.000  C
  C95      1.0000 0.73472  0.55421  0.03963  Biso   1.000  C
  C96      1.0000 0.85161  0.51091  0.72939  Biso   1.000  C
  C97      1.0000 0.53699  0.09339  0.54367  Biso   1.000  C
  C98      1.0000 0.40000  0.17411  0.22926  Biso   1.000  C
  H104     1.0000 0.82282  0.54241  0.93670  Biso   1.000  H
  N17      1.0000 0.77869  0.57519  0.11182  Biso   1.000  N
  H105     1.0000 0.69883  0.55361  0.06230  Biso   1.000  H
  N18      1.0000 0.85900  0.50081  0.62193  Biso   1.000  N
  H106     1.0000 0.88280  0.52041  0.78516  Biso   1.000  H
  H107     1.0000 0.55301  0.12328  0.47737  Biso   1.000  H
  C99      1.0000 0.48411  0.03462  0.49887  Biso   1.000  C
  C100     1.0000 0.58790  0.08219  0.59046  Biso   1.000  C
  C101     1.0000 0.43229  0.22159  0.32683  Biso   1.000  C
  H108     1.0000 0.40750  0.13972  0.24086  Biso   1.000  H
  C102     1.0000 0.33139  0.15061  0.22717  Biso   1.000  C
  C103     1.0000 0.77411  0.59999  0.22926  Biso   1.000  C
  C104     1.0000 0.91780  0.50572  0.59046  Biso   1.000  C
  H109     1.0000 0.45292  0.04270  0.46676  Biso   1.000  H
  H110     1.0000 0.46629  0.00638  0.56643  Biso   1.000  H
  C105     1.0000 0.50280  0.00441  0.40038  Biso   1.000  C
  N19      1.0000 0.64180  0.14101  0.62193  Biso   1.000  N
  H111     1.0000 0.57353  0.05551  0.66201  Biso   1.000  H
  C106     1.0000 0.60731  0.05262  0.49125  Biso   1.000  C
  N20      1.0000 0.49691  0.23670  0.33228  Biso   1.000  N
  H112     1.0000 0.43060  0.25869  0.30679  Biso   1.000  H
  C107     1.0000 0.40340  0.19808  0.44971  Biso   1.000  C
  H113     1.0000 0.31181  0.11750  0.16877  Biso   1.000  H
  H114     1.0000 0.32420  0.18339  0.20214  Biso   1.000  H
  C108     1.0000 0.30290  0.12719  0.35368  Biso   1.000  C
  C109     1.0000 0.78930  0.56771  0.32683  Biso   1.000  C
  H115     1.0000 0.73219  0.59250  0.24086  Biso   1.000  H
  C110     1.0000 0.81918  0.66859  0.22717  Biso   1.000  C
  C111     1.0000 0.90662  0.44360  0.54367  Biso   1.000  C
  H116     1.0000 0.94452  0.51803  0.66201  Biso   1.000  H
  C112     1.0000 0.94743  0.55471  0.49125  Biso   1.000  C
  H117     1.0000 0.51792  0.03099  0.32992  Biso   1.000  H
  C113     1.0000 0.55222  0.99302  0.44881  Biso   1.000  C
  H118     1.0000 0.46747  0.96588  0.37590  Biso   1.000  H
  C114     1.0000 0.65930  0.14840  0.72939  Biso   1.000  C
  H119     1.0000 0.62471  0.08058  0.42332  Biso   1.000  H
  H120     1.0000 0.63851  0.04440  0.52272  Biso   1.000  H
  C115     1.0000 0.53852  0.29281  0.32393  Biso   1.000  C
  C116     1.0000 0.33471  0.17641  0.44427  Biso   1.000  C
  H121     1.0000 0.42311  0.23050  0.50948  Biso   1.000  H
  H122     1.0000 0.40920  0.16420  0.47402  Biso   1.000  H
  H123     1.0000 0.25959  0.11470  0.35186  Biso   1.000  H
  H124     1.0000 0.30648  0.09188  0.37580  Biso   1.000  H
  N21      1.0000 0.73982  0.50310  0.33228  Biso   1.000  N
  H125     1.0000 0.82813  0.56941  0.30679  Biso   1.000  H
  C117     1.0000 0.79472  0.59659  0.44971  Biso   1.000  C
  H126     1.0000 0.80568  0.68819  0.16877  Biso   1.000  H
  H127     1.0000 0.85921  0.67579  0.20214  Biso   1.000  H
  C118     1.0000 0.82429  0.69710  0.35368  Biso   1.000  C
  N22      1.0000 0.88159  0.40030  0.64469  Biso   1.000  N
  H128     1.0000 0.87668  0.42968  0.47737  Biso   1.000  H
  C119     1.0000 0.96542  0.44952  0.49887  Biso   1.000  C
  H129     1.0000 0.91942  0.54411  0.42332  Biso   1.000  H
  H130     1.0000 0.95560  0.59411  0.52272  Biso   1.000  H
  C120     1.0000 0.00702  0.55921  0.44881  Biso   1.000  C
  H131     1.0000 0.56498  0.97488  0.38578  Biso   1.000  H
  H132     1.0000 0.53609  0.96441  0.51601  Biso   1.000  H
  C121     1.0000 0.71401  0.20589  0.77029  Biso   1.000  C
  H133     1.0000 0.63762  0.11722  0.78516  Biso   1.000  H
  C122     1.0000 0.60413  0.31411  0.32493  Biso   1.000  C
  H134     1.0000 0.52632  0.32201  0.31659  Biso   1.000  H
  H135     1.0000 0.31658  0.16140  0.52353  Biso   1.000  H
  H136     1.0000 0.32920  0.21089  0.42378  Biso   1.000  H
  C123     1.0000 0.75429  0.46150  0.32393  Biso   1.000  C
  C124     1.0000 0.84173  0.66533  0.44427  Biso   1.000  C
  H137     1.0000 0.80741  0.57689  0.50948  Biso   1.000  H
  H138     1.0000 0.75500  0.59080  0.47402  Biso   1.000  H
  H139     1.0000 0.85509  0.74040  0.35186  Biso   1.000  H
  H140     1.0000 0.78540  0.69352  0.37580  Biso   1.000  H
  C125     1.0000 0.82830  0.35590  0.63218  Biso   1.000  C
  H141     1.0000 0.95733  0.41022  0.46676  Biso   1.000  H
  H142     1.0000 0.99359  0.45990  0.56643  Biso   1.000  H
  C126     1.0000 0.99563  0.49842  0.40038  Biso   1.000  C
  H143     1.0000 0.02510  0.59011  0.38578  Biso   1.000  H
  H144     1.0000 0.03561  0.57170  0.51601  Biso   1.000  H
  C127     1.0000 0.74320  0.25529  0.69130  Biso   1.000  C
  C128     1.0000 0.73894  0.21002  0.88320  Biso   1.000  C
  C129     1.0000 0.64674  0.37523  0.32547  Biso   1.000  C
  C130     1.0000 0.62482  0.27150  0.32547  Biso   1.000  C
  C131     1.0000 0.70999  0.39589  0.32493  Biso   1.000  C
  H145     1.0000 0.79571  0.47372  0.31659  Biso   1.000  H
  H146     1.0000 0.84481  0.68342  0.52353  Biso   1.000  H
  H147     1.0000 0.88172  0.67079  0.42378  Biso   1.000  H
  C132     1.0000 0.79762  0.30750  0.72159  Biso   1.000  C
  H148     1.0000 0.80711  0.35360  0.56153  Biso   1.000  H
  H149     1.0000 0.96899  0.48690  0.32992  Biso   1.000  H
  H150     1.0000 0.03408  0.50159  0.37590  Biso   1.000  H
  H151     1.0000 0.72560  0.25318  0.61585  Biso   1.000  H
  C133     1.0000 0.79230  0.26218  0.91911  Biso   1.000  C
  H152     1.0000 0.71962  0.17719  0.93670  Biso   1.000  H
  H153     1.0000 0.63350  0.40379  0.32629  Biso   1.000  H
  H154     1.0000 0.59621  0.22972  0.32629  Biso   1.000  H
  C134     1.0000 0.68592  0.29001  0.32493  Biso   1.000  C
  C135     1.0000 0.72852  0.35333  0.32547  Biso   1.000  C
  C136     1.0000 0.82131  0.31012  0.83731  Biso   1.000  C
  C137     1.0000 0.81951  0.26530  0.03963  Biso   1.000  C
  C138     1.0000 0.70719  0.24570  0.32393  Biso   1.000  C
  H155     1.0000 0.77030  0.36650  0.32629  Biso   1.000  H
  H156     1.0000 0.85761  0.34501  0.86007  Biso   1.000  H
  N23      1.0000 0.79652  0.22132  0.11182  Biso   1.000  N
  H157     1.0000 0.85480  0.30121  0.06230  Biso   1.000  H
  N24      1.0000 0.76331  0.26021  0.33228  Biso   1.000  N
  H158     1.0000 0.67801  0.20428  0.31659  Biso   1.000  H
  C139     1.0000 0.82589  0.22591  0.22926  Biso   1.000  C
  C140     1.0000 0.77841  0.21071  0.32683  Biso   1.000  C
  H159     1.0000 0.86031  0.26778  0.24086  Biso   1.000  H
  C141     1.0000 0.84944  0.18082  0.22717  Biso   1.000  C
  H160     1.0000 0.74132  0.17191  0.30679  Biso   1.000  H
  C142     1.0000 0.80191  0.20529  0.44971  Biso   1.000  C
  H161     1.0000 0.88251  0.19432  0.16877  Biso   1.000  H
  H162     1.0000 0.81661  0.14078  0.20214  Biso   1.000  H
  C143     1.0000 0.87281  0.17572  0.35368  Biso   1.000  C
  C144     1.0000 0.82363  0.15832  0.44427  Biso   1.000  C
  H163     1.0000 0.76952  0.19262  0.50948  Biso   1.000  H
  H164     1.0000 0.83580  0.24501  0.47402  Biso   1.000  H
  H165     1.0000 0.88532  0.14491  0.35186  Biso   1.000  H
  H166     1.0000 0.90813  0.21461  0.37580  Biso   1.000  H
  H167     1.0000 0.83861  0.15520  0.52353  Biso   1.000  H
  H168     1.0000 0.78910  0.11828  0.42378  Biso   1.000  H
  C145     1.0000 0.38732  0.41040  0.91530  Biso   1.000  C
  C146     1.0000 0.39182  0.47340  0.92210  Biso   1.000  C
  H169     1.0000 0.34551  0.37959  0.89526  Biso   1.000  H
  H170     1.0000 0.41382  0.41090  0.85091  Biso   1.000  H
  C147     1.0000 0.40542  0.39290  0.03292  Biso   1.000  C
  N25      1.0000 0.36620  0.48180  0.81110  Biso   1.000  N
  H171     1.0000 0.43460  0.50600  0.93180  Biso   1.000  H
  C148     1.0000 0.35220  0.47408  0.02802  Biso   1.000  C
  C149     1.0000 0.36469  0.39258  0.13331  Biso   1.000  C
  H172     1.0000 0.40112  0.35250  0.02521  Biso   1.000  H
  H173     1.0000 0.44801  0.42211  0.05142  Biso   1.000  H
  C150     1.0000 0.40150  0.52560  0.74145  Biso   1.000  C
  N26      1.0000 0.36391  0.53671  0.03909  Biso   1.000  N
  H174     1.0000 0.30859  0.44612  0.01061  Biso   1.000  H
  C151     1.0000 0.37020  0.45489  0.14591  Biso   1.000  C
  H175     1.0000 0.37642  0.38152  0.20912  Biso   1.000  H
  H176     1.0000 0.32240  0.36200  0.11617  Biso   1.000  H
  C152     1.0000 0.38142  0.53570  0.62138  Biso   1.000  C
  H177     1.0000 0.44150  0.55233  0.76675  Biso   1.000  H
  C153     1.0000 0.31961  0.54672  0.02684  Biso   1.000  C
  H178     1.0000 0.41211  0.48510  0.16668  Biso   1.000  H
  H179     1.0000 0.34368  0.45379  0.21103  Biso   1.000  H
  C154     1.0000 0.32047  0.49938  0.58547  Biso   1.000  C
  C155     1.0000 0.42412  0.57561  0.53732  Biso   1.000  C
  H180     1.0000 0.28039  0.51330  0.01551  Biso   1.000  H
  C156     1.0000 0.32670  0.60830  0.02938  Biso   1.000  C
  C157     1.0000 0.30292  0.50301  0.46867  Biso   1.000  C
  H181     1.0000 0.29142  0.47262  0.64061  Biso   1.000  H
  C158     1.0000 0.40650  0.57983  0.42051  Biso   1.000  C
  H182     1.0000 0.46499  0.59962  0.55999  Biso   1.000  H
  C159     1.0000 0.27599  0.61482  0.03101  Biso   1.000  C
  C160     1.0000 0.38519  0.66119  0.03101  Biso   1.000  C
  C161     1.0000 0.23931  0.46049  0.42895  Biso   1.000  C
  C162     1.0000 0.34701  0.54443  0.38814  Biso   1.000  C
  C163     1.0000 0.45119  0.61909  0.33037  Biso   1.000  C
  C164     1.0000 0.28162  0.67332  0.02938  Biso   1.000  C
  H183     1.0000 0.23720  0.58001  0.03319  Biso   1.000  H
  C165     1.0000 0.39169  0.71840  0.02938  Biso   1.000  C
  H184     1.0000 0.42002  0.65720  0.03319  Biso   1.000  H
  N27      1.0000 0.22340  0.45260  0.31840  Biso   1.000  N
  H185     1.0000 0.20971  0.43859  0.48762  Biso   1.000  H
  H186     1.0000 0.33511  0.54783  0.30997  Biso   1.000  H
  N28      1.0000 0.50780  0.64411  0.34606  Biso   1.000  N
  H187     1.0000 0.43692  0.62602  0.25764  Biso   1.000  H
  C166     1.0000 0.22710  0.68039  0.02684  Biso   1.000  C
  C167     1.0000 0.33882  0.72401  0.03101  Biso   1.000  C
  C168     1.0000 0.45330  0.77291  0.02684  Biso   1.000  C
  C169     1.0000 0.15901  0.41210  0.29047  Biso   1.000  C
  C170     1.0000 0.54991  0.68039  0.24812  Biso   1.000  C
  N29      1.0000 0.17280  0.63612  0.03909  Biso   1.000  N
  H188     1.0000 0.23291  0.71960  0.01551  Biso   1.000  H
  H189     1.0000 0.34279  0.76281  0.03319  Biso   1.000  H
  N30      1.0000 0.46332  0.82723  0.03909  Biso   1.000  N
  H190     1.0000 0.48671  0.76712  0.01551  Biso   1.000  H
  C171     1.0000 0.15208  0.36659  0.19017  Biso   1.000  C
  H191     1.0000 0.13761  0.38919  0.36356  Biso   1.000  H
  C172     1.0000 0.13050  0.45012  0.24812  Biso   1.000  C
  C173     1.0000 0.58791  0.74692  0.29047  Biso   1.000  C
  H192     1.0000 0.52552  0.67901  0.17747  Biso   1.000  H
  C174     1.0000 0.59002  0.65403  0.21239  Biso   1.000  C
  C175     1.0000 0.12189  0.64779  0.02802  Biso   1.000  C
  C176     1.0000 0.52590  0.87810  0.02802  Biso   1.000  C
  H193     1.0000 0.17522  0.38932  0.11943  Biso   1.000  H
  H194     1.0000 0.16922  0.34171  0.21819  Biso   1.000  H
  C177     1.0000 0.08599  0.32532  0.15507  Biso   1.000  C
  N31      1.0000 0.13632  0.49222  0.34606  Biso   1.000  N
  H195     1.0000 0.15350  0.47450  0.17747  Biso   1.000  H
  C178     1.0000 0.06399  0.40999  0.21239  Biso   1.000  C
  N32      1.0000 0.54740  0.77080  0.31840  Biso   1.000  N
  C179     1.0000 0.63340  0.78549  0.19017  Biso   1.000  C
  H196     1.0000 0.61079  0.74839  0.36356  Biso   1.000  H
  H197     1.0000 0.56450  0.61271  0.18119  Biso   1.000  H
  H198     1.0000 0.61142  0.65150  0.28340  Biso   1.000  H
  C180     1.0000 0.63730  0.69389  0.11481  Biso   1.000  C
  C181     1.0000 0.08162  0.60821  0.92210  Biso   1.000  C
  H199     1.0000 0.13750  0.69141  0.01061  Biso   1.000  H
  C182     1.0000 0.08470  0.62979  0.14591  Biso   1.000  C
  C183     1.0000 0.52661  0.91842  0.92210  Biso   1.000  C
  H200     1.0000 0.55388  0.86249  0.01061  Biso   1.000  H
  C184     1.0000 0.54509  0.91529  0.14591  Biso   1.000  C
  C185     1.0000 0.05660  0.36269  0.11481  Biso   1.000  C
  H201     1.0000 0.06348  0.29979  0.22381  Biso   1.000  H
  H202     1.0000 0.08359  0.29841  0.08960  Biso   1.000  H
  C186     1.0000 0.16791  0.54879  0.33037  Biso   1.000  C
  H203     1.0000 0.04820  0.43552  0.18119  Biso   1.000  H
  H204     1.0000 0.04009  0.38859  0.28340  Biso   1.000  H
  C187     1.0000 0.53953  0.77883  0.42895  Biso   1.000  C
  H205     1.0000 0.61070  0.78590  0.11943  Biso   1.000  H
  H206     1.0000 0.65830  0.82750  0.21819  Biso   1.000  H
  C188     1.0000 0.67468  0.76069  0.15507  Biso   1.000  C
  H207     1.0000 0.66471  0.67800  0.09921  Biso   1.000  H
  H208     1.0000 0.61600  0.69159  0.03990  Biso   1.000  H
  N33      1.0000 0.11563  0.63383  0.81110  Biso   1.000  N
  H209     1.0000 0.07140  0.56541  0.93180  Biso   1.000  H
  C189     1.0000 0.02311  0.61271  0.91530  Biso   1.000  C
  C190     1.0000 0.02788  0.63530  0.13331  Biso   1.000  C
  H210     1.0000 0.07298  0.58791  0.16668  Biso   1.000  H
  H211     1.0000 0.11009  0.65633  0.21103  Biso   1.000  H
  N34      1.0000 0.51819  0.88439  0.81110  Biso   1.000  N
  H212     1.0000 0.49401  0.92861  0.93180  Biso   1.000  H
  C191     1.0000 0.58962  0.97691  0.91530  Biso   1.000  C
  H213     1.0000 0.51492  0.92700  0.16668  Biso   1.000  H
  H214     1.0000 0.54619  0.88990  0.21103  Biso   1.000  H
  C192     1.0000 0.60741  0.97209  0.13331  Biso   1.000  C
  H215     1.0000 0.01330  0.33533  0.09921  Biso   1.000  H
  H216     1.0000 0.07561  0.38400  0.03990  Biso   1.000  H
  C193     1.0000 0.17329  0.59351  0.42051  Biso   1.000  C
  H217     1.0000 0.18911  0.56312  0.25764  Biso   1.000  H
  H218     1.0000 0.56140  0.77112  0.48762  Biso   1.000  H
  C194     1.0000 0.49702  0.79991  0.46867  Biso   1.000  C
  H219     1.0000 0.70022  0.76372  0.22381  Biso   1.000  H
  H220     1.0000 0.70162  0.78521  0.08960  Biso   1.000  H
  C195     1.0000 0.12410  0.59852  0.74145  Biso   1.000  C
  H221     1.0000 0.03410  0.65449  0.89526  Biso   1.000  H
  H222     1.0000 0.99710  0.58621  0.85091  Biso   1.000  H
  C196     1.0000 0.98750  0.59461  0.03292  Biso   1.000  C
  H223     1.0000 0.00509  0.62359  0.20912  Biso   1.000  H
  H224     1.0000 0.03960  0.67759  0.11617  Biso   1.000  H
  C197     1.0000 0.47441  0.87590  0.74145  Biso   1.000  C
  H225     1.0000 0.62041  0.96589  0.89526  Biso   1.000  H
  H226     1.0000 0.58909  0.00290  0.85091  Biso   1.000  H
  C198     1.0000 0.60709  0.01250  0.03292  Biso   1.000  C
  H227     1.0000 0.61850  0.99491  0.20912  Biso   1.000  H
  H228     1.0000 0.63800  0.96043  0.11617  Biso   1.000  H
  C199     1.0000 0.19739  0.65302  0.38814  Biso   1.000  C
  C200     1.0000 0.15153  0.57593  0.53732  Biso   1.000  C
  C201     1.0000 0.45563  0.80262  0.38814  Biso   1.000  C
  C202     1.0000 0.50063  0.82112  0.58547  Biso   1.000  C
  C203     1.0000 0.15431  0.61863  0.62138  Biso   1.000  C
  H229     1.0000 0.11082  0.55852  0.76675  Biso   1.000  H
  H230     1.0000 0.95138  0.59888  0.02521  Biso   1.000  H
  H231     1.0000 0.97411  0.55200  0.05142  Biso   1.000  H
  C204     1.0000 0.46430  0.84573  0.62138  Biso   1.000  C
  H232     1.0000 0.44771  0.88921  0.76675  Biso   1.000  H
  H233     1.0000 0.64748  0.04859  0.02521  Biso   1.000  H
  H234     1.0000 0.57793  0.02591  0.05142  Biso   1.000  H
  C205     1.0000 0.20011  0.69710  0.46867  Biso   1.000  C
  H235     1.0000 0.21269  0.66491  0.30997  Biso   1.000  H
  H236     1.0000 0.13461  0.53502  0.55999  Biso   1.000  H
  C206     1.0000 0.42020  0.82672  0.42051  Biso   1.000  C
  H237     1.0000 0.45220  0.78733  0.30997  Biso   1.000  H
  H238     1.0000 0.52739  0.81882  0.64061  Biso   1.000  H
  C207     1.0000 0.17891  0.67951  0.58547  Biso   1.000  C
  C208     1.0000 0.42442  0.84853  0.53732  Biso   1.000  C
  C209     1.0000 0.22121  0.76069  0.42895  Biso   1.000  C
  C210     1.0000 0.38089  0.83209  0.33037  Biso   1.000  C
  H239     1.0000 0.18122  0.70862  0.64061  Biso   1.000  H
  H240     1.0000 0.40043  0.86543  0.55999  Biso   1.000  H
  N35      1.0000 0.22922  0.77663  0.31840  Biso   1.000  N
  H241     1.0000 0.22890  0.79031  0.48762  Biso   1.000  H
  N36      1.0000 0.35591  0.86373  0.34606  Biso   1.000  N
  H242     1.0000 0.37401  0.81093  0.25764  Biso   1.000  H
  C211     1.0000 0.25309  0.84100  0.29047  Biso   1.000  C
  C212     1.0000 0.31960  0.86952  0.24812  Biso   1.000  C
  C213     1.0000 0.21450  0.84789  0.19017  Biso   1.000  C
  H243     1.0000 0.25158  0.86240  0.36356  Biso   1.000  H
  H244     1.0000 0.32102  0.84651  0.17747  Biso   1.000  H
  C214     1.0000 0.34600  0.93600  0.21239  Biso   1.000  C
  H245     1.0000 0.21409  0.82479  0.11943  Biso   1.000  H
  H246     1.0000 0.17248  0.83081  0.21819  Biso   1.000  H
  C215     1.0000 0.23929  0.91401  0.15507  Biso   1.000  C
  C216     1.0000 0.30608  0.94339  0.11481  Biso   1.000  C
  H247     1.0000 0.38730  0.95180  0.18119  Biso   1.000  H
  H248     1.0000 0.34850  0.95992  0.28340  Biso   1.000  H
  H249     1.0000 0.23631  0.93651  0.22381  Biso   1.000  H
  H250     1.0000 0.21480  0.91640  0.08960  Biso   1.000  H
  H251     1.0000 0.32200  0.98669  0.09921  Biso   1.000  H
  H252     1.0000 0.30841  0.92443  0.03990  Biso   1.000  H
  Ne1      1.0000 0.00000  0.00000  0.16016  Biso   1.000  Ne
  He1      1.0000 0.91388  0.90600  0.25453  Biso   1.000  He
  He2      1.0000 0.99238  0.08382  0.25276  Biso   1.000  He
  He3      1.0000 0.09644  0.00806  0.25622  Biso   1.000  He
  He4      1.0000 0.00001  1.00000  0.90953  Biso   1.000  He
  Ar1      1.0000 0.00003  0.00000  0.16019  Biso   1.000  Ar
  Ne2      1.0000 0.33334  0.66667  0.62504  Biso   1.000  Ne
  He5      1.0000 0.42373  0.68221  0.72997  Biso   1.000  He
  He6      1.0000 0.22634  0.53639  0.75575  Biso   1.000  He
  He7      1.0000 0.31076  0.77080  0.75343  Biso   1.000  He
  He8      1.0000 0.33333  0.66669  0.37551  Biso   1.000  He
  Ar2      1.0000 0.33335  0.66668  0.62504  Biso   1.000  Ar
  Ne3      1.0000 0.66667  0.33334  0.92513  Biso   1.000  Ne
  He9      1.0000 0.61424  0.21131  0.03018  Biso   1.000  He
  He10     1.0000 0.59896  0.38437  0.02803  Biso   1.000  He
  He11     1.0000 0.78206  0.39911  0.02575  Biso   1.000  He
  He12     1.0000 0.66667  0.33333  0.68274  Biso   1.000  He
  Ar3      1.0000 0.66703  0.33356  0.95097  Biso   1.000  Ar
