data_image0
_cell_length_a       25.208
_cell_length_b       25.208
_cell_length_c       11.067
_cell_angle_alpha    90
_cell_angle_beta     90
_cell_angle_gamma    120

_symmetry_space_group_name_H-M    "P 1"
_symmetry_int_tables_number       1

loop_
  _symmetry_equiv_pos_as_xyz
  'x, y, z'

loop_
  _atom_site_label
  _atom_site_occupancy
  _atom_site_fract_x
  _atom_site_fract_y
  _atom_site_fract_z
  _atom_site_thermal_displace_type
  _atom_site_B_iso_or_equiv
  _atom_site_type_symbol
  C1       1.0000 0.38950  0.39389  0.51351  Biso   1.000  C
  C2       1.0000 0.39410  0.35642  0.41393  Biso   1.000  C
  C3       1.0000 0.39932  0.37250  0.63703  Biso   1.000  C
  H1       1.0000 0.34852  0.39032  0.51143  Biso   1.000  H
  H2       1.0000 0.42059  0.43750  0.50140  Biso   1.000  H
  C4       1.0000 0.45612  0.36169  0.41312  Biso   1.000  C
  H3       1.0000 0.38689  0.37049  0.33532  Biso   1.000  H
  H4       1.0000 0.36219  0.31300  0.42469  Biso   1.000  H
  C5       1.0000 0.46253  0.37722  0.64046  Biso   1.000  C
  H5       1.0000 0.39670  0.39820  0.70164  Biso   1.000  H
  H6       1.0000 0.36690  0.32949  0.65122  Biso   1.000  H
  C6       1.0000 0.46963  0.34222  0.53492  Biso   1.000  C
  H7       1.0000 0.48781  0.40461  0.39568  Biso   1.000  H
  H8       1.0000 0.45769  0.33540  0.34833  Biso   1.000  H
  N1       1.0000 0.46791  0.35061  0.75314  Biso   1.000  N
  H9       1.0000 0.49531  0.42129  0.63622  Biso   1.000  H
  N2       1.0000 0.53288  0.35583  0.53330  Biso   1.000  N
  H10      1.0000 0.44161  0.29729  0.54676  Biso   1.000  H
  C7       1.0000 0.50899  0.38501  0.82561  Biso   1.000  C
  C8       1.0000 0.54452  0.31341  0.54224  Biso   1.000  C
  H11      1.0000 0.53553  0.42642  0.80284  Biso   1.000  H
  C9       1.0000 0.51809  0.36481  0.94307  Biso   1.000  C
  C10      1.0000 0.60680  0.32340  0.54071  Biso   1.000  C
  H12      1.0000 0.51130  0.27269  0.55056  Biso   1.000  H
  C11      1.0000 0.48781  0.30329  0.97723  Biso   1.000  C
  C12      1.0000 0.55610  0.40759  0.02684  Biso   1.000  C
  C13      1.0000 0.65763  0.38263  0.54125  Biso   1.000  C
  C14      1.0000 0.61744  0.27502  0.54125  Biso   1.000  C
  H13      1.0000 0.46192  0.27301  0.92076  Biso   1.000  H
  C15      1.0000 0.49460  0.28570  0.08991  Biso   1.000  C
  H14      1.0000 0.57731  0.44969  0.00497  Biso   1.000  H
  C16      1.0000 0.56420  0.39110  0.14078  Biso   1.000  C
  C17      1.0000 0.71660  0.39321  0.54071  Biso   1.000  C
  H15      1.0000 0.65110  0.41661  0.54206  Biso   1.000  H
  C18      1.0000 0.67661  0.28341  0.54071  Biso   1.000  C
  H16      1.0000 0.58340  0.23449  0.54206  Biso   1.000  H
  C19      1.0000 0.53411  0.32949  0.17087  Biso   1.000  C
  C20      1.0000 0.45998  0.21978  0.12524  Biso   1.000  C
  C21      1.0000 0.60083  0.43833  0.23060  Biso   1.000  C
  C22      1.0000 0.72500  0.34241  0.54125  Biso   1.000  C
  C23      1.0000 0.76893  0.45550  0.54224  Biso   1.000  C
  C24      1.0000 0.68660  0.23110  0.54224  Biso   1.000  C
  H17      1.0000 0.54063  0.31721  0.24813  Biso   1.000  H
  N3       1.0000 0.45523  0.20251  0.23177  Biso   1.000  N
  H18      1.0000 0.44103  0.18982  0.06361  Biso   1.000  H
  H19      1.0000 0.61209  0.42619  0.30297  Biso   1.000  H
  N4       1.0000 0.61772  0.49329  0.21614  Biso   1.000  N
  H20      1.0000 0.76550  0.34891  0.54206  Biso   1.000  H
  N5       1.0000 0.82295  0.46714  0.53330  Biso   1.000  N
  H21      1.0000 0.76142  0.48871  0.55056  Biso   1.000  H
  N6       1.0000 0.64422  0.17704  0.53330  Biso   1.000  N
  H22      1.0000 0.72733  0.23861  0.55056  Biso   1.000  H
  C25      1.0000 0.42039  0.13719  0.25562  Biso   1.000  C
  C26      1.0000 0.65441  0.53741  0.30930  Biso   1.000  C
  C27      1.0000 0.87263  0.53040  0.53492  Biso   1.000  C
  C28      1.0000 0.65779  0.12739  0.53492  Biso   1.000  C
  H23      1.0000 0.40292  0.11470  0.17819  Biso   1.000  H
  C29      1.0000 0.46261  0.11699  0.30930  Biso   1.000  C
  C30      1.0000 0.36741  0.12501  0.34372  Biso   1.000  C
  C31      1.0000 0.71680  0.57959  0.25562  Biso   1.000  C
  H24      1.0000 0.65881  0.51533  0.38014  Biso   1.000  H
  C32      1.0000 0.62313  0.57282  0.34924  Biso   1.000  C
  H25      1.0000 0.85572  0.55839  0.54676  Biso   1.000  H
  C33      1.0000 0.91469  0.53750  0.64046  Biso   1.000  C
  C34      1.0000 0.90560  0.54391  0.41312  Biso   1.000  C
  H26      1.0000 0.70270  0.14429  0.54676  Biso   1.000  H
  C35      1.0000 0.62282  0.08529  0.64046  Biso   1.000  C
  C36      1.0000 0.63833  0.09441  0.41312  Biso   1.000  C
  H27      1.0000 0.48472  0.14351  0.38014  Biso   1.000  H
  N7       1.0000 0.50671  0.12441  0.21614  Biso   1.000  N
  C37      1.0000 0.42720  0.05030  0.34924  Biso   1.000  C
  H28      1.0000 0.38413  0.15162  0.41574  Biso   1.000  H
  H29      1.0000 0.33823  0.13472  0.30324  Biso   1.000  H
  C38      1.0000 0.33408  0.05749  0.38240  Biso   1.000  C
  H30      1.0000 0.71179  0.59709  0.17819  Biso   1.000  H
  N8       1.0000 0.74730  0.54483  0.23177  Biso   1.000  N
  C39      1.0000 0.75759  0.63259  0.34372  Biso   1.000  C
  H31      1.0000 0.61443  0.59073  0.27758  Biso   1.000  H
  H32      1.0000 0.58362  0.54442  0.38845  Biso   1.000  H
  C40      1.0000 0.66292  0.62320  0.43661  Biso   1.000  C
  N9       1.0000 0.88272  0.53209  0.75314  Biso   1.000  N
  H33      1.0000 0.92603  0.50470  0.63622  Biso   1.000  H
  C41      1.0000 0.97320  0.60071  0.63703  Biso   1.000  C
  H34      1.0000 0.91681  0.51221  0.39568  Biso   1.000  H
  H35      1.0000 0.87771  0.54231  0.34833  Biso   1.000  H
  C42      1.0000 0.96230  0.60589  0.41393  Biso   1.000  C
  N10      1.0000 0.64942  0.11731  0.75314  Biso   1.000  N
  H36      1.0000 0.57871  0.07402  0.63622  Biso   1.000  H
  C43      1.0000 0.62749  0.02680  0.63703  Biso   1.000  C
  H37      1.0000 0.59539  0.08319  0.39568  Biso   1.000  H
  H38      1.0000 0.66461  0.12230  0.34833  Biso   1.000  H
  C44      1.0000 0.64361  0.03770  0.41393  Biso   1.000  C
  C45      1.0000 0.56170  0.16252  0.23060  Biso   1.000  C
  H39      1.0000 0.40929  0.02368  0.27758  Biso   1.000  H
  H40      1.0000 0.45562  0.03921  0.38845  Biso   1.000  H
  C46      1.0000 0.37681  0.03971  0.43661  Biso   1.000  C
  H41      1.0000 0.30189  0.05039  0.44194  Biso   1.000  H
  H42      1.0000 0.31388  0.03129  0.31111  Biso   1.000  H
  C47      1.0000 0.75981  0.54002  0.12524  Biso   1.000  C
  H43      1.0000 0.76754  0.61592  0.41574  Biso   1.000  H
  H44      1.0000 0.79652  0.66182  0.30324  Biso   1.000  H
  C48      1.0000 0.72342  0.66590  0.38240  Biso   1.000  C
  H45      1.0000 0.64209  0.64620  0.45938  Biso   1.000  H
  H46      1.0000 0.66890  0.60502  0.51089  Biso   1.000  H
  C49      1.0000 0.87602  0.49100  0.82561  Biso   1.000  C
  H47      1.0000 0.96261  0.63310  0.65122  Biso   1.000  H
  H48      1.0000 0.00152  0.60332  0.70164  Biso   1.000  H
  C50      1.0000 0.00440  0.61051  0.51351  Biso   1.000  C
  H49      1.0000 0.98361  0.61313  0.33532  Biso   1.000  H
  H50      1.0000 0.95081  0.63782  0.42469  Biso   1.000  H
  C51      1.0000 0.61500  0.12400  0.82561  Biso   1.000  C
  H51      1.0000 0.67051  0.03738  0.65122  Biso   1.000  H
  H52      1.0000 0.60179  0.99849  0.70164  Biso   1.000  H
  C52      1.0000 0.60610  0.99560  0.51351  Biso   1.000  C
  H53      1.0000 0.62951  0.01640  0.33532  Biso   1.000  H
  H54      1.0000 0.68701  0.04920  0.42469  Biso   1.000  H
  H55      1.0000 0.57378  0.18588  0.30297  Biso   1.000  H
  C53      1.0000 0.60893  0.17310  0.14078  Biso   1.000  C
  H56      1.0000 0.35380  0.99592  0.45938  Biso   1.000  H
  H57      1.0000 0.39501  0.06390  0.51089  Biso   1.000  H
  C54      1.0000 0.79109  0.50539  0.08991  Biso   1.000  C
  H58      1.0000 0.74881  0.55903  0.06361  Biso   1.000  H
  H59      1.0000 0.74849  0.69810  0.44194  Biso   1.000  H
  H60      1.0000 0.71741  0.68610  0.31111  Biso   1.000  H
  H61      1.0000 0.89094  0.46453  0.80284  Biso   1.000  H
  C55      1.0000 0.84670  0.48189  0.94307  Biso   1.000  C
  H62      1.0000 0.04180  0.65151  0.51143  Biso   1.000  H
  H63      1.0000 0.01690  0.57941  0.50140  Biso   1.000  H
  H64      1.0000 0.57360  0.10911  0.80284  Biso   1.000  H
  C56      1.0000 0.63521  0.15332  0.94307  Biso   1.000  C
  H65      1.0000 0.60971  0.95822  0.51143  Biso   1.000  H
  H66      1.0000 0.56252  0.98310  0.50140  Biso   1.000  H
  C57      1.0000 0.59242  0.14851  0.02684  Biso   1.000  C
  C58      1.0000 0.67050  0.20462  0.17087  Biso   1.000  C
  C59      1.0000 0.81553  0.51221  0.97723  Biso   1.000  C
  C60      1.0000 0.79539  0.46590  0.17087  Biso   1.000  C
  C61      1.0000 0.85152  0.44391  0.02684  Biso   1.000  C
  C62      1.0000 0.69671  0.18451  0.97723  Biso   1.000  C
  H67      1.0000 0.55032  0.12762  0.00497  Biso   1.000  H
  C63      1.0000 0.71431  0.20893  0.08991  Biso   1.000  C
  H68      1.0000 0.68283  0.22340  0.24813  Biso   1.000  H
  H69      1.0000 0.81110  0.53809  0.92076  Biso   1.000  H
  C64      1.0000 0.82692  0.43581  0.14078  Biso   1.000  C
  H70      1.0000 0.77659  0.45940  0.24813  Biso   1.000  H
  H71      1.0000 0.87241  0.42271  0.00497  Biso   1.000  H
  H72      1.0000 0.72703  0.18891  0.92076  Biso   1.000  H
  C65      1.0000 0.78021  0.24021  0.12524  Biso   1.000  C
  C66      1.0000 0.83750  0.39921  0.23060  Biso   1.000  C
  N11      1.0000 0.79753  0.25272  0.23177  Biso   1.000  N
  H73      1.0000 0.81023  0.25121  0.06361  Biso   1.000  H
  H74      1.0000 0.81411  0.38789  0.30297  Biso   1.000  H
  N12      1.0000 0.87562  0.38230  0.21614  Biso   1.000  N
  C67      1.0000 0.86281  0.28322  0.25562  Biso   1.000  C
  C68      1.0000 0.88302  0.34561  0.30930  Biso   1.000  C
  H75      1.0000 0.88530  0.28822  0.17819  Biso   1.000  H
  C69      1.0000 0.87501  0.24241  0.34372  Biso   1.000  C
  H76      1.0000 0.85650  0.34122  0.38014  Biso   1.000  H
  C70      1.0000 0.94972  0.37690  0.34924  Biso   1.000  C
  H77      1.0000 0.84841  0.23252  0.41574  Biso   1.000  H
  H78      1.0000 0.86533  0.20352  0.30324  Biso   1.000  H
  C71      1.0000 0.94252  0.27658  0.38240  Biso   1.000  C
  H79      1.0000 0.97632  0.38560  0.27758  Biso   1.000  H
  H80      1.0000 0.96081  0.41638  0.38845  Biso   1.000  H
  C72      1.0000 0.96032  0.33709  0.43661  Biso   1.000  C
  H81      1.0000 0.94963  0.25153  0.44194  Biso   1.000  H
  H82      1.0000 0.96869  0.28258  0.31111  Biso   1.000  H
  H83      1.0000 0.93610  0.33109  0.51089  Biso   1.000  H
  H84      1.0000 0.00408  0.35789  0.45938  Biso   1.000  H
  C73      1.0000 0.22010  0.27970  0.60558  Biso   1.000  C
  C74      1.0000 0.17160  0.25029  0.50619  Biso   1.000  C
  H85      1.0000 0.20899  0.25121  0.67471  Biso   1.000  H
  H86      1.0000 0.26030  0.28790  0.57423  Biso   1.000  H
  C75      1.0000 0.22481  0.33911  0.64760  Biso   1.000  C
  N13      1.0000 0.16692  0.19198  0.47384  Biso   1.000  N
  H87      1.0000 0.18401  0.27773  0.43390  Biso   1.000  H
  C76      1.0000 0.10950  0.23852  0.55281  Biso   1.000  C
  C77      1.0000 0.16381  0.32761  0.69531  Biso   1.000  C
  H88      1.0000 0.25612  0.35752  0.71194  Biso   1.000  H
  H89      1.0000 0.23778  0.36829  0.57929  Biso   1.000  H
  C78      1.0000 0.17672  0.18492  0.36704  Biso   1.000  C
  N14      1.0000 0.06659  0.21378  0.45234  Biso   1.000  N
  H90      1.0000 0.09539  0.20792  0.62013  Biso   1.000  H
  C79      1.0000 0.11508  0.29729  0.59763  Biso   1.000  C
  H91      1.0000 0.16699  0.36691  0.71980  Biso   1.000  H
  H92      1.0000 0.15211  0.30072  0.76724  Biso   1.000  H
  C80      1.0000 0.17441  0.12739  0.32665  Biso   1.000  C
  H93      1.0000 0.18583  0.21662  0.31011  Biso   1.000  H
  C81      1.0000 0.02238  0.16060  0.46354  Biso   1.000  C
  H94      1.0000 0.07512  0.28900  0.63025  Biso   1.000  H
  H95      1.0000 0.12552  0.32601  0.52878  Biso   1.000  H
  C82      1.0000 0.19440  0.12340  0.21352  Biso   1.000  C
  C83      1.0000 0.15370  0.07819  0.40481  Biso   1.000  C
  H96      1.0000 0.02049  0.13889  0.53510  Biso   1.000  H
  C84      1.0000 0.97411  0.12968  0.37580  Biso   1.000  C
  H97      1.0000 0.20791  0.15671  0.15885  Biso   1.000  H
  C85      1.0000 0.19509  0.07068  0.17855  Biso   1.000  C
  C86      1.0000 0.15559  0.02588  0.37580  Biso   1.000  C
  H98      1.0000 0.13770  0.08039  0.48116  Biso   1.000  H
  C87      1.0000 0.92179  0.07549  0.40481  Biso   1.000  C
  C88      1.0000 0.97724  0.15322  0.25951  Biso   1.000  C
  C89      1.0000 0.17600  0.02281  0.25951  Biso   1.000  C
  C90      1.0000 0.21950  0.06729  0.05756  Biso   1.000  C
  C91      1.0000 0.13820  0.97760  0.46354  Biso   1.000  C
  H99      1.0000 0.91960  0.05730  0.48116  Biso   1.000  H
  C92      1.0000 0.87259  0.04700  0.32665  Biso   1.000  C
  H100     1.0000 0.01308  0.18969  0.23584  Biso   1.000  H
  C93      1.0000 0.92931  0.12441  0.17855  Biso   1.000  C
  H101     1.0000 0.17661  0.98690  0.23584  Biso   1.000  H
  H102     1.0000 0.21840  0.03051  0.03434  Biso   1.000  H
  N15      1.0000 0.24120  0.11140  0.98645  Biso   1.000  N
  H103     1.0000 0.11841  0.97952  0.53510  Biso   1.000  H
  N16      1.0000 0.14720  0.93340  0.45234  Biso   1.000  N
  C94      1.0000 0.81512  0.99180  0.36704  Biso   1.000  C
  C95      1.0000 0.87662  0.07100  0.21352  Biso   1.000  C
  C96      1.0000 0.93274  0.15222  0.05756  Biso   1.000  C
  C97      1.0000 0.26521  0.10508  0.86952  Biso   1.000  C
  C98      1.0000 0.12901  0.89052  0.55281  Biso   1.000  C
  N17      1.0000 0.80804  0.97494  0.47384  Biso   1.000  N
  H104     1.0000 0.78340  0.96922  0.31011  Biso   1.000  H
  H105     1.0000 0.84332  0.05121  0.15885  Biso   1.000  H
  N18      1.0000 0.88862  0.12982  0.98645  Biso   1.000  N
  H106     1.0000 0.96951  0.18790  0.03434  Biso   1.000  H
  C99      1.0000 0.23371  0.12038  0.77193  Biso   1.000  C
  H107     1.0000 0.25731  0.06230  0.85904  Biso   1.000  H
  C100     1.0000 0.33370  0.15002  0.87160  Biso   1.000  C
  C101     1.0000 0.07871  0.82841  0.50619  Biso   1.000  C
  H108     1.0000 0.11248  0.90458  0.62013  Biso   1.000  H
  C102     1.0000 0.18221  0.88489  0.59763  Biso   1.000  C
  C103     1.0000 0.74969  0.92130  0.50619  Biso   1.000  C
  C104     1.0000 0.89491  0.16010  0.86952  Biso   1.000  C
  H109     1.0000 0.23631  0.16042  0.79091  Biso   1.000  H
  N19      1.0000 0.16909  0.07192  0.76715  Biso   1.000  N
  C105     1.0000 0.26202  0.12432  0.64995  Biso   1.000  C
  H110     1.0000 0.35358  0.13678  0.93223  Biso   1.000  H
  H111     1.0000 0.34119  0.19111  0.89491  Biso   1.000  H
  C106     1.0000 0.36132  0.15322  0.74645  Biso   1.000  C
  N20      1.0000 0.02506  0.83313  0.47384  Biso   1.000  N
  H112     1.0000 0.09369  0.81599  0.43390  Biso   1.000  H
  C107     1.0000 0.05958  0.77990  0.60558  Biso   1.000  C
  C108     1.0000 0.16381  0.83619  0.69531  Biso   1.000  C
  H113     1.0000 0.21389  0.92492  0.63025  Biso   1.000  H
  H114     1.0000 0.20049  0.87449  0.52878  Biso   1.000  H
  H115     1.0000 0.72232  0.90632  0.43390  Biso   1.000  H
  C109     1.0000 0.76151  0.87101  0.55281  Biso   1.000  C
  C110     1.0000 0.72032  0.94041  0.60558  Biso   1.000  C
  C111     1.0000 0.87959  0.11328  0.77193  Biso   1.000  C
  H116     1.0000 0.93771  0.19500  0.85904  Biso   1.000  H
  C112     1.0000 0.85001  0.18369  0.87160  Biso   1.000  C
  C113     1.0000 0.12798  0.08690  0.77591  Biso   1.000  C
  H117     1.0000 0.24211  0.13710  0.58842  Biso   1.000  H
  H118     1.0000 0.25530  0.08351  0.62682  Biso   1.000  H
  C114     1.0000 0.33020  0.17008  0.65338  Biso   1.000  C
  H119     1.0000 0.40551  0.18401  0.74745  Biso   1.000  H
  H120     1.0000 0.35692  0.11301  0.72621  Biso   1.000  H
  C115     1.0000 0.00822  0.82332  0.36704  Biso   1.000  C
  H121     1.0000 0.04219  0.79098  0.67471  Biso   1.000  H
  H122     1.0000 0.02757  0.73968  0.57423  Biso   1.000  H
  C116     1.0000 0.11430  0.77518  0.64760  Biso   1.000  C
  H123     1.0000 0.19990  0.83299  0.71980  Biso   1.000  H
  H124     1.0000 0.14861  0.84792  0.76724  Biso   1.000  H
  N21      1.0000 0.78622  0.85282  0.45234  Biso   1.000  N
  H125     1.0000 0.79209  0.88750  0.62013  Biso   1.000  H
  C117     1.0000 0.70269  0.81778  0.59763  Biso   1.000  C
  H126     1.0000 0.74882  0.95781  0.67471  Biso   1.000  H
  H127     1.0000 0.71213  0.97242  0.57423  Biso   1.000  H
  C118     1.0000 0.66092  0.88571  0.64760  Biso   1.000  C
  H128     1.0000 0.83960  0.07590  0.79091  Biso   1.000  H
  N22      1.0000 0.92806  0.09716  0.76715  Biso   1.000  N
  C119     1.0000 0.87569  0.13770  0.64995  Biso   1.000  C
  H129     1.0000 0.86320  0.21680  0.93223  Biso   1.000  H
  H130     1.0000 0.80891  0.15011  0.89491  Biso   1.000  H
  C120     1.0000 0.84683  0.20810  0.74645  Biso   1.000  C
  C121     1.0000 0.06243  0.04242  0.77483  Biso   1.000  C
  H131     1.0000 0.14059  0.12908  0.78359  Biso   1.000  H
  H132     1.0000 0.34841  0.17150  0.57333  Biso   1.000  H
  H133     1.0000 0.33670  0.21140  0.67109  Biso   1.000  H
  C122     1.0000 0.95303  0.82561  0.32665  Biso   1.000  C
  H134     1.0000 0.03079  0.81421  0.31011  Biso   1.000  H
  H135     1.0000 0.10140  0.74389  0.71194  Biso   1.000  H
  H136     1.0000 0.13051  0.76222  0.57929  Biso   1.000  H
  C123     1.0000 0.83942  0.86180  0.46354  Biso   1.000  C
  C124     1.0000 0.67238  0.83619  0.69531  Biso   1.000  C
  H137     1.0000 0.71100  0.78608  0.63025  Biso   1.000  H
  H138     1.0000 0.67399  0.79950  0.52878  Biso   1.000  H
  H139     1.0000 0.64248  0.89858  0.71194  Biso   1.000  H
  H140     1.0000 0.63171  0.86950  0.57929  Biso   1.000  H
  C125     1.0000 0.91312  0.04109  0.77591  Biso   1.000  C
  H141     1.0000 0.86291  0.10499  0.58842  Biso   1.000  H
  H142     1.0000 0.91652  0.17182  0.62682  Biso   1.000  H
  C126     1.0000 0.82993  0.16010  0.65338  Biso   1.000  C
  H143     1.0000 0.81601  0.22152  0.74745  Biso   1.000  H
  H144     1.0000 0.88704  0.24392  0.72621  Biso   1.000  H
  C127     1.0000 0.04111  0.97939  0.77465  Biso   1.000  C
  C128     1.0000 0.02062  0.06170  0.77465  Biso   1.000  C
  C129     1.0000 0.92902  0.80560  0.21352  Biso   1.000  C
  C130     1.0000 0.92451  0.84632  0.40481  Biso   1.000  C
  C131     1.0000 0.87031  0.84439  0.37580  Biso   1.000  C
  H145     1.0000 0.86110  0.88159  0.53510  Biso   1.000  H
  H146     1.0000 0.63311  0.80010  0.71980  Biso   1.000  H
  H147     1.0000 0.69930  0.85140  0.76724  Biso   1.000  H
  C132     1.0000 0.95760  0.02002  0.77483  Biso   1.000  C
  H148     1.0000 0.87091  0.01150  0.78359  Biso   1.000  H
  H149     1.0000 0.82850  0.17691  0.57333  Biso   1.000  H
  H150     1.0000 0.78860  0.12528  0.67109  Biso   1.000  H
  C133     1.0000 0.98003  0.93761  0.77483  Biso   1.000  C
  H151     1.0000 0.06979  0.96551  0.77446  Biso   1.000  H
  H152     1.0000 0.03450  0.10430  0.77446  Biso   1.000  H
  H153     1.0000 0.94880  0.79208  0.15885  Biso   1.000  H
  C134     1.0000 0.87560  0.80491  0.17855  Biso   1.000  C
  H154     1.0000 0.94270  0.86230  0.48116  Biso   1.000  H
  C135     1.0000 0.84683  0.82401  0.25951  Biso   1.000  C
  C136     1.0000 0.93832  0.95891  0.77465  Biso   1.000  C
  C137     1.0000 0.95890  0.87202  0.77591  Biso   1.000  C
  C138     1.0000 0.84780  0.78049  0.05756  Biso   1.000  C
  H155     1.0000 0.81031  0.82341  0.23584  Biso   1.000  H
  H156     1.0000 0.89571  0.93019  0.77446  Biso   1.000  H
  H157     1.0000 0.98850  0.85942  0.78359  Biso   1.000  H
  N23      1.0000 0.90283  0.83088  0.76715  Biso   1.000  N
  N24      1.0000 0.87019  0.75878  0.98645  Biso   1.000  N
  H158     1.0000 0.81209  0.78159  0.03434  Biso   1.000  H
  C139     1.0000 0.88672  0.76629  0.77193  Biso   1.000  C
  C140     1.0000 0.83992  0.73482  0.86952  Biso   1.000  C
  H159     1.0000 0.92409  0.76368  0.79091  Biso   1.000  H
  C141     1.0000 0.86229  0.73798  0.64995  Biso   1.000  C
  H160     1.0000 0.80502  0.74270  0.85904  Biso   1.000  H
  C142     1.0000 0.81629  0.66630  0.87160  Biso   1.000  C
  H161     1.0000 0.89502  0.75791  0.58842  Biso   1.000  H
  H162     1.0000 0.82821  0.74472  0.62682  Biso   1.000  H
  C143     1.0000 0.83989  0.66978  0.65338  Biso   1.000  C
  H163     1.0000 0.78322  0.64642  0.93223  Biso   1.000  H
  H164     1.0000 0.84990  0.65878  0.89491  Biso   1.000  H
  C144     1.0000 0.79191  0.63872  0.74645  Biso   1.000  C
  H165     1.0000 0.82310  0.65159  0.57333  Biso   1.000  H
  H166     1.0000 0.87470  0.66332  0.67109  Biso   1.000  H
  H167     1.0000 0.77853  0.59452  0.74745  Biso   1.000  H
  H168     1.0000 0.75610  0.64312  0.72621  Biso   1.000  H
  C145     1.0000 0.28038  0.35789  0.18189  Biso   1.000  C
  C146     1.0000 0.27540  0.41529  0.17584  Biso   1.000  C
  H169     1.0000 0.25329  0.33100  0.24695  Biso   1.000  H
  H170     1.0000 0.32302  0.36930  0.20267  Biso   1.000  H
  C147     1.0000 0.26280  0.32280  0.06370  Biso   1.000  C
  N25      1.0000 0.30031  0.44900  0.28707  Biso   1.000  N
  C148     1.0000 0.31419  0.45582  0.07102  Biso   1.000  C
  H171     1.0000 0.23173  0.40443  0.16590  Biso   1.000  H
  H172     1.0000 0.26751  0.28629  0.07111  Biso   1.000  H
  H173     1.0000 0.21929  0.30878  0.04518  Biso   1.000  H
  C149     1.0000 0.30229  0.36252  0.96340  Biso   1.000  C
  C150     1.0000 0.26549  0.45711  0.35538  Biso   1.000  C
  N26      1.0000 0.30343  0.50713  0.05964  Biso   1.000  N
  H174     1.0000 0.35851  0.47163  0.08846  Biso   1.000  H
  C151     1.0000 0.29702  0.41973  0.95265  Biso   1.000  C
  H175     1.0000 0.28969  0.33938  0.88651  Biso   1.000  H
  H176     1.0000 0.34551  0.37429  0.97931  Biso   1.000  H
  C152     1.0000 0.28489  0.48711  0.47565  Biso   1.000  C
  H177     1.0000 0.22469  0.44350  0.32945  Biso   1.000  H
  C153     1.0000 0.34670  0.56081  0.07184  Biso   1.000  C
  H178     1.0000 0.25442  0.40791  0.93060  Biso   1.000  H
  H179     1.0000 0.32433  0.44602  0.88732  Biso   1.000  H
  C154     1.0000 0.34600  0.51189  0.51062  Biso   1.000  C
  C155     1.0000 0.24281  0.48459  0.55860  Biso   1.000  C
  C156     1.0000 0.33979  0.61532  0.06849  Biso   1.000  C
  H180     1.0000 0.38671  0.56681  0.08394  Biso   1.000  H
  C157     1.0000 0.36380  0.53360  0.62664  Biso   1.000  C
  H181     1.0000 0.37540  0.51382  0.45441  Biso   1.000  H
  C158     1.0000 0.26070  0.50681  0.67570  Biso   1.000  C
  H182     1.0000 0.20110  0.46751  0.53574  Biso   1.000  H
  C159     1.0000 0.28141  0.60891  0.06849  Biso   1.000  C
  C160     1.0000 0.39111  0.67249  0.06849  Biso   1.000  C
  C161     1.0000 0.31990  0.53031  0.70724  Biso   1.000  C
  C162     1.0000 0.42741  0.55523  0.66631  Biso   1.000  C
  C163     1.0000 0.21559  0.50131  0.76471  Biso   1.000  C
  C164     1.0000 0.27552  0.66021  0.06849  Biso   1.000  C
  H183     1.0000 0.24601  0.56929  0.06867  Biso   1.000  H
  C165     1.0000 0.38472  0.72453  0.06849  Biso   1.000  C
  H184     1.0000 0.43070  0.67671  0.06867  Biso   1.000  H
  H185     1.0000 0.33202  0.54510  0.78721  Biso   1.000  H
  N27      1.0000 0.44313  0.56342  0.77600  Biso   1.000  N
  H186     1.0000 0.45770  0.56329  0.60685  Biso   1.000  H
  N28      1.0000 0.15942  0.46943  0.74944  Biso   1.000  N
  H187     1.0000 0.22988  0.52339  0.83835  Biso   1.000  H
  C166     1.0000 0.32749  0.71862  0.06849  Biso   1.000  C
  C167     1.0000 0.21411  0.65330  0.07184  Biso   1.000  C
  C168     1.0000 0.43921  0.78591  0.07184  Biso   1.000  C
  C169     1.0000 0.50743  0.58761  0.80383  Biso   1.000  C
  C170     1.0000 0.11791  0.46439  0.84693  Biso   1.000  C
  H188     1.0000 0.32330  0.75403  0.06867  Biso   1.000  H
  N29      1.0000 0.20372  0.69663  0.05964  Biso   1.000  N
  H189     1.0000 0.18011  0.61331  0.08394  Biso   1.000  H
  N30      1.0000 0.49289  0.79631  0.05964  Biso   1.000  N
  H190     1.0000 0.43320  0.81990  0.08394  Biso   1.000  H
  C171     1.0000 0.53563  0.65353  0.84693  Biso   1.000  C
  C172     1.0000 0.51380  0.54831  0.90377  Biso   1.000  C
  H191     1.0000 0.52932  0.58633  0.72956  Biso   1.000  H
  H192     1.0000 0.14291  0.48821  0.91813  Biso   1.000  H
  C173     1.0000 0.08021  0.49261  0.80383  Biso   1.000  C
  C174     1.0000 0.07790  0.39811  0.88389  Biso   1.000  C
  C175     1.0000 0.14163  0.68582  0.07102  Biso   1.000  C
  C176     1.0000 0.54421  0.85842  0.07102  Biso   1.000  C
  N31      1.0000 0.53061  0.68999  0.74944  Biso   1.000  N
  H193     1.0000 0.51182  0.65472  0.91813  Biso   1.000  H
  C177     1.0000 0.60193  0.67982  0.88389  Biso   1.000  C
  H194     1.0000 0.49021  0.54762  0.97596  Biso   1.000  H
  H195     1.0000 0.49650  0.50562  0.87476  Biso   1.000  H
  C178     1.0000 0.58071  0.57391  0.93792  Biso   1.000  C
  N32      1.0000 0.12030  0.55692  0.77600  Biso   1.000  N
  C179     1.0000 0.03451  0.48619  0.90377  Biso   1.000  C
  H196     1.0000 0.05700  0.47071  0.72956  Biso   1.000  H
  H197     1.0000 0.10392  0.38230  0.91696  Biso   1.000  H
  H198     1.0000 0.05608  0.37319  0.81232  Biso   1.000  H
  C180     1.0000 0.03091  0.39211  0.98030  Biso   1.000  C
  H199     1.0000 0.11309  0.64153  0.08846  Biso   1.000  H
  C181     1.0000 0.13992  0.72462  0.17584  Biso   1.000  C
  C182     1.0000 0.12268  0.70300  0.95265  Biso   1.000  C
  H200     1.0000 0.52839  0.88691  0.08846  Biso   1.000  H
  C183     1.0000 0.58469  0.86012  0.17584  Biso   1.000  C
  C184     1.0000 0.58031  0.87729  0.95265  Biso   1.000  C
  C185     1.0000 0.49870  0.71431  0.76471  Biso   1.000  C
  H201     1.0000 0.61770  0.72160  0.91696  Biso   1.000  H
  H202     1.0000 0.62679  0.68289  0.81232  Biso   1.000  H
  C186     1.0000 0.60793  0.63882  0.98030  Biso   1.000  C
  H203     1.0000 0.60379  0.57231  0.86699  Biso   1.000  H
  H204     1.0000 0.58382  0.54863  0.00289  Biso   1.000  H
  C187     1.0000 0.12777  0.57259  0.66631  Biso   1.000  C
  H205     1.0000 0.05740  0.50983  0.97596  Biso   1.000  H
  H206     1.0000 0.00909  0.50351  0.87476  Biso   1.000  H
  C188     1.0000 0.99322  0.41932  0.93792  Biso   1.000  C
  H207     1.0000 0.00361  0.34822  0.99955  Biso   1.000  H
  H208     1.0000 0.05290  0.41309  0.05521  Biso   1.000  H
  N33      1.0000 0.14868  0.69970  0.28707  Biso   1.000  N
  H209     1.0000 0.17272  0.76832  0.16590  Biso   1.000  H
  C189     1.0000 0.07752  0.71963  0.18189  Biso   1.000  C
  H210     1.0000 0.15350  0.74560  0.93060  Biso   1.000  H
  H211     1.0000 0.12169  0.67570  0.88732  Biso   1.000  H
  C190     1.0000 0.06023  0.69773  0.96340  Biso   1.000  C
  N34      1.0000 0.55102  0.85132  0.28707  Biso   1.000  N
  H212     1.0000 0.59563  0.82732  0.16590  Biso   1.000  H
  C191     1.0000 0.64211  0.92251  0.18189  Biso   1.000  C
  H213     1.0000 0.59209  0.84651  0.93060  Biso   1.000  H
  H214     1.0000 0.55400  0.87830  0.88732  Biso   1.000  H
  C192     1.0000 0.63752  0.93982  0.96340  Biso   1.000  C
  H215     1.0000 0.47660  0.70653  0.83835  Biso   1.000  H
  C193     1.0000 0.49318  0.75389  0.67570  Biso   1.000  C
  H216     1.0000 0.65181  0.65541  0.99955  Biso   1.000  H
  H217     1.0000 0.58693  0.63983  0.05521  Biso   1.000  H
  C194     1.0000 0.16982  0.63621  0.62664  Biso   1.000  C
  H218     1.0000 0.10561  0.54231  0.60685  Biso   1.000  H
  H219     1.0000 0.96852  0.39618  0.86699  Biso   1.000  H
  H220     1.0000 0.96481  0.41620  0.00289  Biso   1.000  H
  C195     1.0000 0.19160  0.73451  0.35538  Biso   1.000  C
  H221     1.0000 0.07769  0.74670  0.24695  Biso   1.000  H
  H222     1.0000 0.04630  0.67703  0.20267  Biso   1.000  H
  C196     1.0000 0.06002  0.73722  0.06370  Biso   1.000  C
  H223     1.0000 0.04971  0.71033  0.88651  Biso   1.000  H
  H224     1.0000 0.02881  0.65449  0.97931  Biso   1.000  H
  C197     1.0000 0.54289  0.80840  0.35538  Biso   1.000  C
  H225     1.0000 0.66903  0.92232  0.24695  Biso   1.000  H
  H226     1.0000 0.63069  0.95370  0.20267  Biso   1.000  H
  C198     1.0000 0.67720  0.94000  0.06370  Biso   1.000  C
  H227     1.0000 0.66061  0.95031  0.88651  Biso   1.000  H
  H228     1.0000 0.62571  0.97120  0.97931  Biso   1.000  H
  C199     1.0000 0.46971  0.78962  0.70724  Biso   1.000  C
  C200     1.0000 0.51540  0.75820  0.55860  Biso   1.000  C
  C201     1.0000 0.21041  0.68010  0.70724  Biso   1.000  C
  C202     1.0000 0.16592  0.65403  0.51062  Biso   1.000  C
  C203     1.0000 0.20220  0.71509  0.47565  Biso   1.000  C
  H229     1.0000 0.21883  0.77533  0.32945  Biso   1.000  H
  H230     1.0000 0.01878  0.73250  0.07111  Biso   1.000  H
  H231     1.0000 0.08951  0.78073  0.04518  Biso   1.000  H
  C204     1.0000 0.51292  0.79782  0.47565  Biso   1.000  C
  H232     1.0000 0.55650  0.78119  0.32945  Biso   1.000  H
  H233     1.0000 0.71372  0.98123  0.07111  Biso   1.000  H
  H234     1.0000 0.69121  0.91050  0.04518  Biso   1.000  H
  H235     1.0000 0.45491  0.78692  0.78721  Biso   1.000  H
  C205     1.0000 0.46640  0.83020  0.62664  Biso   1.000  C
  H236     1.0000 0.53250  0.73360  0.53574  Biso   1.000  H
  H237     1.0000 0.21309  0.66800  0.78721  Biso   1.000  H
  C206     1.0000 0.24613  0.73932  0.67570  Biso   1.000  C
  H238     1.0000 0.13840  0.62462  0.45441  Biso   1.000  H
  C207     1.0000 0.24180  0.75723  0.55860  Biso   1.000  C
  C208     1.0000 0.48810  0.83410  0.51062  Biso   1.000  C
  C209     1.0000 0.44479  0.87221  0.66631  Biso   1.000  C
  C210     1.0000 0.28568  0.78440  0.76471  Biso   1.000  C
  H239     1.0000 0.26641  0.79892  0.53574  Biso   1.000  H
  H240     1.0000 0.48623  0.86163  0.45441  Biso   1.000  H
  N35      1.0000 0.43661  0.87972  0.77600  Biso   1.000  N
  H241     1.0000 0.43670  0.89443  0.60685  Biso   1.000  H
  N36      1.0000 0.31002  0.84060  0.74944  Biso   1.000  N
  H242     1.0000 0.29349  0.77011  0.83835  Biso   1.000  H
  C211     1.0000 0.41242  0.91980  0.80383  Biso   1.000  C
  C212     1.0000 0.34652  0.88210  0.84693  Biso   1.000  C
  C213     1.0000 0.45170  0.96552  0.90377  Biso   1.000  C
  H243     1.0000 0.41371  0.94303  0.72956  Biso   1.000  H
  H244     1.0000 0.34528  0.85709  0.91813  Biso   1.000  H
  C214     1.0000 0.32018  0.92209  0.88389  Biso   1.000  C
  H245     1.0000 0.45242  0.94261  0.97596  Biso   1.000  H
  H246     1.0000 0.49442  0.99090  0.87476  Biso   1.000  H
  C215     1.0000 0.42612  0.00679  0.93792  Biso   1.000  C
  H247     1.0000 0.27839  0.89612  0.91696  Biso   1.000  H
  H248     1.0000 0.31708  0.94390  0.81232  Biso   1.000  H
  C216     1.0000 0.36123  0.96914  0.98030  Biso   1.000  C
  H249     1.0000 0.42774  0.03153  0.86699  Biso   1.000  H
  H250     1.0000 0.45139  0.03519  0.00289  Biso   1.000  H
  H251     1.0000 0.34462  0.99644  0.99955  Biso   1.000  H
  H252     1.0000 0.36021  0.94710  0.05521  Biso   1.000  H
