data_image0
_cell_length_a       19.327
_cell_length_b       24.441
_cell_length_c       15.922
_cell_angle_alpha    90
_cell_angle_beta     109
_cell_angle_gamma    90

_symmetry_space_group_name_H-M    "P 1"
_symmetry_int_tables_number       1

loop_
  _symmetry_equiv_pos_as_xyz
  'x, y, z'

loop_
  _atom_site_label
  _atom_site_occupancy
  _atom_site_fract_x
  _atom_site_fract_y
  _atom_site_fract_z
  _atom_site_thermal_displace_type
  _atom_site_B_iso_or_equiv
  _atom_site_type_symbol
  O1       1.0000 0.54440  0.26292  0.60141  Biso   1.000  O
  C1       1.0000 0.59428  0.25199  0.68498  Biso   1.000  C
  C2       1.0000 0.55499  0.24618  0.75319  Biso   1.000  C
  C3       1.0000 0.63831  0.20200  0.68398  Biso   1.000  C
  O2       1.0000 0.50242  0.20462  0.72423  Biso   1.000  O
  O3       1.0000 0.60428  0.23371  0.83742  Biso   1.000  O
  C4       1.0000 0.68977  0.19021  0.77651  Biso   1.000  C
  O4       1.0000 0.67970  0.20948  0.62553  Biso   1.000  O
  C5       1.0000 0.42699  0.21799  0.71347  Biso   1.000  C
  C6       1.0000 0.64710  0.18539  0.84121  Biso   1.000  C
  O5       1.0000 0.72751  0.14091  0.77332  Biso   1.000  O
  C7       1.0000 0.38090  0.19942  0.62207  Biso   1.000  C
  C8       1.0000 0.40647  0.19111  0.78707  Biso   1.000  C
  C9       1.0000 0.69269  0.17581  0.93440  Biso   1.000  C
  C10      1.0000 0.80420  0.14009  0.81059  Biso   1.000  C
  C11      1.0000 0.30260  0.20560  0.61277  Biso   1.000  C
  O6       1.0000 0.39772  0.22892  0.55571  Biso   1.000  O
  O7       1.0000 0.32791  0.19582  0.77000  Biso   1.000  O
  C12      1.0000 0.44178  0.21378  0.87608  Biso   1.000  C
  O8       1.0000 0.73841  0.21799  0.97021  Biso   1.000  O
  O9       1.0000 0.66802  0.18960  0.99983  Biso   1.000  O
  C13      1.0000 0.83509  0.11808  0.74150  Biso   1.000  C
  O10      1.0000 0.82737  0.10781  0.88771  Biso   1.000  O
  O11      1.0000 0.25609  0.18780  0.52848  Biso   1.000  O
  C14      1.0000 0.28509  0.17581  0.68617  Biso   1.000  C
  O12      1.0000 0.43330  0.27180  0.87841  Biso   1.000  O
  O13      1.0000 0.40578  0.26541  0.87768  Biso   1.000  O
  C15      1.0000 0.81307  0.05900  0.72191  Biso   1.000  C
  O14      1.0000 0.81389  0.15138  0.66498  Biso   1.000  O
  C16      1.0000 0.80580  0.05139  0.87462  Biso   1.000  C
  O15      1.0000 0.29738  0.11959  0.67780  Biso   1.000  O
  C17      1.0000 0.83608  0.02672  0.80693  Biso   1.000  C
  O16      1.0000 0.84609  0.03662  0.66080  Biso   1.000  O
  C18      1.0000 0.82849  0.02410  0.96037  Biso   1.000  C
  C19      1.0000 0.24021  0.08122  0.67568  Biso   1.000  C
  O17      1.0000 0.80677  0.97238  0.78641  Biso   1.000  O
  O18      1.0000 0.90380  0.02320  0.99983  Biso   1.000  O
  O19      1.0000 0.81829  0.05069  0.02919  Biso   1.000  O
  C20      1.0000 0.22328  0.04979  0.59171  Biso   1.000  C
  C21      1.0000 0.26649  0.04472  0.75652  Biso   1.000  C
  C22      1.0000 0.85411  0.92668  0.80952  Biso   1.000  C
  C23      1.0000 0.17132  0.00389  0.59112  Biso   1.000  C
  O20      1.0000 0.19428  0.08420  0.51699  Biso   1.000  O
  C24      1.0000 0.27342  0.07422  0.83961  Biso   1.000  C
  O21      1.0000 0.21498  0.00008  0.74848  Biso   1.000  O
  C25      1.0000 0.83809  0.89129  0.72782  Biso   1.000  C
  O22      1.0000 0.84521  0.89751  0.88073  Biso   1.000  O
  C26      1.0000 0.20117  0.96952  0.67309  Biso   1.000  C
  O23      1.0000 0.15538  0.97140  0.51161  Biso   1.000  O
  O24      1.0000 0.20151  0.09091  0.83968  Biso   1.000  O
  O25      1.0000 0.30400  0.03948  0.91122  Biso   1.000  O
  C27      1.0000 0.76148  0.87071  0.70357  Biso   1.000  C
  O26      1.0000 0.85150  0.91960  0.65801  Biso   1.000  O
  C28      1.0000 0.77227  0.87570  0.86339  Biso   1.000  C
  O27      1.0000 0.26452  0.94239  0.66890  Biso   1.000  O
  C29      1.0000 0.74998  0.84178  0.78089  Biso   1.000  C
  O28      1.0000 0.74578  0.83421  0.62998  Biso   1.000  O
  C30      1.0000 0.77407  0.84649  0.94669  Biso   1.000  C
  C31      1.0000 0.27108  0.88499  0.68119  Biso   1.000  C
  O29      1.0000 0.67261  0.82971  0.75691  Biso   1.000  O
  O30      1.0000 0.82719  0.80361  0.96708  Biso   1.000  O
  O31      1.0000 0.80727  0.79448  0.94337  Biso   1.000  O
  C32      1.0000 0.29048  0.86122  0.60520  Biso   1.000  C
  C33      1.0000 0.32849  0.87210  0.76987  Biso   1.000  C
  C34      1.0000 0.65092  0.77681  0.77133  Biso   1.000  C
  C35      1.0000 0.30677  0.80140  0.61828  Biso   1.000  C
  O32      1.0000 0.23169  0.86948  0.52469  Biso   1.000  O
  C36      1.0000 0.30468  0.88601  0.84699  Biso   1.000  C
  O33      1.0000 0.34540  0.81429  0.77678  Biso   1.000  O
  C37      1.0000 0.60068  0.75492  0.68511  Biso   1.000  C
  O34      1.0000 0.61669  0.77751  0.83643  Biso   1.000  O
  C38      1.0000 0.36592  0.79289  0.70763  Biso   1.000  C
  O35      1.0000 0.32768  0.77730  0.55020  Biso   1.000  O
  O36      1.0000 0.24518  0.85438  0.84891  Biso   1.000  O
  O37      1.0000 0.35978  0.87439  0.92683  Biso   1.000  O
  C39      1.0000 0.52927  0.78622  0.65728  Biso   1.000  C
  O38      1.0000 0.63451  0.75492  0.61928  Biso   1.000  O
  C40      1.0000 0.55050  0.80942  0.81417  Biso   1.000  C
  O39      1.0000 0.43007  0.81740  0.70258  Biso   1.000  O
  C41      1.0000 0.49677  0.78532  0.73001  Biso   1.000  C
  O40      1.0000 0.47888  0.76261  0.57843  Biso   1.000  O
  C42      1.0000 0.52247  0.80950  0.88850  Biso   1.000  C
  O41      1.0000 0.50159  0.75958  0.90810  Biso   1.000  O
  O42      1.0000 0.56821  0.84178  0.95699  Biso   1.000  O
  O43      1.0000 0.60228  0.22892  0.44432  Biso   1.000  O
  C43      1.0000 0.61908  0.19942  0.37789  Biso   1.000  C
  C44      1.0000 0.57299  0.21799  0.28649  Biso   1.000  C
  C45      1.0000 0.69737  0.20560  0.38719  Biso   1.000  C
  O44      1.0000 0.49758  0.20462  0.27580  Biso   1.000  O
  C46      1.0000 0.59350  0.19111  0.21289  Biso   1.000  C
  C47      1.0000 0.71489  0.17581  0.31379  Biso   1.000  C
  O45      1.0000 0.74388  0.18780  0.47149  Biso   1.000  O
  C48      1.0000 0.44498  0.24618  0.24677  Biso   1.000  C
  C49      1.0000 0.55819  0.21378  0.12388  Biso   1.000  C
  O46      1.0000 0.67209  0.19582  0.23003  Biso   1.000  O
  O47      1.0000 0.70261  0.11959  0.32223  Biso   1.000  O
  C50      1.0000 0.40569  0.25199  0.31499  Biso   1.000  C
  O48      1.0000 0.39571  0.23371  0.16261  Biso   1.000  O
  O49      1.0000 0.56669  0.27180  0.12162  Biso   1.000  O
  O50      1.0000 0.59419  0.26541  0.12229  Biso   1.000  O
  C51      1.0000 0.75977  0.08122  0.32429  Biso   1.000  C
  C52      1.0000 0.36167  0.20200  0.31598  Biso   1.000  C
  O51      1.0000 0.45560  0.26292  0.39862  Biso   1.000  O
  C53      1.0000 0.35289  0.18539  0.15882  Biso   1.000  C
  C54      1.0000 0.77672  0.04979  0.40832  Biso   1.000  C
  C55      1.0000 0.73350  0.04472  0.24351  Biso   1.000  C
  C56      1.0000 0.31022  0.19021  0.22352  Biso   1.000  C
  O52      1.0000 0.32029  0.20948  0.37450  Biso   1.000  O
  C57      1.0000 0.30730  0.17581  0.06563  Biso   1.000  C
  C58      1.0000 0.82867  0.00389  0.40891  Biso   1.000  C
  O53      1.0000 0.80569  0.08420  0.48298  Biso   1.000  O
  C59      1.0000 0.72658  0.07422  0.16042  Biso   1.000  C
  O54      1.0000 0.78500  0.00008  0.25149  Biso   1.000  O
  O55      1.0000 0.27248  0.14091  0.22671  Biso   1.000  O
  O56      1.0000 0.26158  0.21799  0.02982  Biso   1.000  O
  O57      1.0000 0.33197  0.18960  0.00020  Biso   1.000  O
  C60      1.0000 0.79880  0.96952  0.32688  Biso   1.000  C
  O58      1.0000 0.84461  0.97140  0.48842  Biso   1.000  O
  O59      1.0000 0.79846  0.09091  0.16028  Biso   1.000  O
  O60      1.0000 0.69599  0.03948  0.08881  Biso   1.000  O
  C61      1.0000 0.19577  0.14009  0.18938  Biso   1.000  C
  O61      1.0000 0.73547  0.94239  0.33113  Biso   1.000  O
  C62      1.0000 0.16491  0.11808  0.25853  Biso   1.000  C
  O62      1.0000 0.17262  0.10781  0.11232  Biso   1.000  O
  C63      1.0000 0.72890  0.88499  0.31877  Biso   1.000  C
  C64      1.0000 0.18693  0.05900  0.27812  Biso   1.000  C
  O63      1.0000 0.18608  0.15138  0.33498  Biso   1.000  O
  C65      1.0000 0.19419  0.05139  0.12541  Biso   1.000  C
  C66      1.0000 0.70951  0.86122  0.39483  Biso   1.000  C
  C67      1.0000 0.67148  0.87210  0.23010  Biso   1.000  C
  C68      1.0000 0.16391  0.02672  0.19310  Biso   1.000  C
  O64      1.0000 0.15390  0.03662  0.33923  Biso   1.000  O
  C69      1.0000 0.17148  0.02410  0.03959  Biso   1.000  C
  C70      1.0000 0.69320  0.80140  0.38168  Biso   1.000  C
  O65      1.0000 0.76829  0.86948  0.47527  Biso   1.000  O
  C71      1.0000 0.69530  0.88601  0.15298  Biso   1.000  C
  O66      1.0000 0.65457  0.81429  0.22319  Biso   1.000  O
  O67      1.0000 0.19322  0.97238  0.21362  Biso   1.000  O
  O68      1.0000 0.09619  0.02320  0.00020  Biso   1.000  O
  O69      1.0000 0.18169  0.05069  0.97077  Biso   1.000  O
  C72      1.0000 0.63407  0.79289  0.29240  Biso   1.000  C
  O70      1.0000 0.67231  0.77730  0.44983  Biso   1.000  O
  O71      1.0000 0.75482  0.85438  0.15112  Biso   1.000  O
  O72      1.0000 0.64022  0.87439  0.07320  Biso   1.000  O
  C73      1.0000 0.14589  0.92668  0.19051  Biso   1.000  C
  O73      1.0000 0.56991  0.81740  0.29739  Biso   1.000  O
  C74      1.0000 0.16190  0.89129  0.27221  Biso   1.000  C
  O74      1.0000 0.15478  0.89751  0.11930  Biso   1.000  O
  C75      1.0000 0.50322  0.78532  0.27002  Biso   1.000  C
  C76      1.0000 0.23849  0.87071  0.29639  Biso   1.000  C
  O75      1.0000 0.14849  0.91960  0.34202  Biso   1.000  O
  C77      1.0000 0.22771  0.87570  0.13657  Biso   1.000  C
  C78      1.0000 0.47071  0.78622  0.34269  Biso   1.000  C
  C79      1.0000 0.44948  0.80942  0.18579  Biso   1.000  C
  C80      1.0000 0.24999  0.84178  0.21907  Biso   1.000  C
  O76      1.0000 0.25420  0.83421  0.36999  Biso   1.000  O
  C81      1.0000 0.22591  0.84649  0.05327  Biso   1.000  C
  C82      1.0000 0.39931  0.75492  0.31492  Biso   1.000  C
  O77      1.0000 0.52111  0.76261  0.42160  Biso   1.000  O
  O78      1.0000 0.38330  0.77751  0.16361  Biso   1.000  O
  C83      1.0000 0.47753  0.80950  0.11153  Biso   1.000  C
  O79      1.0000 0.32738  0.82971  0.24312  Biso   1.000  O
  O80      1.0000 0.17279  0.80361  0.03288  Biso   1.000  O
  O81      1.0000 0.19270  0.79448  0.05659  Biso   1.000  O
  C84      1.0000 0.34907  0.77681  0.22870  Biso   1.000  C
  O82      1.0000 0.36546  0.75492  0.38068  Biso   1.000  O
  O83      1.0000 0.49840  0.75958  0.09193  Biso   1.000  O
  O84      1.0000 0.43177  0.84178  0.04298  Biso   1.000  O
  O85      1.0000 0.64852  0.41958  0.34202  Biso   1.000  O
  C85      1.0000 0.66187  0.39131  0.27221  Biso   1.000  C
  C86      1.0000 0.64591  0.42670  0.19051  Biso   1.000  C
  C87      1.0000 0.73847  0.37069  0.29639  Biso   1.000  C
  O86      1.0000 0.69319  0.47240  0.21362  Biso   1.000  O
  O87      1.0000 0.65480  0.39749  0.11930  Biso   1.000  O
  C88      1.0000 0.74997  0.34180  0.21907  Biso   1.000  C
  O88      1.0000 0.75417  0.33419  0.36999  Biso   1.000  O
  C89      1.0000 0.66389  0.52670  0.19310  Biso   1.000  C
  C90      1.0000 0.72768  0.37568  0.13657  Biso   1.000  C
  O89      1.0000 0.82740  0.32969  0.24312  Biso   1.000  O
  C91      1.0000 0.68690  0.55898  0.27812  Biso   1.000  C
  C92      1.0000 0.69421  0.55141  0.12541  Biso   1.000  C
  C93      1.0000 0.72588  0.34651  0.05327  Biso   1.000  C
  C94      1.0000 0.84910  0.27679  0.22870  Biso   1.000  C
  C95      1.0000 0.66488  0.61810  0.25853  Biso   1.000  C
  O90      1.0000 0.65388  0.53660  0.33923  Biso   1.000  O
  C96      1.0000 0.67151  0.52408  0.03959  Biso   1.000  C
  O91      1.0000 0.67260  0.60779  0.11232  Biso   1.000  O
  O92      1.0000 0.67276  0.30359  0.03288  Biso   1.000  O
  O93      1.0000 0.69268  0.29451  0.05659  Biso   1.000  O
  C97      1.0000 0.89928  0.25490  0.31492  Biso   1.000  C
  O94      1.0000 0.88328  0.27748  0.16361  Biso   1.000  O
  C98      1.0000 0.69580  0.64011  0.18938  Biso   1.000  C
  O95      1.0000 0.68611  0.65141  0.33498  Biso   1.000  O
  O96      1.0000 0.59621  0.52318  0.00020  Biso   1.000  O
  O97      1.0000 0.68166  0.55071  0.97077  Biso   1.000  O
  C99      1.0000 0.97068  0.28620  0.34269  Biso   1.000  C
  O98      1.0000 0.86549  0.25490  0.38068  Biso   1.000  O
  C100     1.0000 0.94951  0.30940  0.18579  Biso   1.000  C
  O99      1.0000 0.77250  0.64089  0.22671  Biso   1.000  O
  C101     1.0000 0.00319  0.28530  0.27002  Biso   1.000  C
  O100     1.0000 0.02108  0.26259  0.42160  Biso   1.000  O
  C102     1.0000 0.97750  0.30948  0.11153  Biso   1.000  C
  C103     1.0000 0.81020  0.69019  0.22352  Biso   1.000  C
  O101     1.0000 0.06988  0.31742  0.29739  Biso   1.000  O
  O102     1.0000 0.99837  0.25960  0.09193  Biso   1.000  O
  O103     1.0000 0.93179  0.34180  0.04298  Biso   1.000  O
  C104     1.0000 0.86169  0.70202  0.31598  Biso   1.000  C
  C105     1.0000 0.85291  0.68541  0.15882  Biso   1.000  C
  C106     1.0000 0.13410  0.29291  0.29240  Biso   1.000  C
  C107     1.0000 0.90567  0.75202  0.31499  Biso   1.000  C
  O104     1.0000 0.82027  0.70950  0.37450  Biso   1.000  O
  C108     1.0000 0.80727  0.67579  0.06563  Biso   1.000  C
  O105     1.0000 0.89569  0.73369  0.16261  Biso   1.000  O
  C109     1.0000 0.19318  0.30138  0.38168  Biso   1.000  C
  O106     1.0000 0.15460  0.31431  0.22319  Biso   1.000  O
  C110     1.0000 0.94496  0.74621  0.24677  Biso   1.000  C
  O107     1.0000 0.95557  0.76290  0.39862  Biso   1.000  O
  O108     1.0000 0.76161  0.71801  0.02982  Biso   1.000  O
  O109     1.0000 0.83200  0.68958  0.00020  Biso   1.000  O
  C111     1.0000 0.20948  0.36120  0.39483  Biso   1.000  C
  O110     1.0000 0.17229  0.27728  0.44983  Biso   1.000  O
  C112     1.0000 0.17146  0.37208  0.23010  Biso   1.000  C
  O111     1.0000 0.99760  0.70459  0.27580  Biso   1.000  O
  C113     1.0000 0.22887  0.38501  0.31877  Biso   1.000  C
  O112     1.0000 0.26826  0.36950  0.47527  Biso   1.000  O
  C114     1.0000 0.19527  0.38599  0.15298  Biso   1.000  C
  C115     1.0000 0.07296  0.71801  0.28649  Biso   1.000  C
  O113     1.0000 0.23550  0.44241  0.33113  Biso   1.000  O
  O114     1.0000 0.25479  0.35440  0.15112  Biso   1.000  O
  O115     1.0000 0.14019  0.37441  0.07320  Biso   1.000  O
  C116     1.0000 0.11910  0.69940  0.37789  Biso   1.000  C
  C117     1.0000 0.09347  0.69109  0.21289  Biso   1.000  C
  C118     1.0000 0.29878  0.46950  0.32688  Biso   1.000  C
  C119     1.0000 0.19740  0.70558  0.38719  Biso   1.000  C
  O116     1.0000 0.10230  0.72890  0.44432  Biso   1.000  O
  C120     1.0000 0.05817  0.71380  0.12388  Biso   1.000  C
  O117     1.0000 0.17211  0.69580  0.23003  Biso   1.000  O
  C121     1.0000 0.32869  0.50391  0.40891  Biso   1.000  C
  O118     1.0000 0.28497  0.50010  0.25149  Biso   1.000  O
  C122     1.0000 0.21486  0.67579  0.31379  Biso   1.000  C
  O119     1.0000 0.24386  0.68778  0.47149  Biso   1.000  O
  O120     1.0000 0.06667  0.77178  0.12162  Biso   1.000  O
  O121     1.0000 0.09416  0.76539  0.12229  Biso   1.000  O
  C123     1.0000 0.27669  0.54981  0.40832  Biso   1.000  C
  O122     1.0000 0.34459  0.47138  0.48842  Biso   1.000  O
  C124     1.0000 0.23347  0.54470  0.24351  Biso   1.000  C
  O123     1.0000 0.20258  0.61961  0.32223  Biso   1.000  O
  C125     1.0000 0.25979  0.58120  0.32429  Biso   1.000  C
  O124     1.0000 0.30567  0.58418  0.48298  Biso   1.000  O
  C126     1.0000 0.22660  0.57420  0.16042  Biso   1.000  C
  O125     1.0000 0.29849  0.59089  0.16028  Biso   1.000  O
  O126     1.0000 0.19596  0.53950  0.08881  Biso   1.000  O
  O127     1.0000 0.35147  0.41958  0.65801  Biso   1.000  O
  C127     1.0000 0.33812  0.39131  0.72782  Biso   1.000  C
  C128     1.0000 0.26151  0.37069  0.70357  Biso   1.000  C
  C129     1.0000 0.35408  0.42670  0.80952  Biso   1.000  C
  O128     1.0000 0.24580  0.33419  0.62998  Biso   1.000  O
  C130     1.0000 0.25001  0.34180  0.78089  Biso   1.000  C
  O129     1.0000 0.30680  0.47240  0.78641  Biso   1.000  O
  O130     1.0000 0.34519  0.39749  0.88073  Biso   1.000  O
  C131     1.0000 0.27229  0.37568  0.86339  Biso   1.000  C
  O131     1.0000 0.17259  0.32969  0.75691  Biso   1.000  O
  C132     1.0000 0.33610  0.52670  0.80693  Biso   1.000  C
  C133     1.0000 0.27409  0.34651  0.94669  Biso   1.000  C
  C134     1.0000 0.15089  0.27679  0.77133  Biso   1.000  C
  C135     1.0000 0.31309  0.55898  0.72191  Biso   1.000  C
  C136     1.0000 0.30578  0.55141  0.87462  Biso   1.000  C
  O132     1.0000 0.32721  0.30359  0.96708  Biso   1.000  O
  O133     1.0000 0.30730  0.29451  0.94337  Biso   1.000  O
  C137     1.0000 0.10071  0.25490  0.68511  Biso   1.000  C
  O134     1.0000 0.11672  0.27748  0.83643  Biso   1.000  O
  C138     1.0000 0.33511  0.61810  0.74150  Biso   1.000  C
  O135     1.0000 0.34612  0.53660  0.66080  Biso   1.000  O
  C139     1.0000 0.32847  0.52408  0.96037  Biso   1.000  C
  O136     1.0000 0.32740  0.60779  0.88771  Biso   1.000  O
  C140     1.0000 0.02929  0.28620  0.65728  Biso   1.000  C
  O137     1.0000 0.13448  0.25490  0.61928  Biso   1.000  O
  C141     1.0000 0.05047  0.30940  0.81417  Biso   1.000  C
  C142     1.0000 0.30418  0.64011  0.81059  Biso   1.000  C
  O138     1.0000 0.31386  0.65141  0.66498  Biso   1.000  O
  O139     1.0000 0.40378  0.52318  0.99983  Biso   1.000  O
  O140     1.0000 0.31831  0.55071  0.02919  Biso   1.000  O
  C143     1.0000 0.99680  0.28530  0.73001  Biso   1.000  C
  O141     1.0000 0.97891  0.26259  0.57843  Biso   1.000  O
  C144     1.0000 0.02249  0.30948  0.88850  Biso   1.000  C
  O142     1.0000 0.22749  0.64089  0.77332  Biso   1.000  O
  O143     1.0000 0.93010  0.31742  0.70258  Biso   1.000  O
  O144     1.0000 0.00162  0.25960  0.90810  Biso   1.000  O
  O145     1.0000 0.06818  0.34180  0.95699  Biso   1.000  O
  C145     1.0000 0.18980  0.69019  0.77651  Biso   1.000  C
  C146     1.0000 0.86589  0.29291  0.70763  Biso   1.000  C
  C147     1.0000 0.13828  0.70202  0.68398  Biso   1.000  C
  C148     1.0000 0.14708  0.68541  0.84121  Biso   1.000  C
  C149     1.0000 0.80680  0.30138  0.61828  Biso   1.000  C
  O146     1.0000 0.84538  0.31431  0.77678  Biso   1.000  O
  C150     1.0000 0.09431  0.75202  0.68498  Biso   1.000  C
  O147     1.0000 0.17972  0.70950  0.62553  Biso   1.000  O
  C151     1.0000 0.19272  0.67579  0.93440  Biso   1.000  C
  O148     1.0000 0.10431  0.73369  0.83742  Biso   1.000  O
  C152     1.0000 0.79051  0.36120  0.60520  Biso   1.000  C
  O149     1.0000 0.82771  0.27728  0.55020  Biso   1.000  O
  C153     1.0000 0.82852  0.37208  0.76987  Biso   1.000  C
  C154     1.0000 0.05502  0.74621  0.75319  Biso   1.000  C
  O150     1.0000 0.04442  0.76290  0.60141  Biso   1.000  O
  O151     1.0000 0.23838  0.71801  0.97021  Biso   1.000  O
  O152     1.0000 0.16799  0.68958  0.99983  Biso   1.000  O
  C155     1.0000 0.77110  0.38501  0.68119  Biso   1.000  C
  O153     1.0000 0.73171  0.36950  0.52469  Biso   1.000  O
  C156     1.0000 0.80470  0.38599  0.84699  Biso   1.000  C
  O154     1.0000 0.00239  0.70459  0.72423  Biso   1.000  O
  O155     1.0000 0.76449  0.44241  0.66890  Biso   1.000  O
  O156     1.0000 0.74520  0.35440  0.84891  Biso   1.000  O
  O157     1.0000 0.85980  0.37441  0.92683  Biso   1.000  O
  C157     1.0000 0.92702  0.71801  0.71347  Biso   1.000  C
  C158     1.0000 0.70120  0.46950  0.67309  Biso   1.000  C
  C159     1.0000 0.88087  0.69940  0.62207  Biso   1.000  C
  C160     1.0000 0.90650  0.69109  0.78707  Biso   1.000  C
  C161     1.0000 0.67130  0.50391  0.59112  Biso   1.000  C
  O158     1.0000 0.71500  0.50010  0.74848  Biso   1.000  O
  C162     1.0000 0.80258  0.70558  0.61277  Biso   1.000  C
  O159     1.0000 0.89769  0.72890  0.55571  Biso   1.000  O
  C163     1.0000 0.94181  0.71380  0.87608  Biso   1.000  C
  O160     1.0000 0.82788  0.69580  0.77000  Biso   1.000  O
  C164     1.0000 0.72330  0.54981  0.59171  Biso   1.000  C
  O161     1.0000 0.65540  0.47138  0.51161  Biso   1.000  O
  C165     1.0000 0.76652  0.54470  0.75652  Biso   1.000  C
  C166     1.0000 0.78511  0.67579  0.68617  Biso   1.000  C
  O162     1.0000 0.75612  0.68778  0.52848  Biso   1.000  O
  O163     1.0000 0.93333  0.77178  0.87841  Biso   1.000  O
  O164     1.0000 0.90581  0.76539  0.87768  Biso   1.000  O
  C167     1.0000 0.74018  0.58120  0.67568  Biso   1.000  C
  O165     1.0000 0.69431  0.58418  0.51699  Biso   1.000  O
  C168     1.0000 0.77339  0.57420  0.83961  Biso   1.000  C
  O166     1.0000 0.79741  0.61961  0.67780  Biso   1.000  O
  O167     1.0000 0.70149  0.59089  0.83968  Biso   1.000  O
  O168     1.0000 0.80403  0.53950  0.91122  Biso   1.000  O
