data_image0
_cell_length_a       12.918
_cell_length_b       14.385
_cell_length_c       19.985
_cell_angle_alpha    70.44
_cell_angle_beta     75.82
_cell_angle_gamma    68.15

_symmetry_space_group_name_H-M    "P 1"
_symmetry_int_tables_number       1

loop_
  _symmetry_equiv_pos_as_xyz
  'x, y, z'

loop_
  _atom_site_label
  _atom_site_occupancy
  _atom_site_fract_x
  _atom_site_fract_y
  _atom_site_fract_z
  _atom_site_thermal_displace_type
  _atom_site_B_iso_or_equiv
  _atom_site_type_symbol
  N1       1.0000 0.67730  0.38083  0.37008  Biso   1.000  N
  C1       1.0000 0.58670  0.44425  0.32837  Biso   1.000  C
  C2       1.0000 0.65827  0.29231  0.41619  Biso   1.000  C
  C3       1.0000 0.76118  0.41974  0.37684  Biso   1.000  C
  C4       1.0000 0.50479  0.38057  0.35207  Biso   1.000  C
  N2       1.0000 0.61628  0.45399  0.25192  Biso   1.000  N
  H1       1.0000 0.55065  0.51239  0.33813  Biso   1.000  H
  N3       1.0000 0.56064  0.28784  0.40375  Biso   1.000  N
  O1       1.0000 0.71596  0.22910  0.46155  Biso   1.000  O
  H2       1.0000 0.79189  0.37864  0.42123  Biso   1.000  H
  H3       1.0000 0.72521  0.49094  0.37979  Biso   1.000  H
  N4       1.0000 0.85279  0.41726  0.31797  Biso   1.000  N
  N5       1.0000 0.49779  0.36287  0.28656  Biso   1.000  N
  H4       1.0000 0.43097  0.41843  0.37352  Biso   1.000  H
  C5       1.0000 0.55724  0.41255  0.22833  Biso   1.000  C
  C6       1.0000 0.66953  0.52924  0.20357  Biso   1.000  C
  C7       1.0000 0.50706  0.21196  0.44857  Biso   1.000  C
  C8       1.0000 0.84576  0.49979  0.25241  Biso   1.000  C
  C9       1.0000 0.96084  0.35605  0.32736  Biso   1.000  C
  C10      1.0000 0.41770  0.31825  0.28173  Biso   1.000  C
  O2       1.0000 0.55763  0.41916  0.16614  Biso   1.000  O
  H5       1.0000 0.65039  0.54654  0.15590  Biso   1.000  H
  H6       1.0000 0.63952  0.59248  0.21911  Biso   1.000  H
  N6       1.0000 0.79056  0.49245  0.19997  Biso   1.000  N
  N7       1.0000 0.52225  0.12988  0.41614  Biso   1.000  N
  H7       1.0000 0.42712  0.24706  0.45892  Biso   1.000  H
  H8       1.0000 0.53752  0.18066  0.49371  Biso   1.000  H
  C11      1.0000 0.97025  0.47949  0.21675  Biso   1.000  C
  H9       1.0000 0.81360  0.56835  0.26168  Biso   1.000  H
  O3       1.0000 0.99043  0.28708  0.38107  Biso   1.000  O
  N8       1.0000 0.02977  0.38662  0.26688  Biso   1.000  N
  N9       1.0000 0.45866  0.20566  0.29760  Biso   1.000  N
  H10      1.0000 0.39734  0.34698  0.23359  Biso   1.000  H
  H11      1.0000 0.35018  0.33877  0.31470  Biso   1.000  H
  C12      1.0000 0.86201  0.47745  0.13961  Biso   1.000  C
  C13      1.0000 0.44967  0.13525  0.36912  Biso   1.000  C
  C14      1.0000 0.59950  0.03477  0.43517  Biso   1.000  C
  N10      1.0000 0.96850  0.46538  0.14877  Biso   1.000  N
  H12      1.0000 0.99658  0.53804  0.21032  Biso   1.000  H
  C15      1.0000 0.15134  0.34643  0.26109  Biso   1.000  C
  C16      1.0000 0.50114  0.15427  0.24560  Biso   1.000  C
  O4       1.0000 0.83594  0.47576  0.08481  Biso   1.000  O
  H13      1.0000 0.37125  0.14737  0.39201  Biso   1.000  H
  C17      1.0000 0.50176  0.02685  0.35448  Biso   1.000  C
  N11      1.0000 0.59338  0.97490  0.39710  Biso   1.000  N
  O5       1.0000 0.66215  0.00746  0.48010  Biso   1.000  O
  C18      1.0000 0.06543  0.45187  0.09489  Biso   1.000  C
  H14      1.0000 0.18123  0.40395  0.23841  Biso   1.000  H
  H15      1.0000 0.17260  0.31529  0.30891  Biso   1.000  H
  N12      1.0000 0.20245  0.26994  0.22072  Biso   1.000  N
  N13      1.0000 0.53414  0.05074  0.27766  Biso   1.000  N
  O6       1.0000 0.50696  0.19524  0.18116  Biso   1.000  O
  H16      1.0000 0.44671  0.98916  0.36960  Biso   1.000  H
  C19      1.0000 0.66917  0.86900  0.40322  Biso   1.000  C
  H17      1.0000 0.11000  0.49228  0.09650  Biso   1.000  H
  H18      1.0000 0.04047  0.47925  0.04809  Biso   1.000  H
  N14      1.0000 0.13624  0.34420  0.10320  Biso   1.000  N
  C20      1.0000 0.23016  0.29408  0.14347  Biso   1.000  C
  C21      1.0000 0.23353  0.16545  0.25278  Biso   1.000  C
  C22      1.0000 0.58099  0.97404  0.23670  Biso   1.000  C
  H19      1.0000 0.69711  0.84198  0.44911  Biso   1.000  H
  H20      1.0000 0.62715  0.82580  0.40241  Biso   1.000  H
  N15      1.0000 0.76356  0.86100  0.34692  Biso   1.000  N
  C23      1.0000 0.13143  0.28475  0.06407  Biso   1.000  C
  C24      1.0000 0.28174  0.18520  0.12969  Biso   1.000  C
  H21      1.0000 0.28469  0.33238  0.12642  Biso   1.000  H
  N16      1.0000 0.27419  0.11450  0.20078  Biso   1.000  N
  O7       1.0000 0.22845  0.12493  0.31722  Biso   1.000  O
  H22      1.0000 0.55846  0.00626  0.18920  Biso   1.000  H
  H23      1.0000 0.54920  0.91782  0.25970  Biso   1.000  H
  N17      1.0000 0.70219  0.93093  0.22957  Biso   1.000  N
  C25      1.0000 0.76289  0.84130  0.28098  Biso   1.000  C
  C26      1.0000 0.87010  0.84707  0.35722  Biso   1.000  C
  N18      1.0000 0.20818  0.18921  0.08288  Biso   1.000  N
  O8       1.0000 0.06755  0.31330  0.01962  Biso   1.000  O
  H24      1.0000 0.35986  0.17311  0.10631  Biso   1.000  H
  C27      1.0000 0.31441  0.00244  0.21740  Biso   1.000  C
  C28      1.0000 0.77189  0.96053  0.16872  Biso   1.000  C
  H25      1.0000 0.73752  0.78143  0.28983  Biso   1.000  H
  C29      1.0000 0.88652  0.82060  0.24560  Biso   1.000  C
  N19      1.0000 0.94156  0.82974  0.29647  Biso   1.000  N
  O9       1.0000 0.89690  0.84761  0.41131  Biso   1.000  O
  C30      1.0000 0.22526  0.10781  0.05023  Biso   1.000  C
  N20      1.0000 0.23438  0.95794  0.21171  Biso   1.000  N
  H26      1.0000 0.33338  0.97432  0.26592  Biso   1.000  H
  H27      1.0000 0.38285  0.98123  0.18523  Biso   1.000  H
  O10      1.0000 0.74176  0.02753  0.11409  Biso   1.000  O
  N21      1.0000 0.87975  0.90199  0.17874  Biso   1.000  N
  H28      1.0000 0.91872  0.75144  0.23729  Biso   1.000  H
  C31      1.0000 0.06287  0.79121  0.29428  Biso   1.000  C
  N22      1.0000 0.17401  0.02988  0.09420  Biso   1.000  N
  H29      1.0000 0.19479  0.13911  0.00509  Biso   1.000  H
  H30      1.0000 0.30562  0.07416  0.03962  Biso   1.000  H
  C32      1.0000 0.17443  0.90807  0.27021  Biso   1.000  C
  C33      1.0000 0.22895  0.93889  0.14658  Biso   1.000  C
  C34      1.0000 0.97247  0.89935  0.12122  Biso   1.000  C
  H31      1.0000 0.08052  0.77436  0.34231  Biso   1.000  H
  H32      1.0000 0.09204  0.72745  0.27948  Biso   1.000  H
  N23      1.0000 0.11926  0.86300  0.24672  Biso   1.000  N
  C35      1.0000 0.07472  0.02673  0.08428  Biso   1.000  C
  O11      1.0000 0.17228  0.90449  0.33250  Biso   1.000  O
  C36      1.0000 0.14775  0.87371  0.17065  Biso   1.000  C
  H33      1.0000 0.30337  0.90083  0.12583  Biso   1.000  H
  H34      1.0000 0.94312  0.94055  0.07640  Biso   1.000  H
  H35      1.0000 0.00874  0.82814  0.11832  Biso   1.000  H
  N24      1.0000 0.05641  0.93828  0.12963  Biso   1.000  N
  O12      1.0000 0.01388  0.09241  0.04064  Biso   1.000  O
  H36      1.0000 0.18368  0.80592  0.16019  Biso   1.000  H
  N25      1.0000 0.32289  0.61899  0.62994  Biso   1.000  N
  C37      1.0000 0.23900  0.58008  0.62319  Biso   1.000  C
  C38      1.0000 0.34191  0.70751  0.58384  Biso   1.000  C
  C39      1.0000 0.41348  0.55557  0.67165  Biso   1.000  C
  H37      1.0000 0.20829  0.62119  0.57880  Biso   1.000  H
  H38      1.0000 0.27497  0.50889  0.62024  Biso   1.000  H
  N26      1.0000 0.14740  0.58259  0.68200  Biso   1.000  N
  N27      1.0000 0.43954  0.71199  0.59627  Biso   1.000  N
  O13      1.0000 0.28422  0.77072  0.53848  Biso   1.000  O
  H39      1.0000 0.44953  0.48743  0.66190  Biso   1.000  H
  C40      1.0000 0.49540  0.61928  0.64790  Biso   1.000  C
  N28      1.0000 0.38388  0.54593  0.74805  Biso   1.000  N
  C41      1.0000 0.03935  0.64380  0.67262  Biso   1.000  C
  C42      1.0000 0.15439  0.50011  0.74762  Biso   1.000  C
  C43      1.0000 0.49312  0.78787  0.55145  Biso   1.000  C
  H40      1.0000 0.56922  0.58140  0.62651  Biso   1.000  H
  N29      1.0000 0.50239  0.63696  0.71347  Biso   1.000  N
  C44      1.0000 0.33065  0.47059  0.79646  Biso   1.000  C
  C45      1.0000 0.44294  0.58727  0.77169  Biso   1.000  C
  O14      1.0000 0.00973  0.71284  0.61890  Biso   1.000  O
  N30      1.0000 0.97041  0.61320  0.73315  Biso   1.000  N
  C46      1.0000 0.02990  0.52041  0.78327  Biso   1.000  C
  H41      1.0000 0.18659  0.43150  0.73829  Biso   1.000  H
  N31      1.0000 0.20962  0.50737  0.80005  Biso   1.000  N
  H42      1.0000 0.57303  0.75284  0.54111  Biso   1.000  H
  H43      1.0000 0.46263  0.81923  0.50631  Biso   1.000  H
  N32      1.0000 0.47790  0.87002  0.58389  Biso   1.000  N
  C47      1.0000 0.58240  0.68157  0.71830  Biso   1.000  C
  H44      1.0000 0.34979  0.45328  0.84412  Biso   1.000  H
  H45      1.0000 0.36063  0.40741  0.78091  Biso   1.000  H
  O15      1.0000 0.44255  0.58066  0.83388  Biso   1.000  O
  C48      1.0000 0.84884  0.65339  0.73894  Biso   1.000  C
  H46      1.0000 0.00360  0.46178  0.78971  Biso   1.000  H
  N33      1.0000 0.03168  0.53444  0.85125  Biso   1.000  N
  C49      1.0000 0.13818  0.52238  0.86042  Biso   1.000  C
  C50      1.0000 0.40057  0.96513  0.56486  Biso   1.000  C
  C51      1.0000 0.55051  0.86458  0.63091  Biso   1.000  C
  H47      1.0000 0.60284  0.65285  0.76644  Biso   1.000  H
  H48      1.0000 0.64997  0.66112  0.68532  Biso   1.000  H
  N34      1.0000 0.54152  0.79416  0.70243  Biso   1.000  N
  H49      1.0000 0.81895  0.59587  0.76161  Biso   1.000  H
  H50      1.0000 0.82755  0.68461  0.69111  Biso   1.000  H
  N35      1.0000 0.79773  0.72988  0.77931  Biso   1.000  N
  C52      1.0000 0.93475  0.54795  0.90513  Biso   1.000  C
  O16      1.0000 0.16424  0.52407  0.91521  Biso   1.000  O
  O17      1.0000 0.33803  0.99236  0.51993  Biso   1.000  O
  N36      1.0000 0.40677  0.02499  0.60292  Biso   1.000  N
  H51      1.0000 0.62890  0.85253  0.60801  Biso   1.000  H
  C53      1.0000 0.49842  0.97297  0.64554  Biso   1.000  C
  C54      1.0000 0.49904  0.84556  0.75443  Biso   1.000  C
  C55      1.0000 0.76665  0.83437  0.74725  Biso   1.000  C
  C56      1.0000 0.77002  0.70574  0.85656  Biso   1.000  C
  H52      1.0000 0.89018  0.50754  0.90352  Biso   1.000  H
  H53      1.0000 0.95971  0.52057  0.95194  Biso   1.000  H
  N37      1.0000 0.86391  0.65570  0.89682  Biso   1.000  N
  C57      1.0000 0.33101  0.13083  0.59681  Biso   1.000  C
  N38      1.0000 0.46604  0.94908  0.72237  Biso   1.000  N
  H54      1.0000 0.55347  0.01067  0.63042  Biso   1.000  H
  O18      1.0000 0.49322  0.80459  0.81887  Biso   1.000  O
  N39      1.0000 0.72596  0.88540  0.79925  Biso   1.000  N
  O19      1.0000 0.77173  0.87490  0.68280  Biso   1.000  O
  C58      1.0000 0.71841  0.81470  0.87034  Biso   1.000  C
  H55      1.0000 0.71549  0.66744  0.87361  Biso   1.000  H
  C59      1.0000 0.86875  0.71507  0.93596  Biso   1.000  C
  H56      1.0000 0.30307  0.15785  0.55092  Biso   1.000  H
  H57      1.0000 0.37303  0.17403  0.59761  Biso   1.000  H
  N40      1.0000 0.23663  0.13884  0.65305  Biso   1.000  N
  C60      1.0000 0.41916  0.02586  0.76333  Biso   1.000  C
  C61      1.0000 0.68577  0.99738  0.78263  Biso   1.000  C
  H58      1.0000 0.64021  0.82679  0.89371  Biso   1.000  H
  N41      1.0000 0.79197  0.81069  0.91714  Biso   1.000  N
  O20      1.0000 0.93263  0.68652  0.98040  Biso   1.000  O
  C62      1.0000 0.13008  0.15275  0.64281  Biso   1.000  C
  C63      1.0000 0.23729  0.15852  0.71905  Biso   1.000  C
  H59      1.0000 0.44172  0.99357  0.81083  Biso   1.000  H
  H60      1.0000 0.45098  0.08201  0.74033  Biso   1.000  H
  N42      1.0000 0.29799  0.06890  0.77046  Biso   1.000  N
  H61      1.0000 0.66680  0.02551  0.73411  Biso   1.000  H
  H62      1.0000 0.61730  0.01867  0.81480  Biso   1.000  H
  N43      1.0000 0.76580  0.04188  0.78831  Biso   1.000  N
  C64      1.0000 0.77489  0.89208  0.94979  Biso   1.000  C
  N44      1.0000 0.05860  0.17018  0.70350  Biso   1.000  N
  O21      1.0000 0.10325  0.15228  0.58871  Biso   1.000  O
  H63      1.0000 0.26263  0.21847  0.71020  Biso   1.000  H
  C65      1.0000 0.11358  0.17923  0.75443  Biso   1.000  C
  C66      1.0000 0.22829  0.03930  0.83131  Biso   1.000  C
  C67      1.0000 0.82575  0.09175  0.72982  Biso   1.000  C
  C68      1.0000 0.77123  0.06093  0.85345  Biso   1.000  C
  H64      1.0000 0.80539  0.86072  0.99493  Biso   1.000  H
  H65      1.0000 0.69456  0.92566  0.96041  Biso   1.000  H
  N45      1.0000 0.82617  0.96995  0.90583  Biso   1.000  N
  C69      1.0000 0.93731  0.20861  0.70575  Biso   1.000  C
  H66      1.0000 0.08146  0.24839  0.76274  Biso   1.000  H
  N46      1.0000 0.12044  0.09786  0.82123  Biso   1.000  N
  O22      1.0000 0.25839  0.97237  0.88594  Biso   1.000  O
  N47      1.0000 0.88092  0.13683  0.75330  Biso   1.000  N
  O23      1.0000 0.82790  0.09533  0.66752  Biso   1.000  O
  C70      1.0000 0.85244  0.12613  0.82933  Biso   1.000  C
  H67      1.0000 0.69681  0.09899  0.87420  Biso   1.000  H
  C71      1.0000 0.92544  0.97319  0.91569  Biso   1.000  C
  H68      1.0000 0.91966  0.22546  0.65771  Biso   1.000  H
  H69      1.0000 0.90812  0.27247  0.72049  Biso   1.000  H
  C72      1.0000 0.02771  0.10047  0.87881  Biso   1.000  C
  H70      1.0000 0.81650  0.19391  0.83983  Biso   1.000  H
  N48      1.0000 0.94377  0.06154  0.87039  Biso   1.000  N
  O24      1.0000 0.98627  0.90749  0.95939  Biso   1.000  O
  H71      1.0000 0.99144  0.17169  0.88170  Biso   1.000  H
  H72      1.0000 0.05706  0.05927  0.92363  Biso   1.000  H
