data_image0
_cell_length_a       12.674
_cell_length_b       13.425
_cell_length_c       14.107
_cell_angle_alpha    104.87
_cell_angle_beta     106.02
_cell_angle_gamma    108.53

_symmetry_space_group_name_H-M    "P 1"
_symmetry_int_tables_number       1

loop_
  _symmetry_equiv_pos_as_xyz
  'x, y, z'

loop_
  _atom_site_label
  _atom_site_occupancy
  _atom_site_fract_x
  _atom_site_fract_y
  _atom_site_fract_z
  _atom_site_thermal_displace_type
  _atom_site_B_iso_or_equiv
  _atom_site_type_symbol
  N1       1.0000 0.26777  0.12303  0.32834  Biso   1.000  N
  O1       1.0000 0.26428  0.95809  0.22264  Biso   1.000  O
  O2       1.0000 0.26422  0.95817  0.22264  Biso   1.000  O
  N2       1.0000 0.36911  0.13370  0.22327  Biso   1.000  N
  N3       1.0000 0.36923  0.13373  0.22335  Biso   1.000  N
  C1       1.0000 0.21241  0.07778  0.39294  Biso   1.000  C
  C2       1.0000 0.29808  0.06099  0.25538  Biso   1.000  C
  C3       1.0000 0.29804  0.06102  0.25545  Biso   1.000  C
  C4       1.0000 0.32223  0.24302  0.35104  Biso   1.000  C
  C5       1.0000 0.39793  0.25105  0.28198  Biso   1.000  C
  C6       1.0000 0.39790  0.25097  0.28198  Biso   1.000  C
  C7       1.0000 0.44644  0.10062  0.17349  Biso   1.000  C
  C8       1.0000 0.44641  0.10054  0.17349  Biso   1.000  C
  N4       1.0000 0.08655  0.05749  0.36323  Biso   1.000  N
  N5       1.0000 0.08657  0.05757  0.36323  Biso   1.000  N
  H1       1.0000 0.21897  0.00680  0.38856  Biso   1.000  H
  H2       1.0000 0.21893  0.00677  0.38848  Biso   1.000  H
  H3       1.0000 0.21896  0.00685  0.38848  Biso   1.000  H
  H4       1.0000 0.25674  0.13011  0.46654  Biso   1.000  H
  H5       1.0000 0.25676  0.13018  0.46654  Biso   1.000  H
  H6       1.0000 0.37228  0.28718  0.42679  Biso   1.000  H
  N6       1.0000 0.23705  0.28674  0.30938  Biso   1.000  N
  H7       1.0000 0.48452  0.29415  0.32603  Biso   1.000  H
  H8       1.0000 0.48449  0.29407  0.32603  Biso   1.000  H
  N7       1.0000 0.35390  0.30730  0.21698  Biso   1.000  N
  H9       1.0000 0.48444  0.29415  0.32603  Biso   1.000  H
  H10      1.0000 0.48441  0.29407  0.32603  Biso   1.000  H
  H11      1.0000 0.52887  0.15812  0.21212  Biso   1.000  H
  H12      1.0000 0.44553  0.02987  0.17922  Biso   1.000  H
  N8       1.0000 0.40863  0.08626  0.06149  Biso   1.000  N
  C9       1.0000 0.99693  0.95053  0.30612  Biso   1.000  C
  C10      1.0000 0.99691  0.95045  0.30612  Biso   1.000  C
  C11      1.0000 0.99686  0.95053  0.30612  Biso   1.000  C
  C12      1.0000 0.99683  0.95045  0.30612  Biso   1.000  C
  C13      1.0000 0.04084  0.14268  0.39668  Biso   1.000  C
  C14      1.0000 0.16493  0.31673  0.36514  Biso   1.000  C
  C15      1.0000 0.16485  0.31673  0.36514  Biso   1.000  C
  C16      1.0000 0.26341  0.33028  0.23602  Biso   1.000  C
  C17      1.0000 0.40366  0.34039  0.14442  Biso   1.000  C
  C18      1.0000 0.40369  0.34047  0.14442  Biso   1.000  C
  C19      1.0000 0.35027  0.98127  0.98040  Biso   1.000  C
  C20      1.0000 0.43182  0.17833  0.02557  Biso   1.000  C
  N9       1.0000 0.88893  0.95453  0.29791  Biso   1.000  N
  N10      1.0000 0.88890  0.95445  0.29791  Biso   1.000  N
  N11      1.0000 0.88885  0.95453  0.29791  Biso   1.000  N
  N12      1.0000 0.88882  0.95445  0.29791  Biso   1.000  N
  O3       1.0000 0.01303  0.86497  0.27194  Biso   1.000  O
  C21      1.0000 0.90027  0.06925  0.34833  Biso   1.000  C
  C22      1.0000 0.90025  0.06917  0.34833  Biso   1.000  C
  C23      1.0000 0.09204  0.20156  0.51760  Biso   1.000  C
  C24      1.0000 0.09202  0.20148  0.51760  Biso   1.000  C
  C25      1.0000 0.09196  0.20156  0.51760  Biso   1.000  C
  C26      1.0000 0.09194  0.20148  0.51760  Biso   1.000  C
  N13      1.0000 0.05336  0.22090  0.34196  Biso   1.000  N
  N14      1.0000 0.05335  0.22095  0.34188  Biso   1.000  N
  H13      1.0000 0.14457  0.37471  0.34602  Biso   1.000  H
  H14      1.0000 0.21260  0.34884  0.44121  Biso   1.000  H
  O4       1.0000 0.21012  0.38162  0.19531  Biso   1.000  O
  H15      1.0000 0.49112  0.37378  0.17859  Biso   1.000  H
  N15      1.0000 0.36521  0.24684  0.04548  Biso   1.000  N
  H16      1.0000 0.37981  0.39807  0.12864  Biso   1.000  H
  H17      1.0000 0.37980  0.39812  0.12856  Biso   1.000  H
  H18      1.0000 0.37973  0.39807  0.12864  Biso   1.000  H
  H19      1.0000 0.37972  0.39812  0.12856  Biso   1.000  H
  N16      1.0000 0.32876  0.99955  0.88625  Biso   1.000  N
  O5       1.0000 0.32440  0.89000  0.98980  Biso   1.000  O
  C27      1.0000 0.37487  0.11725  0.90250  Biso   1.000  C
  C28      1.0000 0.37480  0.11725  0.90250  Biso   1.000  C
  H20      1.0000 0.51862  0.22553  0.05170  Biso   1.000  H
  H21      1.0000 0.51859  0.22546  0.05170  Biso   1.000  H
  C29      1.0000 0.77664  0.85411  0.23968  Biso   1.000  C
  N17      1.0000 0.85536  0.11671  0.27162  Biso   1.000  N
  C30      1.0000 0.84832  0.07819  0.43476  Biso   1.000  C
  H22      1.0000 0.17672  0.25199  0.54277  Biso   1.000  H
  H23      1.0000 0.08671  0.14494  0.54946  Biso   1.000  H
  H24      1.0000 0.17665  0.25188  0.54269  Biso   1.000  H
  C31      1.0000 0.02371  0.26969  0.55337  Biso   1.000  C
  H25      1.0000 0.17669  0.25192  0.54277  Biso   1.000  H
  H26      1.0000 0.17668  0.25196  0.54269  Biso   1.000  H
  C32      1.0000 0.94538  0.20582  0.27051  Biso   1.000  C
  C33      1.0000 0.28126  0.23594  0.95340  Biso   1.000  C
  C34      1.0000 0.27123  0.90895  0.78334  Biso   1.000  C
  N18      1.0000 0.28385  0.15977  0.86937  Biso   1.000  N
  H27      1.0000 0.43524  0.13650  0.87168  Biso   1.000  H
  N19      1.0000 0.28383  0.15969  0.86937  Biso   1.000  N
  H28      1.0000 0.43519  0.13658  0.87168  Biso   1.000  H
  N20      1.0000 0.71639  0.84042  0.13071  Biso   1.000  N
  H29      1.0000 0.79278  0.78803  0.23928  Biso   1.000  H
  N21      1.0000 0.71636  0.84034  0.13071  Biso   1.000  N
  H30      1.0000 0.72274  0.85729  0.27648  Biso   1.000  H
  H31      1.0000 0.72271  0.85721  0.27648  Biso   1.000  H
  H32      1.0000 0.79270  0.78803  0.23928  Biso   1.000  H
  C35      1.0000 0.88793  0.20222  0.50302  Biso   1.000  C
  H33      1.0000 0.76070  0.04063  0.40154  Biso   1.000  H
  H34      1.0000 0.87580  0.03996  0.47953  Biso   1.000  H
  C36      1.0000 0.88785  0.20222  0.50302  Biso   1.000  C
  H35      1.0000 0.87574  0.04004  0.47953  Biso   1.000  H
  C37      1.0000 0.72899  0.09116  0.21674  Biso   1.000  C
  C38      1.0000 0.72891  0.09116  0.21674  Biso   1.000  C
  H36      1.0000 0.05015  0.29544  0.63023  Biso   1.000  H
  H37      1.0000 0.04414  0.33632  0.53505  Biso   1.000  H
  H38      1.0000 0.05007  0.29544  0.63023  Biso   1.000  H
  H39      1.0000 0.04406  0.33632  0.53505  Biso   1.000  H
  O6       1.0000 0.93146  0.26202  0.21730  Biso   1.000  O
  O7       1.0000 0.21534  0.28598  0.94775  Biso   1.000  O
  O8       1.0000 0.21531  0.28590  0.94775  Biso   1.000  O
  H40      1.0000 0.31461  0.92912  0.73937  Biso   1.000  H
  N22      1.0000 0.14485  0.88340  0.72845  Biso   1.000  N
  H41      1.0000 0.27696  0.84117  0.79178  Biso   1.000  H
  N23      1.0000 0.14477  0.88340  0.72845  Biso   1.000  N
  C39      1.0000 0.22351  0.14589  0.76032  Biso   1.000  C
  C40      1.0000 0.71893  0.76409  0.04668  Biso   1.000  C
  C41      1.0000 0.62531  0.88278  0.09758  Biso   1.000  C
  H42      1.0000 0.85244  0.23747  0.45905  Biso   1.000  H
  H43      1.0000 0.85699  0.20532  0.55894  Biso   1.000  H
  H44      1.0000 0.85241  0.23739  0.45905  Biso   1.000  H
  N24      1.0000 0.67145  0.00056  0.11383  Biso   1.000  N
  H45      1.0000 0.72328  0.15902  0.20830  Biso   1.000  H
  H46      1.0000 0.68553  0.07099  0.26071  Biso   1.000  H
  C42      1.0000 0.05484  0.79429  0.72957  Biso   1.000  C
  C43      1.0000 0.09994  0.93086  0.65175  Biso   1.000  C
  C44      1.0000 0.09997  0.93093  0.65175  Biso   1.000  C
  C45      1.0000 0.09986  0.93086  0.65175  Biso   1.000  C
  C46      1.0000 0.09989  0.93093  0.65175  Biso   1.000  C
  H47      1.0000 0.20744  0.21208  0.76079  Biso   1.000  H
  N25      1.0000 0.11131  0.04566  0.70217  Biso   1.000  N
  H48      1.0000 0.27739  0.14287  0.72352  Biso   1.000  H
  H49      1.0000 0.27736  0.14279  0.72352  Biso   1.000  H
  N26      1.0000 0.63500  0.75327  0.95460  Biso   1.000  N
  O9       1.0000 0.78483  0.71420  0.05233  Biso   1.000  O
  O10      1.0000 0.78480  0.71413  0.05233  Biso   1.000  O
  C47      1.0000 0.56840  0.82178  0.97451  Biso   1.000  C
  H50      1.0000 0.56497  0.86360  0.12840  Biso   1.000  H
  H51      1.0000 0.56494  0.86353  0.12840  Biso   1.000  H
  C48      1.0000 0.64995  0.01884  0.01967  Biso   1.000  C
  C49      1.0000 0.64987  0.01884  0.01967  Biso   1.000  C
  N27      1.0000 0.94686  0.77921  0.65812  Biso   1.000  N
  N28      1.0000 0.94675  0.77913  0.65812  Biso   1.000  N
  O11      1.0000 0.06875  0.73809  0.78278  Biso   1.000  O
  O12      1.0000 0.06878  0.73817  0.78278  Biso   1.000  O
  O13      1.0000 0.06870  0.73817  0.78278  Biso   1.000  O
  C50      1.0000 0.95926  0.85739  0.60332  Biso   1.000  C
  C51      1.0000 0.15192  0.92200  0.56532  Biso   1.000  C
  C52      1.0000 0.00328  0.04958  0.69396  Biso   1.000  C
  C53      1.0000 0.59656  0.65972  0.85566  Biso   1.000  C
  N29      1.0000 0.59159  0.91385  0.93859  Biso   1.000  N
  H52      1.0000 0.48162  0.77465  0.94838  Biso   1.000  H
  H53      1.0000 0.48154  0.77465  0.94838  Biso   1.000  H
  O14      1.0000 0.67584  0.11019  0.01028  Biso   1.000  O
  C54      1.0000 0.83528  0.68338  0.63494  Biso   1.000  C
  N30      1.0000 0.91359  0.94262  0.63685  Biso   1.000  N
  C55      1.0000 0.90820  0.79862  0.48248  Biso   1.000  C
  C56      1.0000 0.90814  0.79851  0.48240  Biso   1.000  C
  C57      1.0000 0.11229  0.79789  0.49706  Biso   1.000  C
  H54      1.0000 0.23952  0.95948  0.59854  Biso   1.000  H
  H55      1.0000 0.12439  0.96007  0.52055  Biso   1.000  H
  H56      1.0000 0.12442  0.96015  0.52055  Biso   1.000  H
  O15      1.0000 0.98719  0.13514  0.72814  Biso   1.000  O
  O16      1.0000 0.98716  0.13506  0.72814  Biso   1.000  O
  O17      1.0000 0.98705  0.13503  0.72806  Biso   1.000  O
  N31      1.0000 0.64640  0.69281  0.78310  Biso   1.000  N
  N32      1.0000 0.64636  0.69278  0.78302  Biso   1.000  N
  H57      1.0000 0.50901  0.62632  0.82149  Biso   1.000  H
  N33      1.0000 0.64632  0.69281  0.78310  Biso   1.000  N
  H58      1.0000 0.62041  0.60204  0.87144  Biso   1.000  H
  N34      1.0000 0.64628  0.69278  0.78302  Biso   1.000  N
  C58      1.0000 0.55377  0.89949  0.82659  Biso   1.000  C
  C59      1.0000 0.55380  0.89957  0.82659  Biso   1.000  C
  N35      1.0000 0.76317  0.71336  0.69070  Biso   1.000  N
  N36      1.0000 0.76311  0.71325  0.69062  Biso   1.000  N
  H59      1.0000 0.85564  0.62540  0.65406  Biso   1.000  H
  H60      1.0000 0.78764  0.65135  0.55887  Biso   1.000  H
  H61      1.0000 0.85557  0.62540  0.65406  Biso   1.000  H
  C60      1.0000 0.78783  0.92241  0.60714  Biso   1.000  C
  H62      1.0000 0.91350  0.85517  0.45062  Biso   1.000  H
  H63      1.0000 0.82353  0.74819  0.45731  Biso   1.000  H
  C61      1.0000 0.97651  0.73042  0.44671  Biso   1.000  C
  H64      1.0000 0.82345  0.74819  0.45731  Biso   1.000  H
  H65      1.0000 0.14778  0.76264  0.54103  Biso   1.000  H
  H66      1.0000 0.14322  0.79479  0.44114  Biso   1.000  H
  H67      1.0000 0.14780  0.76272  0.54103  Biso   1.000  H
  H68      1.0000 0.14315  0.79479  0.44114  Biso   1.000  H
  C62      1.0000 0.73673  0.66983  0.76406  Biso   1.000  C
  C63      1.0000 0.60217  0.74903  0.71802  Biso   1.000  C
  C64      1.0000 0.60223  0.74914  0.71810  Biso   1.000  C
  H69      1.0000 0.55466  0.97016  0.82086  Biso   1.000  H
  H70      1.0000 0.47134  0.84199  0.78796  Biso   1.000  H
  H71      1.0000 0.55469  0.97024  0.82086  Biso   1.000  H
  N37      1.0000 0.63099  0.86638  0.77673  Biso   1.000  N
  C65      1.0000 0.67790  0.75709  0.64904  Biso   1.000  C
  N38      1.0000 0.73240  0.87715  0.67174  Biso   1.000  N
  H72      1.0000 0.74340  0.87000  0.53354  Biso   1.000  H
  H73      1.0000 0.78117  0.99330  0.61152  Biso   1.000  H
  H74      1.0000 0.95007  0.70466  0.36985  Biso   1.000  H
  H75      1.0000 0.95608  0.66379  0.46503  Biso   1.000  H
  H76      1.0000 0.51573  0.70604  0.67405  Biso   1.000  H
  O18      1.0000 0.79002  0.61849  0.80476  Biso   1.000  O
  C66      1.0000 0.70210  0.93909  0.74462  Biso   1.000  C
  C67      1.0000 0.70218  0.93909  0.74462  Biso   1.000  C
  H77      1.0000 0.62793  0.71293  0.57329  Biso   1.000  H
  H78      1.0000 0.62787  0.71282  0.57321  Biso   1.000  H
  O19      1.0000 0.73591  0.04194  0.77744  Biso   1.000  O
