data_image0
_cell_length_a       14.927
_cell_length_b       15.468
_cell_length_c       28.012
_cell_angle_alpha    90
_cell_angle_beta     95.26
_cell_angle_gamma    90

_symmetry_space_group_name_H-M    "P 1"
_symmetry_int_tables_number       1

loop_
  _symmetry_equiv_pos_as_xyz
  'x, y, z'

loop_
  _atom_site_label
  _atom_site_occupancy
  _atom_site_fract_x
  _atom_site_fract_y
  _atom_site_fract_z
  _atom_site_thermal_displace_type
  _atom_site_B_iso_or_equiv
  _atom_site_type_symbol
  C1       1.0000 0.57472  0.38971  0.45594  Biso   1.000  C
  C2       1.0000 0.47710  0.38551  0.43174  Biso   1.000  C
  N1       1.0000 0.62617  0.41996  0.41776  Biso   1.000  N
  N2       1.0000 0.59337  0.30127  0.47128  Biso   1.000  N
  H1       1.0000 0.57941  0.42966  0.48319  Biso   1.000  H
  N3       1.0000 0.48611  0.41822  0.38402  Biso   1.000  N
  N4       1.0000 0.45468  0.29467  0.43418  Biso   1.000  N
  H2       1.0000 0.43616  0.42119  0.44881  Biso   1.000  H
  C3       1.0000 0.57179  0.44524  0.37818  Biso   1.000  C
  C4       1.0000 0.71645  0.45358  0.42776  Biso   1.000  C
  C5       1.0000 0.51989  0.24884  0.46160  Biso   1.000  C
  C6       1.0000 0.66541  0.28032  0.50724  Biso   1.000  C
  C7       1.0000 0.40914  0.43496  0.34979  Biso   1.000  C
  C8       1.0000 0.36452  0.26228  0.42256  Biso   1.000  C
  O1       1.0000 0.59514  0.48604  0.34409  Biso   1.000  O
  H3       1.0000 0.72974  0.49166  0.40181  Biso   1.000  H
  H4       1.0000 0.71912  0.48772  0.45691  Biso   1.000  H
  N5       1.0000 0.78460  0.38673  0.43328  Biso   1.000  N
  O2       1.0000 0.51280  0.17404  0.47490  Biso   1.000  O
  H5       1.0000 0.66968  0.32558  0.53130  Biso   1.000  H
  H6       1.0000 0.65062  0.22698  0.52291  Biso   1.000  H
  N6       1.0000 0.75229  0.27049  0.48849  Biso   1.000  N
  N7       1.0000 0.37960  0.36081  0.32136  Biso   1.000  N
  H7       1.0000 0.42444  0.48099  0.32849  Biso   1.000  H
  H8       1.0000 0.35965  0.45507  0.36700  Biso   1.000  H
  N8       1.0000 0.34499  0.23817  0.37216  Biso   1.000  N
  H9       1.0000 0.35560  0.21212  0.44239  Biso   1.000  H
  H10      1.0000 0.32193  0.30618  0.43049  Biso   1.000  H
  C9       1.0000 0.80895  0.34329  0.47863  Biso   1.000  C
  C10      1.0000 0.85088  0.38027  0.40270  Biso   1.000  C
  C11      1.0000 0.79868  0.19388  0.49021  Biso   1.000  C
  C12      1.0000 0.31361  0.29629  0.33344  Biso   1.000  C
  C13      1.0000 0.40716  0.34840  0.27673  Biso   1.000  C
  C14      1.0000 0.34732  0.15380  0.35764  Biso   1.000  C
  C15      1.0000 0.90084  0.30088  0.47114  Biso   1.000  C
  H11      1.0000 0.81429  0.38441  0.50541  Biso   1.000  H
  N9       1.0000 0.91709  0.32680  0.42342  Biso   1.000  N
  O3       1.0000 0.85181  0.41673  0.36409  Biso   1.000  O
  N10      1.0000 0.88339  0.20953  0.47677  Biso   1.000  N
  O4       1.0000 0.77055  0.12342  0.50197  Biso   1.000  O
  C16      1.0000 0.30646  0.23526  0.28834  Biso   1.000  C
  C17      1.0000 0.22306  0.33721  0.34136  Biso   1.000  C
  N11      1.0000 0.37258  0.27159  0.25876  Biso   1.000  N
  O5       1.0000 0.45378  0.39798  0.25565  Biso   1.000  O
  N12      1.0000 0.33009  0.15089  0.30892  Biso   1.000  N
  O6       1.0000 0.36025  0.09103  0.38413  Biso   1.000  O
  H12      1.0000 0.94854  0.32131  0.49491  Biso   1.000  H
  C18      1.0000 0.00073  0.31226  0.40299  Biso   1.000  C
  C19      1.0000 0.95307  0.14501  0.47878  Biso   1.000  C
  C20      1.0000 0.21129  0.23591  0.26167  Biso   1.000  C
  C21      1.0000 0.18117  0.38357  0.29684  Biso   1.000  C
  H13      1.0000 0.23126  0.37820  0.36761  Biso   1.000  H
  H14      1.0000 0.18214  0.29260  0.35040  Biso   1.000  H
  C22      1.0000 0.39056  0.24211  0.21141  Biso   1.000  C
  C23      1.0000 0.33571  0.07040  0.28239  Biso   1.000  C
  H15      1.0000 0.01004  0.35881  0.38080  Biso   1.000  H
  H16      1.0000 0.04932  0.31458  0.42841  Biso   1.000  H
  N13      1.0000 0.00568  0.23054  0.37800  Biso   1.000  N
  H17      1.0000 0.93603  0.09717  0.49849  Biso   1.000  H
  N14      1.0000 0.97057  0.11178  0.43174  Biso   1.000  N
  H18      1.0000 0.00816  0.16971  0.49408  Biso   1.000  H
  C24      1.0000 0.17869  0.32810  0.25131  Biso   1.000  C
  H19      1.0000 0.16987  0.20668  0.28099  Biso   1.000  H
  H20      1.0000 0.21217  0.20449  0.23170  Biso   1.000  H
  H21      1.0000 0.12017  0.40057  0.30211  Biso   1.000  H
  H22      1.0000 0.21506  0.43587  0.29211  Biso   1.000  H
  H23      1.0000 0.40933  0.29112  0.19320  Biso   1.000  H
  H24      1.0000 0.33530  0.21981  0.19510  Biso   1.000  H
  N15      1.0000 0.45873  0.17598  0.21202  Biso   1.000  N
  H25      1.0000 0.28815  0.06989  0.25629  Biso   1.000  H
  H26      1.0000 0.32487  0.02263  0.30351  Biso   1.000  H
  N16      1.0000 0.42082  0.05618  0.26267  Biso   1.000  N
  C25      1.0000 0.98963  0.22569  0.32910  Biso   1.000  C
  C26      1.0000 0.03338  0.14805  0.40001  Biso   1.000  C
  C27      1.0000 0.93419  0.03543  0.41460  Biso   1.000  C
  H27      1.0000 0.21617  0.35480  0.22890  Biso   1.000  H
  H28      1.0000 0.11755  0.32642  0.23622  Biso   1.000  H
  C28      1.0000 0.54668  0.19214  0.20452  Biso   1.000  C
  C29      1.0000 0.43963  0.08495  0.21549  Biso   1.000  C
  C30      1.0000 0.48380  0.99813  0.28182  Biso   1.000  C
  N17      1.0000 0.99602  0.14042  0.31562  Biso   1.000  N
  O7       1.0000 0.97578  0.28672  0.30200  Biso   1.000  O
  C31      1.0000 0.02420  0.08372  0.35563  Biso   1.000  C
  C32      1.0000 0.12910  0.14966  0.42450  Biso   1.000  C
  N18      1.0000 0.95561  0.02321  0.36893  Biso   1.000  N
  O8       1.0000 0.89024  0.98558  0.43751  Biso   1.000  O
  N19      1.0000 0.59069  0.11462  0.20377  Biso   1.000  N
  O9       1.0000 0.57983  0.26338  0.19983  Biso   1.000  O
  H29      1.0000 0.39246  0.06678  0.19090  Biso   1.000  H
  C33      1.0000 0.53077  0.04157  0.20825  Biso   1.000  C
  N20      1.0000 0.54955  0.99114  0.25159  Biso   1.000  N
  O10      1.0000 0.47982  0.95914  0.31982  Biso   1.000  O
  C34      1.0000 0.97884  0.11572  0.26565  Biso   1.000  C
  C35      1.0000 0.11197  0.03691  0.34947  Biso   1.000  C
  H30      1.0000 0.13054  0.18522  0.45311  Biso   1.000  H
  H31      1.0000 0.16881  0.17572  0.40299  Biso   1.000  H
  C36      1.0000 0.16282  0.05922  0.43823  Biso   1.000  C
  C37      1.0000 0.92250  0.94906  0.34043  Biso   1.000  C
  C38      1.0000 0.67575  0.10758  0.18219  Biso   1.000  C
  H32      1.0000 0.52678  0.00498  0.17961  Biso   1.000  H
  C39      1.0000 0.62198  0.92772  0.25751  Biso   1.000  C
  N21      1.0000 0.88848  0.08521  0.25249  Biso   1.000  N
  H33      1.0000 0.99023  0.16512  0.24579  Biso   1.000  H
  H34      1.0000 0.02088  0.07047  0.25880  Biso   1.000  H
  C40      1.0000 0.14852  0.99476  0.39639  Biso   1.000  C
  H35      1.0000 0.10184  0.99295  0.32480  Biso   1.000  H
  H36      1.0000 0.15578  0.07771  0.33928  Biso   1.000  H
  H37      1.0000 0.22642  0.06213  0.44891  Biso   1.000  H
  H38      1.0000 0.13155  0.03840  0.46479  Biso   1.000  H
  N22      1.0000 0.84849  0.96961  0.30548  Biso   1.000  N
  H39      1.0000 0.90334  0.90471  0.36180  Biso   1.000  H
  H40      1.0000 0.97147  0.92546  0.32401  Biso   1.000  H
  H41      1.0000 0.68937  0.16298  0.16832  Biso   1.000  H
  H42      1.0000 0.66897  0.06562  0.15641  Biso   1.000  H
  N23      1.0000 0.75044  0.08230  0.21567  Biso   1.000  N
  H43      1.0000 0.62243  0.89449  0.22818  Biso   1.000  H
  H44      1.0000 0.61002  0.88809  0.28300  Biso   1.000  H
  N24      1.0000 0.71026  0.96632  0.26873  Biso   1.000  N
  C41      1.0000 0.82536  0.13240  0.22474  Biso   1.000  C
  C42      1.0000 0.86167  0.99560  0.25708  Biso   1.000  C
  H45      1.0000 0.10707  0.95016  0.40471  Biso   1.000  H
  H46      1.0000 0.20548  0.96709  0.39180  Biso   1.000  H
  C43      1.0000 0.76062  0.94880  0.31068  Biso   1.000  C
  C44      1.0000 0.76545  0.99341  0.23127  Biso   1.000  C
  O11      1.0000 0.83611  0.20552  0.20976  Biso   1.000  O
  H47      1.0000 0.90226  0.95617  0.24220  Biso   1.000  H
  O12      1.0000 0.73295  0.91912  0.34728  Biso   1.000  O
  H48      1.0000 0.76093  0.95306  0.20420  Biso   1.000  H
  C45      1.0000 0.42515  0.61029  0.54406  Biso   1.000  C
  N25      1.0000 0.40649  0.69867  0.52872  Biso   1.000  N
  H49      1.0000 0.42046  0.57027  0.51681  Biso   1.000  H
  C46      1.0000 0.52270  0.61449  0.56826  Biso   1.000  C
  N26      1.0000 0.37370  0.57997  0.58224  Biso   1.000  N
  C47      1.0000 0.33445  0.71961  0.49276  Biso   1.000  C
  C48      1.0000 0.47998  0.75116  0.53839  Biso   1.000  C
  N27      1.0000 0.54519  0.70533  0.56582  Biso   1.000  N
  H50      1.0000 0.56371  0.57881  0.55119  Biso   1.000  H
  N28      1.0000 0.51376  0.58178  0.61597  Biso   1.000  N
  C49      1.0000 0.28335  0.54635  0.57224  Biso   1.000  C
  C50      1.0000 0.42807  0.55469  0.62182  Biso   1.000  C
  H51      1.0000 0.33012  0.67436  0.46870  Biso   1.000  H
  H52      1.0000 0.34924  0.77295  0.47709  Biso   1.000  H
  N29      1.0000 0.24758  0.72944  0.51151  Biso   1.000  N
  O13      1.0000 0.48707  0.82596  0.52509  Biso   1.000  O
  C51      1.0000 0.63534  0.73772  0.57740  Biso   1.000  C
  C52      1.0000 0.59072  0.56504  0.65021  Biso   1.000  C
  N30      1.0000 0.21526  0.61327  0.56668  Biso   1.000  N
  H53      1.0000 0.27013  0.50828  0.59819  Biso   1.000  H
  H54      1.0000 0.28074  0.51228  0.54309  Biso   1.000  H
  O14      1.0000 0.40473  0.51396  0.65591  Biso   1.000  O
  C53      1.0000 0.19085  0.65665  0.52137  Biso   1.000  C
  C54      1.0000 0.20112  0.80605  0.50979  Biso   1.000  C
  H55      1.0000 0.64420  0.78788  0.55761  Biso   1.000  H
  H56      1.0000 0.67793  0.69375  0.56951  Biso   1.000  H
  N31      1.0000 0.65487  0.76177  0.62784  Biso   1.000  N
  H57      1.0000 0.57543  0.51901  0.67151  Biso   1.000  H
  H58      1.0000 0.64022  0.54487  0.63300  Biso   1.000  H
  N32      1.0000 0.62020  0.63919  0.67864  Biso   1.000  N
  C55      1.0000 0.14898  0.61967  0.59730  Biso   1.000  C
  C56      1.0000 0.09896  0.69912  0.52886  Biso   1.000  C
  H59      1.0000 0.18551  0.61559  0.49459  Biso   1.000  H
  N33      1.0000 0.11648  0.79047  0.52323  Biso   1.000  N
  O15      1.0000 0.22931  0.87658  0.49803  Biso   1.000  O
  C57      1.0000 0.68625  0.70371  0.66652  Biso   1.000  C
  C58      1.0000 0.65255  0.84620  0.64236  Biso   1.000  C
  C59      1.0000 0.59264  0.65160  0.72327  Biso   1.000  C
  N34      1.0000 0.08271  0.67320  0.57657  Biso   1.000  N
  O16      1.0000 0.14805  0.58320  0.63587  Biso   1.000  O
  H60      1.0000 0.05132  0.67869  0.50509  Biso   1.000  H
  C60      1.0000 0.04679  0.85499  0.52122  Biso   1.000  C
  C61      1.0000 0.69334  0.76474  0.71166  Biso   1.000  C
  C62      1.0000 0.77681  0.66272  0.65864  Biso   1.000  C
  N35      1.0000 0.66977  0.84911  0.69108  Biso   1.000  N
  O17      1.0000 0.63954  0.90897  0.61583  Biso   1.000  O
  N36      1.0000 0.62729  0.72841  0.74123  Biso   1.000  N
  O18      1.0000 0.54602  0.60195  0.74435  Biso   1.000  O
  C63      1.0000 0.99907  0.68774  0.59701  Biso   1.000  C
  H61      1.0000 0.06384  0.90277  0.50150  Biso   1.000  H
  N37      1.0000 0.02930  0.88816  0.56826  Biso   1.000  N
  H62      1.0000 0.99171  0.83029  0.50591  Biso   1.000  H
  C64      1.0000 0.78851  0.76409  0.73833  Biso   1.000  C
  H63      1.0000 0.76861  0.62180  0.63239  Biso   1.000  H
  H64      1.0000 0.81773  0.70740  0.64960  Biso   1.000  H
  C65      1.0000 0.81870  0.61637  0.70316  Biso   1.000  C
  C66      1.0000 0.66415  0.92960  0.71761  Biso   1.000  C
  C67      1.0000 0.60931  0.75789  0.78859  Biso   1.000  C
  H65      1.0000 0.98982  0.64119  0.61920  Biso   1.000  H
  H66      1.0000 0.95048  0.68535  0.57159  Biso   1.000  H
  N38      1.0000 0.99419  0.76946  0.62200  Biso   1.000  N
  C68      1.0000 0.06567  0.96457  0.58539  Biso   1.000  C
  C69      1.0000 0.96649  0.85189  0.59998  Biso   1.000  C
  C70      1.0000 0.82117  0.67190  0.74869  Biso   1.000  C
  H67      1.0000 0.83000  0.79325  0.71901  Biso   1.000  H
  H68      1.0000 0.78770  0.79545  0.76830  Biso   1.000  H
  H69      1.0000 0.87969  0.59937  0.69789  Biso   1.000  H
  H70      1.0000 0.78481  0.56407  0.70789  Biso   1.000  H
  H71      1.0000 0.71172  0.93005  0.74371  Biso   1.000  H
  H72      1.0000 0.67499  0.97737  0.69649  Biso   1.000  H
  N39      1.0000 0.57905  0.94375  0.73733  Biso   1.000  N
  H73      1.0000 0.59047  0.70888  0.80680  Biso   1.000  H
  H74      1.0000 0.66457  0.78019  0.80490  Biso   1.000  H
  N40      1.0000 0.54107  0.82396  0.78798  Biso   1.000  N
  C71      1.0000 0.01024  0.77424  0.67090  Biso   1.000  C
  N41      1.0000 0.04419  0.97679  0.63107  Biso   1.000  N
  O19      1.0000 0.10963  0.01442  0.56249  Biso   1.000  O
  C72      1.0000 0.97566  0.91628  0.64437  Biso   1.000  C
  C73      1.0000 0.87076  0.85027  0.57550  Biso   1.000  C
  H75      1.0000 0.78369  0.64520  0.77110  Biso   1.000  H
  H76      1.0000 0.88225  0.67358  0.76378  Biso   1.000  H
  C74      1.0000 0.56017  0.91499  0.78450  Biso   1.000  C
  C75      1.0000 0.51606  0.00187  0.71818  Biso   1.000  C
  C76      1.0000 0.45319  0.80786  0.79547  Biso   1.000  C
  N42      1.0000 0.00384  0.85952  0.68434  Biso   1.000  N
  O20      1.0000 0.02401  0.71321  0.69800  Biso   1.000  O
  C77      1.0000 0.07736  0.05094  0.65953  Biso   1.000  C
  C78      1.0000 0.88789  0.96309  0.65053  Biso   1.000  C
  H77      1.0000 0.86933  0.81478  0.54689  Biso   1.000  H
  H78      1.0000 0.83099  0.82428  0.59701  Biso   1.000  H
  C79      1.0000 0.83698  0.94078  0.56177  Biso   1.000  C
  H79      1.0000 0.60741  0.93315  0.80910  Biso   1.000  H
  C80      1.0000 0.46903  0.95843  0.79175  Biso   1.000  C
  N43      1.0000 0.45031  0.00886  0.74837  Biso   1.000  N
  O21      1.0000 0.52005  0.04079  0.68018  Biso   1.000  O
  N44      1.0000 0.40917  0.88531  0.79619  Biso   1.000  N
  O22      1.0000 0.42003  0.73662  0.80017  Biso   1.000  O
  C81      1.0000 0.02102  0.88428  0.73435  Biso   1.000  C
  H80      1.0000 0.09653  0.09529  0.63820  Biso   1.000  H
  H81      1.0000 0.02840  0.07448  0.67599  Biso   1.000  H
  N45      1.0000 0.15137  0.03032  0.69452  Biso   1.000  N
  H82      1.0000 0.84408  0.92229  0.66068  Biso   1.000  H
  C82      1.0000 0.85128  0.00517  0.60361  Biso   1.000  C
  H83      1.0000 0.89796  0.00698  0.67520  Biso   1.000  H
  H84      1.0000 0.77338  0.93787  0.55109  Biso   1.000  H
  H85      1.0000 0.86832  0.96160  0.53520  Biso   1.000  H
  H86      1.0000 0.47309  0.99496  0.82039  Biso   1.000  H
  C83      1.0000 0.37789  0.07221  0.74249  Biso   1.000  C
  C84      1.0000 0.32412  0.89236  0.81781  Biso   1.000  C
  H87      1.0000 0.00964  0.83488  0.75421  Biso   1.000  H
  N46      1.0000 0.11132  0.91479  0.74751  Biso   1.000  N
  H88      1.0000 0.97899  0.92947  0.74120  Biso   1.000  H
  C85      1.0000 0.13819  0.00433  0.74292  Biso   1.000  C
  C86      1.0000 0.23918  0.05120  0.68932  Biso   1.000  C
  H89      1.0000 0.89279  0.04978  0.59529  Biso   1.000  H
  H90      1.0000 0.79439  0.03291  0.60819  Biso   1.000  H
  N47      1.0000 0.28960  0.03368  0.73127  Biso   1.000  N
  H91      1.0000 0.37737  0.10551  0.77178  Biso   1.000  H
  H92      1.0000 0.38978  0.11191  0.71700  Biso   1.000  H
  N48      1.0000 0.24942  0.91770  0.78433  Biso   1.000  N
  H93      1.0000 0.31050  0.83695  0.83168  Biso   1.000  H
  H94      1.0000 0.33090  0.93438  0.84359  Biso   1.000  H
  C87      1.0000 0.17444  0.86753  0.77526  Biso   1.000  C
  C88      1.0000 0.23435  0.00653  0.76873  Biso   1.000  C
  H95      1.0000 0.09761  0.04377  0.75780  Biso   1.000  H
  O23      1.0000 0.26691  0.08088  0.65272  Biso   1.000  O
  O24      1.0000 0.16375  0.79448  0.79024  Biso   1.000  O
  H96      1.0000 0.23887  0.04687  0.79580  Biso   1.000  H
  O25      1.0000 0.66379  0.70546  0.29024  Biso   1.000  O
  C89      1.0000 0.67454  0.63240  0.27526  Biso   1.000  C
  N49      1.0000 0.61142  0.58521  0.24751  Biso   1.000  N
  N50      1.0000 0.74946  0.58223  0.28433  Biso   1.000  N
  C90      1.0000 0.52106  0.61566  0.23435  Biso   1.000  C
  C91      1.0000 0.63823  0.49567  0.24292  Biso   1.000  C
  C92      1.0000 0.73445  0.49347  0.26873  Biso   1.000  C
  C93      1.0000 0.82415  0.60758  0.31781  Biso   1.000  C
  N51      1.0000 0.50395  0.64042  0.18438  Biso   1.000  N
  H97      1.0000 0.47909  0.57047  0.24120  Biso   1.000  H
  H98      1.0000 0.50967  0.66512  0.25421  Biso   1.000  H
  N52      1.0000 0.65141  0.46961  0.19452  Biso   1.000  N
  H99      1.0000 0.59764  0.45617  0.25780  Biso   1.000  H
  N53      1.0000 0.78964  0.46632  0.23127  Biso   1.000  N
  H100     1.0000 0.73897  0.45306  0.29580  Biso   1.000  H
  H101     1.0000 0.81053  0.66298  0.33168  Biso   1.000  H
  H102     1.0000 0.83093  0.56555  0.34359  Biso   1.000  H
  N54      1.0000 0.90920  0.61462  0.29619  Biso   1.000  N
  C94      1.0000 0.47570  0.58372  0.14437  Biso   1.000  C
  C95      1.0000 0.51027  0.72569  0.17090  Biso   1.000  C
  C96      1.0000 0.57739  0.44906  0.15953  Biso   1.000  C
  C97      1.0000 0.73928  0.44880  0.18932  Biso   1.000  C
  C98      1.0000 0.87792  0.42779  0.24249  Biso   1.000  C
  C99      1.0000 0.95322  0.69214  0.29548  Biso   1.000  C
  C100     1.0000 0.96913  0.54157  0.29175  Biso   1.000  C
  C101     1.0000 0.38799  0.53691  0.15053  Biso   1.000  C
  C102     1.0000 0.46659  0.64805  0.09999  Biso   1.000  C
  N55      1.0000 0.54429  0.52314  0.13107  Biso   1.000  N
  N56      1.0000 0.49422  0.73054  0.12200  Biso   1.000  N
  O26      1.0000 0.52411  0.78672  0.19800  Biso   1.000  O
  H103     1.0000 0.59656  0.40471  0.13820  Biso   1.000  H
  H104     1.0000 0.52843  0.42546  0.17599  Biso   1.000  H
  O27      1.0000 0.76695  0.41912  0.15272  Biso   1.000  O
  H105     1.0000 0.87747  0.39449  0.27181  Biso   1.000  H
  H106     1.0000 0.88988  0.38809  0.21700  Biso   1.000  H
  N57      1.0000 0.95035  0.49114  0.24840  Biso   1.000  N
  O28      1.0000 0.92007  0.76338  0.30017  Biso   1.000  O
  N58      1.0000 0.04117  0.67598  0.28798  Biso   1.000  N
  H107     1.0000 0.97312  0.50498  0.32039  Biso   1.000  H
  C103     1.0000 0.06027  0.58495  0.28451  Biso   1.000  C
  C104     1.0000 0.35138  0.49476  0.10361  Biso   1.000  C
  H108     1.0000 0.39806  0.49302  0.17520  Biso   1.000  H
  H109     1.0000 0.34419  0.57771  0.16072  Biso   1.000  H
  C105     1.0000 0.37086  0.64966  0.07550  Biso   1.000  C
  N59      1.0000 0.52933  0.61178  0.06826  Biso   1.000  N
  C106     1.0000 0.56577  0.53543  0.08539  Biso   1.000  C
  C107     1.0000 0.49917  0.81226  0.09701  Biso   1.000  C
  C108     1.0000 0.01617  0.49813  0.21818  Biso   1.000  C
  C109     1.0000 0.10934  0.74211  0.28859  Biso   1.000  C
  N60      1.0000 0.07908  0.55618  0.23733  Biso   1.000  N
  H110     1.0000 0.10744  0.56678  0.30910  Biso   1.000  H
  C110     1.0000 0.33708  0.55915  0.06177  Biso   1.000  C
  H111     1.0000 0.39289  0.45022  0.09529  Biso   1.000  H
  H112     1.0000 0.29449  0.46709  0.10820  Biso   1.000  H
  H113     1.0000 0.36936  0.68516  0.04689  Biso   1.000  H
  H114     1.0000 0.33109  0.67565  0.09701  Biso   1.000  H
  C111     1.0000 0.54683  0.64494  0.02122  Biso   1.000  C
  O29      1.0000 0.60966  0.48558  0.06249  Biso   1.000  O
  H115     1.0000 0.48986  0.85881  0.11920  Biso   1.000  H
  H116     1.0000 0.45058  0.81458  0.07159  Biso   1.000  H
  N61      1.0000 0.58281  0.82674  0.07658  Biso   1.000  N
  O30      1.0000 0.02015  0.45921  0.18018  Biso   1.000  O
  H117     1.0000 0.09057  0.79105  0.30680  Biso   1.000  H
  H118     1.0000 0.16467  0.71981  0.30490  Biso   1.000  H
  N62      1.0000 0.12739  0.77159  0.24123  Biso   1.000  N
  C112     1.0000 0.16425  0.57040  0.21761  Biso   1.000  C
  H119     1.0000 0.27348  0.56206  0.05109  Biso   1.000  H
  H120     1.0000 0.36842  0.53840  0.03520  Biso   1.000  H
  H121     1.0000 0.49181  0.66971  0.00592  Biso   1.000  H
  H122     1.0000 0.56387  0.59717  0.00151  Biso   1.000  H
  N63      1.0000 0.61658  0.70946  0.02323  Biso   1.000  N
  C113     1.0000 0.59906  0.80088  0.02886  Biso   1.000  C
  C114     1.0000 0.64902  0.88027  0.09730  Biso   1.000  C
  C115     1.0000 0.09274  0.84840  0.22327  Biso   1.000  C
  C116     1.0000 0.19344  0.73526  0.21166  Biso   1.000  C
  H123     1.0000 0.21175  0.56989  0.24371  Biso   1.000  H
  H124     1.0000 0.17509  0.52256  0.19649  Biso   1.000  H
  N64      1.0000 0.16981  0.65089  0.19108  Biso   1.000  N
  C117     1.0000 0.70122  0.69388  0.00979  Biso   1.000  C
  H125     1.0000 0.55135  0.82131  0.00509  Biso   1.000  H
  C118     1.0000 0.69095  0.84329  0.02137  Biso   1.000  C
  N65      1.0000 0.71530  0.88673  0.06672  Biso   1.000  N
  O31      1.0000 0.64808  0.91673  0.13587  Biso   1.000  O
  N66      1.0000 0.12030  0.86081  0.17864  Biso   1.000  N
  O32      1.0000 0.04612  0.89798  0.24435  Biso   1.000  O
  C119     1.0000 0.18635  0.79629  0.16652  Biso   1.000  C
  C120     1.0000 0.28861  0.73591  0.23833  Biso   1.000  C
  C121     1.0000 0.15265  0.65380  0.14236  Biso   1.000  C
  N67      1.0000 0.74761  0.77049  0.01151  Biso   1.000  N
  O33      1.0000 0.72921  0.62335  0.99803  Biso   1.000  O
  H126     1.0000 0.68548  0.88441  0.99459  Biso   1.000  H
  C122     1.0000 0.78345  0.95358  0.07224  Biso   1.000  C
  C123     1.0000 0.09076  0.93496  0.15021  Biso   1.000  C
  N68      1.0000 0.15497  0.73817  0.12784  Biso   1.000  N
  C124     1.0000 0.27691  0.83721  0.15864  Biso   1.000  C
  C125     1.0000 0.32127  0.82810  0.24869  Biso   1.000  C
  H127     1.0000 0.33003  0.70668  0.21901  Biso   1.000  H
  H128     1.0000 0.28773  0.70449  0.26830  Biso   1.000  H
  O34      1.0000 0.13965  0.59096  0.11587  Biso   1.000  O
  C126     1.0000 0.83435  0.78032  0.99276  Biso   1.000  C
  H129     1.0000 0.77016  0.99166  0.09819  Biso   1.000  H
  H130     1.0000 0.78078  0.98765  0.04309  Biso   1.000  H
  N69      1.0000 0.87373  0.91996  0.08224  Biso   1.000  N
  N70      1.0000 0.01379  0.91822  0.11597  Biso   1.000  N
  H131     1.0000 0.07546  0.98099  0.17151  Biso   1.000  H
  H132     1.0000 0.14025  0.95507  0.13300  Biso   1.000  H
  C127     1.0000 0.13538  0.76228  0.07744  Biso   1.000  C
  H133     1.0000 0.26871  0.87820  0.13239  Biso   1.000  H
  H134     1.0000 0.31776  0.79260  0.14960  Biso   1.000  H
  C128     1.0000 0.31880  0.88357  0.20316  Biso   1.000  C
  H135     1.0000 0.28373  0.85480  0.27110  Biso   1.000  H
  H136     1.0000 0.38235  0.82635  0.26378  Biso   1.000  H
  N71      1.0000 0.90659  0.80127  0.02872  Biso   1.000  N
  H137     1.0000 0.83008  0.82558  0.96870  Biso   1.000  H
  H138     1.0000 0.84914  0.72698  0.97709  Biso   1.000  H
  C129     1.0000 0.92811  0.94524  0.12182  Biso   1.000  C
  C130     1.0000 0.92518  0.88971  0.04406  Biso   1.000  C
  C131     1.0000 0.02280  0.88551  0.06826  Biso   1.000  C
  N72      1.0000 0.04522  0.79461  0.06582  Biso   1.000  N
  H139     1.0000 0.14430  0.71205  0.05761  Biso   1.000  H
  H140     1.0000 0.17797  0.80618  0.06951  Biso   1.000  H
  H141     1.0000 0.37979  0.90057  0.19789  Biso   1.000  H
  H142     1.0000 0.28484  0.93587  0.20789  Biso   1.000  H
  C132     1.0000 0.98001  0.74877  0.03840  Biso   1.000  C
  O35      1.0000 0.90476  0.98597  0.15591  Biso   1.000  O
  H143     1.0000 0.92049  0.92966  0.01681  Biso   1.000  H
  H144     1.0000 0.06381  0.92119  0.05119  Biso   1.000  H
  O36      1.0000 0.98710  0.67404  0.02509  Biso   1.000  O
  O37      1.0000 0.33601  0.29448  0.70976  Biso   1.000  O
  C133     1.0000 0.32533  0.36753  0.72474  Biso   1.000  C
  N73      1.0000 0.25041  0.41770  0.71567  Biso   1.000  N
  N74      1.0000 0.38845  0.41479  0.75249  Biso   1.000  N
  C134     1.0000 0.17565  0.39236  0.68219  Biso   1.000  C
  C135     1.0000 0.26542  0.50653  0.73127  Biso   1.000  C
  C136     1.0000 0.36164  0.50433  0.75708  Biso   1.000  C
  C137     1.0000 0.47874  0.38428  0.76565  Biso   1.000  C
  H145     1.0000 0.18933  0.33702  0.66828  Biso   1.000  H
  H146     1.0000 0.16893  0.43438  0.65641  Biso   1.000  H
  N75      1.0000 0.09066  0.38538  0.70377  Biso   1.000  N
  H147     1.0000 0.26090  0.54687  0.70420  Biso   1.000  H
  N76      1.0000 0.21023  0.53368  0.76873  Biso   1.000  N
  H148     1.0000 0.40222  0.54377  0.74220  Biso   1.000  H
  N77      1.0000 0.34839  0.53032  0.80548  Biso   1.000  N
  H149     1.0000 0.52077  0.42947  0.75880  Biso   1.000  H
  H150     1.0000 0.49020  0.33488  0.74579  Biso   1.000  H
  N78      1.0000 0.49592  0.35958  0.81562  Biso   1.000  N
  C138     1.0000 0.04664  0.30786  0.70452  Biso   1.000  C
  C139     1.0000 0.03074  0.45843  0.70825  Biso   1.000  C
  C140     1.0000 0.12195  0.57221  0.75751  Biso   1.000  C
  C141     1.0000 0.26059  0.55114  0.81067  Biso   1.000  C
  C142     1.0000 0.42247  0.55088  0.84043  Biso   1.000  C
  C143     1.0000 0.48959  0.27424  0.82910  Biso   1.000  C
  C144     1.0000 0.52410  0.41628  0.85563  Biso   1.000  C
  O38      1.0000 0.07980  0.23662  0.69983  Biso   1.000  O
  N79      1.0000 0.95870  0.32396  0.71202  Biso   1.000  N
  H151     1.0000 0.02668  0.49496  0.67961  Biso   1.000  H
  N80      1.0000 0.04945  0.50886  0.75159  Biso   1.000  N
  C145     1.0000 0.93960  0.41499  0.71549  Biso   1.000  C
  H152     1.0000 0.12239  0.60551  0.72818  Biso   1.000  H
  H153     1.0000 0.10999  0.61191  0.78300  Biso   1.000  H
  O39      1.0000 0.23292  0.58088  0.84728  Biso   1.000  O
  H154     1.0000 0.40330  0.59529  0.86180  Biso   1.000  H
  H155     1.0000 0.47137  0.57448  0.82401  Biso   1.000  H
  N81      1.0000 0.45558  0.47679  0.86893  Biso   1.000  N
  N82      1.0000 0.50564  0.26946  0.87800  Biso   1.000  N
  O40      1.0000 0.47575  0.21321  0.80200  Biso   1.000  O
  C146     1.0000 0.53327  0.35195  0.89998  Biso   1.000  C
  C147     1.0000 0.61187  0.46309  0.84946  Biso   1.000  C
  C148     1.0000 0.89046  0.25789  0.71141  Biso   1.000  C
  C149     1.0000 0.98370  0.50187  0.78182  Biso   1.000  C
  H156     1.0000 0.89236  0.43322  0.69090  Biso   1.000  H
  N83      1.0000 0.92072  0.44382  0.76267  Biso   1.000  N
  C150     1.0000 0.43409  0.46457  0.91460  Biso   1.000  C
  C151     1.0000 0.50070  0.18774  0.90299  Biso   1.000  C
  C152     1.0000 0.62900  0.35034  0.92450  Biso   1.000  C
  N84      1.0000 0.47054  0.38822  0.93174  Biso   1.000  N
  C153     1.0000 0.64848  0.50517  0.89636  Biso   1.000  C
  H157     1.0000 0.60180  0.50698  0.82480  Biso   1.000  H
  H158     1.0000 0.65568  0.42229  0.83928  Biso   1.000  H
  H159     1.0000 0.90930  0.20888  0.69319  Biso   1.000  H
  H160     1.0000 0.83520  0.28019  0.69509  Biso   1.000  H
  N85      1.0000 0.87248  0.22841  0.75876  Biso   1.000  N
  O41      1.0000 0.97972  0.54079  0.81982  Biso   1.000  O
  C154     1.0000 0.83561  0.42960  0.78239  Biso   1.000  C
  O42      1.0000 0.39013  0.51442  0.93751  Biso   1.000  O
  H161     1.0000 0.50994  0.14119  0.88080  Biso   1.000  H
  H162     1.0000 0.54928  0.18542  0.92841  Biso   1.000  H
  N86      1.0000 0.41705  0.17320  0.92339  Biso   1.000  N
  H163     1.0000 0.63044  0.31478  0.95311  Biso   1.000  H
  H164     1.0000 0.66878  0.32428  0.90299  Biso   1.000  H
  C155     1.0000 0.66278  0.44078  0.93823  Biso   1.000  C
  C156     1.0000 0.45304  0.35499  0.97878  Biso   1.000  C
  H165     1.0000 0.60697  0.54978  0.90471  Biso   1.000  H
  H166     1.0000 0.70538  0.53291  0.89180  Biso   1.000  H
  C157     1.0000 0.90712  0.15160  0.77673  Biso   1.000  C
  C158     1.0000 0.80642  0.26474  0.78834  Biso   1.000  C
  H167     1.0000 0.78811  0.43011  0.75629  Biso   1.000  H
  H168     1.0000 0.82477  0.47737  0.80350  Biso   1.000  H
  N87      1.0000 0.83006  0.34911  0.80892  Biso   1.000  N
  C159     1.0000 0.40081  0.19912  0.97114  Biso   1.000  C
  C160     1.0000 0.35078  0.11967  0.90270  Biso   1.000  C
  H169     1.0000 0.72638  0.43787  0.94888  Biso   1.000  H
  H170     1.0000 0.63145  0.46160  0.96479  Biso   1.000  H
  H171     1.0000 0.50806  0.33029  0.99408  Biso   1.000  H
  H172     1.0000 0.43593  0.40277  0.99849  Biso   1.000  H
  N88      1.0000 0.38329  0.29047  0.97677  Biso   1.000  N
  N89      1.0000 0.87956  0.13919  0.82136  Biso   1.000  N
  O43      1.0000 0.95374  0.10202  0.75565  Biso   1.000  O
  C161     1.0000 0.81351  0.20371  0.83344  Biso   1.000  C
  C162     1.0000 0.71126  0.26409  0.76167  Biso   1.000  C
  C163     1.0000 0.84722  0.34620  0.85764  Biso   1.000  C
  H173     1.0000 0.44844  0.17869  0.99491  Biso   1.000  H
  C164     1.0000 0.30891  0.15665  0.97860  Biso   1.000  C
  N90      1.0000 0.28456  0.11327  0.93328  Biso   1.000  N
  O44      1.0000 0.35178  0.08320  0.86409  Biso   1.000  O
  C165     1.0000 0.29865  0.30605  0.99021  Biso   1.000  C
  C166     1.0000 0.90904  0.06504  0.84979  Biso   1.000  C
  C167     1.0000 0.72295  0.16279  0.84133  Biso   1.000  C
  N91      1.0000 0.84489  0.26177  0.87216  Biso   1.000  N
  C168     1.0000 0.67859  0.17190  0.75131  Biso   1.000  C
  H174     1.0000 0.66977  0.29332  0.78099  Biso   1.000  H
  H175     1.0000 0.71207  0.29551  0.73170  Biso   1.000  H
  O45      1.0000 0.86022  0.40897  0.88413  Biso   1.000  O
  N92      1.0000 0.25226  0.22951  0.98849  Biso   1.000  N
  H176     1.0000 0.31439  0.11559  0.00541  Biso   1.000  H
  C169     1.0000 0.21642  0.04642  0.92776  Biso   1.000  C
  O46      1.0000 0.27066  0.37658  0.00197  Biso   1.000  O
  H177     1.0000 0.92440  0.01901  0.82849  Biso   1.000  H
  H178     1.0000 0.85955  0.04487  0.86700  Biso   1.000  H
  N93      1.0000 0.98601  0.08178  0.88402  Biso   1.000  N
  H179     1.0000 0.73116  0.12180  0.86760  Biso   1.000  H
  H180     1.0000 0.68211  0.20740  0.85040  Biso   1.000  H
  C170     1.0000 0.68107  0.11637  0.79684  Biso   1.000  C
  C171     1.0000 0.86442  0.23772  0.92256  Biso   1.000  C
  H181     1.0000 0.71607  0.14520  0.72890  Biso   1.000  H
  H182     1.0000 0.61751  0.17358  0.73618  Biso   1.000  H
  C172     1.0000 0.16545  0.21961  0.00724  Biso   1.000  C
  N94      1.0000 0.12607  0.08004  0.91776  Biso   1.000  N
  H183     1.0000 0.22971  0.00828  0.90181  Biso   1.000  H
  H184     1.0000 0.21909  0.01228  0.95691  Biso   1.000  H
  C173     1.0000 0.07176  0.05476  0.87818  Biso   1.000  C
  C174     1.0000 0.97707  0.11449  0.93174  Biso   1.000  C
  H185     1.0000 0.62007  0.09937  0.80211  Biso   1.000  H
  H186     1.0000 0.71496  0.06407  0.79210  Biso   1.000  H
  H187     1.0000 0.85557  0.28788  0.94239  Biso   1.000  H
  H188     1.0000 0.82183  0.19382  0.93049  Biso   1.000  H
  N95      1.0000 0.95458  0.20533  0.93418  Biso   1.000  N
  N96      1.0000 0.09327  0.19867  0.97125  Biso   1.000  N
  H189     1.0000 0.16978  0.17442  0.03130  Biso   1.000  H
  H190     1.0000 0.15072  0.27302  0.02291  Biso   1.000  H
  C175     1.0000 0.07462  0.11029  0.95594  Biso   1.000  C
  O47      1.0000 0.09510  0.01396  0.84409  Biso   1.000  O
  H191     1.0000 0.93606  0.07881  0.94880  Biso   1.000  H
  C176     1.0000 0.01986  0.25116  0.96160  Biso   1.000  C
  H192     1.0000 0.07937  0.07027  0.98318  Biso   1.000  H
  O48      1.0000 0.01270  0.32596  0.97490  Biso   1.000  O
