data_image0
_cell_length_a       10.876
_cell_length_b       14.151
_cell_length_c       26.065
_cell_angle_alpha    92.55
_cell_angle_beta     99.06
_cell_angle_gamma    104.57

_symmetry_space_group_name_H-M    "P 1"
_symmetry_int_tables_number       1

loop_
  _symmetry_equiv_pos_as_xyz
  'x, y, z'

loop_
  _atom_site_label
  _atom_site_occupancy
  _atom_site_fract_x
  _atom_site_fract_y
  _atom_site_fract_z
  _atom_site_thermal_displace_type
  _atom_site_B_iso_or_equiv
  _atom_site_type_symbol
  C1       1.0000 0.55804  0.33450  0.58557  Biso   1.000  C
  C2       1.0000 0.55834  0.23093  0.56681  Biso   1.000  C
  N1       1.0000 0.55688  0.34243  0.64142  Biso   1.000  N
  H1       1.0000 0.48098  0.35101  0.56662  Biso   1.000  H
  H2       1.0000 0.63567  0.38181  0.57800  Biso   1.000  H
  N2       1.0000 0.43566  0.16220  0.57153  Biso   1.000  N
  H3       1.0000 0.63066  0.21173  0.58799  Biso   1.000  H
  H4       1.0000 0.57059  0.22879  0.52999  Biso   1.000  H
  C3       1.0000 0.46174  0.36741  0.65562  Biso   1.000  C
  C4       1.0000 0.44320  0.08460  0.59279  Biso   1.000  C
  C5       1.0000 0.44746  0.38020  0.70999  Biso   1.000  C
  H5       1.0000 0.39678  0.37811  0.62941  Biso   1.000  H
  H6       1.0000 0.52617  0.07597  0.60550  Biso   1.000  H
  C6       1.0000 0.32897  0.00758  0.59860  Biso   1.000  C
  C7       1.0000 0.34432  0.41216  0.72180  Biso   1.000  C
  C8       1.0000 0.53382  0.35951  0.75090  Biso   1.000  C
  C9       1.0000 0.20211  0.01199  0.58023  Biso   1.000  C
  C10      1.0000 0.34604  0.92870  0.62672  Biso   1.000  C
  H7       1.0000 0.28433  0.42566  0.69438  Biso   1.000  H
  C11      1.0000 0.32642  0.42487  0.77348  Biso   1.000  C
  C12      1.0000 0.51767  0.37008  0.80199  Biso   1.000  C
  H8       1.0000 0.60518  0.33750  0.74321  Biso   1.000  H
  H9       1.0000 0.18819  0.06659  0.56248  Biso   1.000  H
  C13      1.0000 0.09824  0.93950  0.58736  Biso   1.000  C
  H10      1.0000 0.43090  0.92426  0.63959  Biso   1.000  H
  C14      1.0000 0.24072  0.85651  0.63612  Biso   1.000  C
  C15      1.0000 0.41290  0.40113  0.81272  Biso   1.000  C
  C16      1.0000 0.21784  0.46058  0.78588  Biso   1.000  C
  C17      1.0000 0.61346  0.34889  0.84298  Biso   1.000  C
  C18      1.0000 0.96518  0.94432  0.56708  Biso   1.000  C
  C19      1.0000 0.11820  0.86161  0.61525  Biso   1.000  C
  C20      1.0000 0.25786  0.77437  0.66701  Biso   1.000  C
  H11      1.0000 0.39955  0.40626  0.84770  Biso   1.000  H
  N3       1.0000 0.13931  0.48628  0.75187  Biso   1.000  N
  H12      1.0000 0.20610  0.46437  0.82118  Biso   1.000  H
  N4       1.0000 0.60948  0.35930  0.89138  Biso   1.000  N
  H13      1.0000 0.68191  0.32612  0.83288  Biso   1.000  H
  N5       1.0000 0.86784  0.87608  0.57079  Biso   1.000  N
  H14      1.0000 0.95269  0.00061  0.55070  Biso   1.000  H
  H15      1.0000 0.04595  0.81086  0.62009  Biso   1.000  H
  N6       1.0000 0.36797  0.76437  0.68557  Biso   1.000  N
  H16      1.0000 0.18345  0.72741  0.67309  Biso   1.000  H
  C21      1.0000 0.03833  0.52416  0.76989  Biso   1.000  C
  C22      1.0000 0.71905  0.34008  0.92699  Biso   1.000  C
  C23      1.0000 0.74161  0.88762  0.54692  Biso   1.000  C
  C24      1.0000 0.36924  0.67809  0.71529  Biso   1.000  C
  H17      1.0000 0.04678  0.52268  0.80819  Biso   1.000  H
  H18      1.0000 0.04971  0.59328  0.76178  Biso   1.000  H
  C25      1.0000 0.90660  0.46521  0.74458  Biso   1.000  C
  H19      1.0000 0.77352  0.31338  0.90640  Biso   1.000  H
  H20      1.0000 0.77257  0.40241  0.94630  Biso   1.000  H
  C26      1.0000 0.67182  0.26821  0.96529  Biso   1.000  C
  H21      1.0000 0.75205  0.95356  0.53421  Biso   1.000  H
  H22      1.0000 0.70424  0.83837  0.51669  Biso   1.000  H
  C27      1.0000 0.65153  0.87453  0.58612  Biso   1.000  C
  C28      1.0000 0.44232  0.70736  0.77001  Biso   1.000  C
  H23      1.0000 0.27945  0.64142  0.71650  Biso   1.000  H
  H24      1.0000 0.40984  0.63408  0.69731  Biso   1.000  H
  N7       1.0000 0.87951  0.36807  0.76338  Biso   1.000  N
  H25      1.0000 0.90137  0.45923  0.70620  Biso   1.000  H
  H26      1.0000 0.84132  0.49867  0.75261  Biso   1.000  H
  N8       1.0000 0.60752  0.17007  0.93873  Biso   1.000  N
  H27      1.0000 0.61052  0.29196  0.98350  Biso   1.000  H
  H28      1.0000 0.74587  0.26413  0.99181  Biso   1.000  H
  N9       1.0000 0.69162  0.95801  0.62555  Biso   1.000  N
  H29      1.0000 0.65226  0.81337  0.60308  Biso   1.000  H
  H30      1.0000 0.56248  0.86878  0.56810  Biso   1.000  H
  N10      1.0000 0.37107  0.75553  0.80207  Biso   1.000  N
  H31      1.0000 0.52733  0.75289  0.76892  Biso   1.000  H
  H32      1.0000 0.45757  0.64849  0.78619  Biso   1.000  H
  C29      1.0000 0.83789  0.29598  0.72878  Biso   1.000  C
  C30      1.0000 0.50009  0.12886  0.95051  Biso   1.000  C
  C31      1.0000 0.70180  0.93949  0.67250  Biso   1.000  C
  C32      1.0000 0.43705  0.83339  0.82921  Biso   1.000  C
  C33      1.0000 0.80595  0.19309  0.74240  Biso   1.000  C
  H33      1.0000 0.82683  0.30840  0.69310  Biso   1.000  H
  C34      1.0000 0.41927  0.03263  0.92531  Biso   1.000  C
  H34      1.0000 0.46965  0.16101  0.97668  Biso   1.000  H
  H35      1.0000 0.68454  0.87341  0.68089  Biso   1.000  H
  C35      1.0000 0.74057  0.02083  0.71490  Biso   1.000  C
  C36      1.0000 0.38533  0.89013  0.86541  Biso   1.000  C
  H36      1.0000 0.52525  0.85681  0.82602  Biso   1.000  H
  C37      1.0000 0.76654  0.11748  0.70332  Biso   1.000  C
  C38      1.0000 0.82046  0.17119  0.79450  Biso   1.000  C
  C39      1.0000 0.46511  0.97638  0.89162  Biso   1.000  C
  C40      1.0000 0.29477  0.00101  0.93370  Biso   1.000  C
  C41      1.0000 0.75587  0.99917  0.76669  Biso   1.000  C
  C42      1.0000 0.25831  0.85909  0.87418  Biso   1.000  C
  H37      1.0000 0.75719  0.13200  0.66790  Biso   1.000  H
  C43      1.0000 0.79637  0.07417  0.80651  Biso   1.000  C
  H38      1.0000 0.84681  0.22272  0.82180  Biso   1.000  H
  H39      1.0000 0.55213  0.99730  0.88651  Biso   1.000  H
  C44      1.0000 0.21341  0.91391  0.90768  Biso   1.000  C
  H40      1.0000 0.26363  0.03850  0.95729  Biso   1.000  H
  H41      1.0000 0.73855  0.93280  0.77469  Biso   1.000  H
  H42      1.0000 0.20310  0.79961  0.85671  Biso   1.000  H
  C45      1.0000 0.81294  0.05510  0.86209  Biso   1.000  C
  C46      1.0000 0.07908  0.88176  0.91681  Biso   1.000  C
  N11      1.0000 0.79050  0.96949  0.87687  Biso   1.000  N
  H43      1.0000 0.84176  0.10929  0.88779  Biso   1.000  H
  N12      1.0000 0.02612  0.93656  0.94091  Biso   1.000  N
  H44      1.0000 0.02987  0.81716  0.90410  Biso   1.000  H
  C47      1.0000 0.81044  0.96380  0.93343  Biso   1.000  C
  C48      1.0000 0.89535  0.89576  0.94895  Biso   1.000  C
  H45      1.0000 0.72605  0.93922  0.94458  Biso   1.000  H
  H46      1.0000 0.85162  0.02999  0.95129  Biso   1.000  H
  H47      1.0000 0.85909  0.83178  0.92808  Biso   1.000  H
  H48      1.0000 0.89601  0.88433  0.98619  Biso   1.000  H
  C49      1.0000 0.44188  0.66550  0.41439  Biso   1.000  C
  N13      1.0000 0.44306  0.65758  0.35858  Biso   1.000  N
  C50      1.0000 0.44160  0.76907  0.43319  Biso   1.000  C
  H49      1.0000 0.51895  0.64900  0.43339  Biso   1.000  H
  H50      1.0000 0.36427  0.61820  0.42200  Biso   1.000  H
  C51      1.0000 0.53820  0.63260  0.34438  Biso   1.000  C
  N14      1.0000 0.56428  0.83780  0.42847  Biso   1.000  N
  H51      1.0000 0.36928  0.78828  0.41201  Biso   1.000  H
  H52      1.0000 0.42934  0.77122  0.47001  Biso   1.000  H
  C52      1.0000 0.55248  0.61981  0.29002  Biso   1.000  C
  H53      1.0000 0.60316  0.62189  0.37059  Biso   1.000  H
  C53      1.0000 0.55674  0.91541  0.40722  Biso   1.000  C
  C54      1.0000 0.65559  0.58778  0.27820  Biso   1.000  C
  C55      1.0000 0.46612  0.64050  0.24910  Biso   1.000  C
  H54      1.0000 0.47374  0.92397  0.39450  Biso   1.000  H
  C56      1.0000 0.67097  0.99243  0.40140  Biso   1.000  C
  H55      1.0000 0.71559  0.57428  0.30562  Biso   1.000  H
  C57      1.0000 0.67348  0.57506  0.22648  Biso   1.000  C
  C58      1.0000 0.48227  0.62993  0.19801  Biso   1.000  C
  H56      1.0000 0.39476  0.66251  0.25679  Biso   1.000  H
  C59      1.0000 0.79782  0.98802  0.41977  Biso   1.000  C
  C60      1.0000 0.65390  0.07130  0.37328  Biso   1.000  C
  C61      1.0000 0.58704  0.59888  0.18729  Biso   1.000  C
  C62      1.0000 0.78208  0.53942  0.21408  Biso   1.000  C
  C63      1.0000 0.38646  0.65111  0.15698  Biso   1.000  C
  H57      1.0000 0.81173  0.93341  0.43748  Biso   1.000  H
  C64      1.0000 0.90170  0.06051  0.41264  Biso   1.000  C
  H58      1.0000 0.56901  0.07567  0.36041  Biso   1.000  H
  C65      1.0000 0.75921  0.14349  0.36389  Biso   1.000  C
  H59      1.0000 0.60036  0.59368  0.15230  Biso   1.000  H
  N15      1.0000 0.86063  0.51373  0.24813  Biso   1.000  N
  H60      1.0000 0.79382  0.53563  0.17878  Biso   1.000  H
  N16      1.0000 0.39046  0.64070  0.10862  Biso   1.000  N
  H61      1.0000 0.31801  0.67388  0.16708  Biso   1.000  H
  C66      1.0000 0.88172  0.13840  0.38471  Biso   1.000  C
  C67      1.0000 0.03475  0.05568  0.43292  Biso   1.000  C
  C68      1.0000 0.74206  0.22557  0.33300  Biso   1.000  C
  C69      1.0000 0.96158  0.47578  0.23011  Biso   1.000  C
  C70      1.0000 0.28089  0.65993  0.07301  Biso   1.000  C
  H62      1.0000 0.95396  0.18908  0.37991  Biso   1.000  H
  H63      1.0000 0.04724  0.99940  0.44930  Biso   1.000  H
  N17      1.0000 0.13208  0.12392  0.42917  Biso   1.000  N
  N18      1.0000 0.63194  0.23556  0.31443  Biso   1.000  N
  H64      1.0000 0.81648  0.27260  0.32691  Biso   1.000  H
  H65      1.0000 0.95315  0.47733  0.19181  Biso   1.000  H
  H66      1.0000 0.95021  0.40673  0.23818  Biso   1.000  H
  C71      1.0000 0.09332  0.53479  0.25538  Biso   1.000  C
  H67      1.0000 0.22642  0.68663  0.09360  Biso   1.000  H
  H68      1.0000 0.22736  0.59760  0.05371  Biso   1.000  H
  C72      1.0000 0.32811  0.73180  0.03471  Biso   1.000  C
  C73      1.0000 0.25833  0.11239  0.45308  Biso   1.000  C
  C74      1.0000 0.63069  0.32192  0.28471  Biso   1.000  C
  N19      1.0000 0.12041  0.63186  0.23662  Biso   1.000  N
  H69      1.0000 0.09856  0.54078  0.29380  Biso   1.000  H
  H70      1.0000 0.15850  0.50127  0.24739  Biso   1.000  H
  N20      1.0000 0.39240  0.82987  0.06127  Biso   1.000  N
  H71      1.0000 0.38939  0.70797  0.01650  Biso   1.000  H
  H72      1.0000 0.25407  0.73588  0.00819  Biso   1.000  H
  H73      1.0000 0.24786  0.04637  0.46580  Biso   1.000  H
  H74      1.0000 0.29567  0.16157  0.48331  Biso   1.000  H
  C75      1.0000 0.34841  0.12548  0.41389  Biso   1.000  C
  C76      1.0000 0.55759  0.29257  0.22999  Biso   1.000  C
  H75      1.0000 0.72049  0.35859  0.28350  Biso   1.000  H
  H76      1.0000 0.59010  0.36593  0.30269  Biso   1.000  H
  C77      1.0000 0.16205  0.70403  0.27122  Biso   1.000  C
  C78      1.0000 0.49973  0.87107  0.04949  Biso   1.000  C
  N21      1.0000 0.30832  0.04200  0.37445  Biso   1.000  N
  H77      1.0000 0.34766  0.18663  0.39688  Biso   1.000  H
  H78      1.0000 0.43745  0.13123  0.43190  Biso   1.000  H
  N22      1.0000 0.62885  0.24448  0.19789  Biso   1.000  N
  H79      1.0000 0.47260  0.24712  0.23108  Biso   1.000  H
  H80      1.0000 0.54237  0.35152  0.21381  Biso   1.000  H
  C79      1.0000 0.19399  0.80692  0.25761  Biso   1.000  C
  H81      1.0000 0.17301  0.69160  0.30690  Biso   1.000  H
  C80      1.0000 0.58066  0.96738  0.07469  Biso   1.000  C
  H82      1.0000 0.53027  0.83899  0.02328  Biso   1.000  H
  C81      1.0000 0.29813  0.06052  0.32750  Biso   1.000  C
  C82      1.0000 0.56289  0.16661  0.17079  Biso   1.000  C
  C83      1.0000 0.23339  0.88253  0.29669  Biso   1.000  C
  C84      1.0000 0.17947  0.82882  0.20550  Biso   1.000  C
  C85      1.0000 0.70517  0.99900  0.06630  Biso   1.000  C
  C86      1.0000 0.53474  0.02363  0.10839  Biso   1.000  C
  C87      1.0000 0.25937  0.97918  0.28510  Biso   1.000  C
  H83      1.0000 0.31531  0.12660  0.31911  Biso   1.000  H
  C88      1.0000 0.61461  0.10988  0.13459  Biso   1.000  C
  H84      1.0000 0.47469  0.14319  0.17399  Biso   1.000  H
  H85      1.0000 0.24274  0.86801  0.33210  Biso   1.000  H
  C89      1.0000 0.20355  0.92577  0.19349  Biso   1.000  C
  H86      1.0000 0.15313  0.77728  0.17820  Biso   1.000  H
  H87      1.0000 0.73631  0.96151  0.04271  Biso   1.000  H
  C90      1.0000 0.78643  0.08610  0.09232  Biso   1.000  C
  H88      1.0000 0.44781  0.00271  0.11349  Biso   1.000  H
  C91      1.0000 0.24404  0.00077  0.23331  Biso   1.000  C
  C92      1.0000 0.74161  0.14092  0.12578  Biso   1.000  C
  C93      1.0000 0.18700  0.94491  0.13791  Biso   1.000  C
  C94      1.0000 0.92083  0.11817  0.08319  Biso   1.000  C
  H89      1.0000 0.26139  0.06720  0.22531  Biso   1.000  H
  H90      1.0000 0.79684  0.20040  0.14329  Biso   1.000  H
  H91      1.0000 0.15818  0.89071  0.11221  Biso   1.000  H
  N23      1.0000 0.20944  0.03052  0.12313  Biso   1.000  N
  N24      1.0000 0.97379  0.06337  0.05909  Biso   1.000  N
  H92      1.0000 0.97004  0.18278  0.09590  Biso   1.000  H
  C95      1.0000 0.18950  0.03621  0.06658  Biso   1.000  C
  C96      1.0000 0.10455  0.10416  0.05101  Biso   1.000  C
  H93      1.0000 0.14832  0.97002  0.04871  Biso   1.000  H
  H94      1.0000 0.27387  0.06079  0.05538  Biso   1.000  H
  H95      1.0000 0.14085  0.16822  0.07192  Biso   1.000  H
  H96      1.0000 0.10393  0.11568  0.01381  Biso   1.000  H
  Ne1      1.0000 0.80530  0.90595  0.24446  Biso   1.000  Ne
  He1      1.0000 0.90795  0.81559  0.33580  Biso   1.000  He
  He2      1.0000 0.95939  0.10434  0.24868  Biso   1.000  He
  He3      1.0000 0.52650  0.91836  0.24144  Biso   1.000  He
  He4      1.0000 0.82934  0.82449  0.15542  Biso   1.000  He
  Ar1      1.0000 0.81025  0.91284  0.24569  Biso   1.000  Ar
  Ne2      1.0000 0.19462  0.09404  0.75554  Biso   1.000  Ne
  He5      1.0000 0.16918  0.18594  0.85312  Biso   1.000  He
  He6      1.0000 0.44863  0.08159  0.75863  Biso   1.000  He
  He7      1.0000 0.04302  0.89880  0.75140  Biso   1.000  He
  He8      1.0000 0.09266  0.18362  0.66490  Biso   1.000  He
  Ar2      1.0000 0.18791  0.08268  0.75816  Biso   1.000  Ar
