data_image0
_cell_length_a       11.848
_cell_length_b       12.954
_cell_length_c       23.084
_cell_angle_alpha    103.45
_cell_angle_beta     91.13
_cell_angle_gamma    93.74

_symmetry_space_group_name_H-M    "P 1"
_symmetry_int_tables_number       1

loop_
  _symmetry_equiv_pos_as_xyz
  'x, y, z'

loop_
  _atom_site_label
  _atom_site_occupancy
  _atom_site_fract_x
  _atom_site_fract_y
  _atom_site_fract_z
  _atom_site_thermal_displace_type
  _atom_site_B_iso_or_equiv
  _atom_site_type_symbol
  N1       1.0000 0.68956  0.73200  0.57429  Biso   1.000  N
  C1       1.0000 0.61420  0.64992  0.58851  Biso   1.000  C
  C2       1.0000 0.79302  0.69781  0.55802  Biso   1.000  C
  C3       1.0000 0.64900  0.82677  0.55949  Biso   1.000  C
  C4       1.0000 0.68965  0.55552  0.58329  Biso   1.000  C
  H1       1.0000 0.54767  0.63147  0.56052  Biso   1.000  H
  N2       1.0000 0.58120  0.66980  0.65042  Biso   1.000  N
  N3       1.0000 0.79826  0.59782  0.56810  Biso   1.000  N
  O1       1.0000 0.86885  0.74599  0.53783  Biso   1.000  O
  H2       1.0000 0.57823  0.80717  0.53560  Biso   1.000  H
  H3       1.0000 0.70474  0.85462  0.53511  Biso   1.000  H
  N4       1.0000 0.62950  0.90994  0.61164  Biso   1.000  N
  H4       1.0000 0.65952  0.49311  0.55209  Biso   1.000  H
  N5       1.0000 0.68693  0.53313  0.64199  Biso   1.000  N
  C5       1.0000 0.61674  0.59644  0.67903  Biso   1.000  C
  C6       1.0000 0.48976  0.73694  0.67221  Biso   1.000  C
  C7       1.0000 0.89214  0.53288  0.54862  Biso   1.000  C
  C8       1.0000 0.52842  0.91468  0.64551  Biso   1.000  C
  C9       1.0000 0.69750  0.00380  0.62573  Biso   1.000  C
  C10      1.0000 0.73227  0.43988  0.65523  Biso   1.000  C
  O2       1.0000 0.59073  0.58619  0.72864  Biso   1.000  O
  H5       1.0000 0.45837  0.71588  0.70711  Biso   1.000  H
  H6       1.0000 0.42940  0.72502  0.64132  Biso   1.000  H
  N6       1.0000 0.52604  0.84975  0.68870  Biso   1.000  N
  H7       1.0000 0.93771  0.56608  0.52201  Biso   1.000  H
  H8       1.0000 0.86170  0.46288  0.52553  Biso   1.000  H
  N7       1.0000 0.96534  0.51801  0.59680  Biso   1.000  N
  H9       1.0000 0.45925  0.90089  0.61940  Biso   1.000  H
  C11      1.0000 0.53874  0.02984  0.68500  Biso   1.000  C
  N8       1.0000 0.64817  0.07050  0.67199  Biso   1.000  N
  O3       1.0000 0.78359  0.02429  0.60077  Biso   1.000  O
  H10      1.0000 0.69092  0.42108  0.68812  Biso   1.000  H
  H11      1.0000 0.71958  0.38017  0.62033  Biso   1.000  H
  N9       1.0000 0.85336  0.45433  0.67145  Biso   1.000  N
  C12      1.0000 0.51666  0.90867  0.74593  Biso   1.000  C
  C13      1.0000 0.94734  0.43651  0.63090  Biso   1.000  C
  C14      1.0000 0.06017  0.58243  0.61449  Biso   1.000  C
  N10      1.0000 0.52784  0.01376  0.74509  Biso   1.000  N
  H12      1.0000 0.47834  0.07242  0.67471  Biso   1.000  H
  C15      1.0000 0.68536  0.18360  0.68991  Biso   1.000  C
  C16      1.0000 0.88744  0.47909  0.73060  Biso   1.000  C
  O4       1.0000 0.49791  0.87295  0.78997  Biso   1.000  O
  C17      1.0000 0.93452  0.32516  0.58980  Biso   1.000  C
  C18      1.0000 0.05466  0.45910  0.67582  Biso   1.000  C
  N11      1.0000 0.11111  0.55528  0.66183  Biso   1.000  N
  O5       1.0000 0.09663  0.65327  0.59060  Biso   1.000  O
  C19      1.0000 0.52338  0.09915  0.79790  Biso   1.000  C
  H13      1.0000 0.61900  0.22534  0.69093  Biso   1.000  H
  H14      1.0000 0.73535  0.20134  0.65982  Biso   1.000  H
  N12      1.0000 0.74451  0.21496  0.74763  Biso   1.000  N
  O6       1.0000 0.82496  0.49261  0.77290  Biso   1.000  O
  N13      1.0000 0.00289  0.48292  0.73403  Biso   1.000  N
  H15      1.0000 0.99822  0.31509  0.56391  Biso   1.000  H
  H16      1.0000 0.93227  0.27238  0.61360  Biso   1.000  H
  H17      1.0000 0.86485  0.31732  0.56591  Biso   1.000  H
  C20      1.0000 0.13226  0.36940  0.66981  Biso   1.000  C
  C21      1.0000 0.22143  0.60494  0.68621  Biso   1.000  C
  H18      1.0000 0.47743  0.15350  0.78841  Biso   1.000  H
  H19      1.0000 0.48525  0.07094  0.82883  Biso   1.000  H
  N14      1.0000 0.63269  0.14916  0.82184  Biso   1.000  N
  C22      1.0000 0.86062  0.22076  0.75150  Biso   1.000  C
  C23      1.0000 0.69148  0.24033  0.80530  Biso   1.000  C
  C24      1.0000 0.06197  0.51585  0.79162  Biso   1.000  C
  H20      1.0000 0.09220  0.30865  0.67992  Biso   1.000  H
  H21      1.0000 0.15654  0.34942  0.62911  Biso   1.000  H
  H22      1.0000 0.19783  0.39262  0.69664  Biso   1.000  H
  H23      1.0000 0.26064  0.63270  0.65550  Biso   1.000  H
  H24      1.0000 0.26678  0.55021  0.69610  Biso   1.000  H
  N15      1.0000 0.21593  0.69010  0.73867  Biso   1.000  N
  C25      1.0000 0.68270  0.12366  0.87033  Biso   1.000  C
  N16      1.0000 0.89398  0.24963  0.81051  Biso   1.000  N
  O7       1.0000 0.92396  0.20734  0.70929  Biso   1.000  O
  C26      1.0000 0.79939  0.26609  0.85094  Biso   1.000  C
  C27      1.0000 0.61464  0.33085  0.80994  Biso   1.000  C
  H25      1.0000 0.01337  0.49626  0.82170  Biso   1.000  H
  H26      1.0000 0.13029  0.47670  0.79050  Biso   1.000  H
  N17      1.0000 0.09438  0.62915  0.80967  Biso   1.000  N
  C28      1.0000 0.23082  0.79631  0.73791  Biso   1.000  C
  C29      1.0000 0.20463  0.67334  0.79844  Biso   1.000  C
  N18      1.0000 0.78310  0.18395  0.88481  Biso   1.000  N
  O8       1.0000 0.64405  0.05666  0.89582  Biso   1.000  O
  C30      1.0000 0.01260  0.26072  0.82812  Biso   1.000  C
  C31      1.0000 0.80942  0.37638  0.89190  Biso   1.000  C
  H27      1.0000 0.65594  0.39106  0.79982  Biso   1.000  H
  H28      1.0000 0.54981  0.30762  0.78252  Biso   1.000  H
  H29      1.0000 0.58882  0.35185  0.85032  Biso   1.000  H
  C32      1.0000 0.04288  0.69564  0.85504  Biso   1.000  C
  N19      1.0000 0.21939  0.85437  0.79603  Biso   1.000  N
  O9       1.0000 0.25290  0.83200  0.69490  Biso   1.000  O
  H30      1.0000 0.26578  0.63170  0.80891  Biso   1.000  H
  C33      1.0000 0.21144  0.78744  0.83850  Biso   1.000  C
  C34      1.0000 0.85202  0.17493  0.93553  Biso   1.000  C
  H31      1.0000 0.05662  0.27775  0.79563  Biso   1.000  H
  H32      1.0000 0.02539  0.32074  0.86284  Biso   1.000  H
  N20      1.0000 0.05459  0.16706  0.84278  Biso   1.000  N
  H33      1.0000 0.82301  0.42907  0.86863  Biso   1.000  H
  H34      1.0000 0.73982  0.38909  0.91303  Biso   1.000  H
  H35      1.0000 0.87200  0.38155  0.92051  Biso   1.000  H
  O10      1.0000 0.95602  0.67411  0.87938  Biso   1.000  O
  N21      1.0000 0.10595  0.79122  0.86917  Biso   1.000  N
  C35      1.0000 0.25634  0.96656  0.81363  Biso   1.000  C
  H36      1.0000 0.27788  0.80099  0.86663  Biso   1.000  H
  H37      1.0000 0.80426  0.14414  0.96232  Biso   1.000  H
  H38      1.0000 0.88016  0.24657  0.95733  Biso   1.000  H
  N22      1.0000 0.94733  0.11109  0.92069  Biso   1.000  N
  C36      1.0000 0.12765  0.10551  0.80664  Biso   1.000  C
  C37      1.0000 0.05550  0.14903  0.90211  Biso   1.000  C
  C38      1.0000 0.08797  0.87295  0.92194  Biso   1.000  C
  H39      1.0000 0.28827  0.98894  0.77932  Biso   1.000  H
  H40      1.0000 0.31636  0.97716  0.84470  Biso   1.000  H
  N23      1.0000 0.16534  0.03256  0.83583  Biso   1.000  N
  C39      1.0000 0.94712  0.00774  0.92680  Biso   1.000  C
  O11      1.0000 0.15365  0.11385  0.75614  Biso   1.000  O
  C40      1.0000 0.12974  0.05226  0.89622  Biso   1.000  C
  H41      1.0000 0.08916  0.21207  0.93184  Biso   1.000  H
  H42      1.0000 0.03138  0.84520  0.94583  Biso   1.000  H
  H43      1.0000 0.15883  0.89018  0.94592  Biso   1.000  H
  N24      1.0000 0.05018  0.97022  0.90870  Biso   1.000  N
  O12      1.0000 0.87225  0.95988  0.94739  Biso   1.000  O
  H44      1.0000 0.19504  0.06834  0.92502  Biso   1.000  H
  C41      1.0000 0.31038  0.44463  0.41669  Biso   1.000  C
  N25      1.0000 0.31310  0.46704  0.35803  Biso   1.000  N
  C42      1.0000 0.38583  0.35025  0.41152  Biso   1.000  C
  H45      1.0000 0.34051  0.50705  0.44789  Biso   1.000  H
  N26      1.0000 0.20186  0.40235  0.43193  Biso   1.000  N
  C43      1.0000 0.38329  0.40373  0.32100  Biso   1.000  C
  C44      1.0000 0.26784  0.56029  0.34480  Biso   1.000  C
  N27      1.0000 0.41883  0.33037  0.34961  Biso   1.000  N
  H46      1.0000 0.45245  0.36870  0.43951  Biso   1.000  H
  N28      1.0000 0.31055  0.26817  0.42574  Biso   1.000  N
  C45      1.0000 0.20701  0.30236  0.44201  Biso   1.000  C
  C46      1.0000 0.10790  0.46729  0.45141  Biso   1.000  C
  O13      1.0000 0.40929  0.41397  0.27135  Biso   1.000  O
  H47      1.0000 0.30911  0.57909  0.31190  Biso   1.000  H
  H48      1.0000 0.28053  0.62000  0.37970  Biso   1.000  H
  N29      1.0000 0.14667  0.54584  0.32857  Biso   1.000  N
  C47      1.0000 0.51035  0.26323  0.32782  Biso   1.000  C
  C48      1.0000 0.35103  0.17339  0.44049  Biso   1.000  C
  O14      1.0000 0.13126  0.25419  0.46220  Biso   1.000  O
  H49      1.0000 0.06232  0.43410  0.47802  Biso   1.000  H
  H50      1.0000 0.13834  0.53729  0.47450  Biso   1.000  H
  N30      1.0000 0.03469  0.48217  0.40323  Biso   1.000  N
  C49      1.0000 0.05269  0.56365  0.36909  Biso   1.000  C
  C50      1.0000 0.11259  0.52106  0.26938  Biso   1.000  C
  H51      1.0000 0.54174  0.28429  0.29292  Biso   1.000  H
  H52      1.0000 0.57063  0.27515  0.35870  Biso   1.000  H
  N31      1.0000 0.47399  0.15042  0.31132  Biso   1.000  N
  N32      1.0000 0.37053  0.09023  0.38839  Biso   1.000  N
  H53      1.0000 0.42189  0.19300  0.46442  Biso   1.000  H
  H54      1.0000 0.29538  0.14555  0.46491  Biso   1.000  H
  C51      1.0000 0.93994  0.41773  0.38549  Biso   1.000  C
  C52      1.0000 0.06551  0.67502  0.41023  Biso   1.000  C
  C53      1.0000 0.94537  0.54107  0.32421  Biso   1.000  C
  O15      1.0000 0.17507  0.50756  0.22713  Biso   1.000  O
  N33      1.0000 0.99723  0.51725  0.26600  Biso   1.000  N
  C54      1.0000 0.47161  0.08549  0.35451  Biso   1.000  C
  C55      1.0000 0.48346  0.09150  0.25410  Biso   1.000  C
  C56      1.0000 0.30253  0.99638  0.37430  Biso   1.000  C
  N34      1.0000 0.88892  0.44489  0.33820  Biso   1.000  N
  O16      1.0000 0.90340  0.34688  0.40938  Biso   1.000  O
  H55      1.0000 0.00181  0.68508  0.43612  Biso   1.000  H
  H56      1.0000 0.06777  0.72779  0.38643  Biso   1.000  H
  H57      1.0000 0.13518  0.68285  0.43412  Biso   1.000  H
  C57      1.0000 0.86777  0.63078  0.33022  Biso   1.000  C
  C58      1.0000 0.93806  0.48433  0.20841  Biso   1.000  C
  H58      1.0000 0.54086  0.09927  0.38059  Biso   1.000  H
  C59      1.0000 0.46137  0.97033  0.31502  Biso   1.000  C
  O17      1.0000 0.50212  0.12722  0.21006  Biso   1.000  O
  N35      1.0000 0.47228  0.98641  0.25494  Biso   1.000  N
  N36      1.0000 0.35187  0.92967  0.32804  Biso   1.000  N
  O18      1.0000 0.21644  0.97588  0.39926  Biso   1.000  O
  C60      1.0000 0.77860  0.39523  0.31382  Biso   1.000  C
  H59      1.0000 0.90792  0.69152  0.32011  Biso   1.000  H
  H60      1.0000 0.84349  0.65075  0.37092  Biso   1.000  H
  H61      1.0000 0.80220  0.60755  0.30339  Biso   1.000  H
  H62      1.0000 0.98666  0.50390  0.17828  Biso   1.000  H
  H63      1.0000 0.86983  0.52347  0.20953  Biso   1.000  H
  N37      1.0000 0.90574  0.37102  0.19036  Biso   1.000  N
  H64      1.0000 0.52178  0.92776  0.32532  Biso   1.000  H
  C61      1.0000 0.47665  0.90101  0.20208  Biso   1.000  C
  C62      1.0000 0.31467  0.81657  0.31012  Biso   1.000  C
  H65      1.0000 0.73939  0.36747  0.34453  Biso   1.000  H
  H66      1.0000 0.73334  0.44996  0.30393  Biso   1.000  H
  N38      1.0000 0.78410  0.31007  0.26136  Biso   1.000  N
  C63      1.0000 0.79540  0.32683  0.20159  Biso   1.000  C
  C64      1.0000 0.95724  0.30453  0.14499  Biso   1.000  C
  H67      1.0000 0.52269  0.84667  0.21162  Biso   1.000  H
  H68      1.0000 0.51487  0.92923  0.17120  Biso   1.000  H
  N39      1.0000 0.36734  0.85101  0.17819  Biso   1.000  N
  H69      1.0000 0.38103  0.77483  0.30910  Biso   1.000  H
  H70      1.0000 0.26468  0.79884  0.34021  Biso   1.000  H
  N40      1.0000 0.25552  0.78522  0.25240  Biso   1.000  N
  C65      1.0000 0.76921  0.20386  0.26212  Biso   1.000  C
  H71      1.0000 0.73433  0.36847  0.19112  Biso   1.000  H
  C66      1.0000 0.78860  0.21274  0.16152  Biso   1.000  C
  O19      1.0000 0.04401  0.32606  0.12065  Biso   1.000  O
  N41      1.0000 0.89409  0.20895  0.13086  Biso   1.000  N
  C67      1.0000 0.30855  0.75982  0.19468  Biso   1.000  C
  C68      1.0000 0.31733  0.87651  0.12970  Biso   1.000  C
  C69      1.0000 0.13950  0.77942  0.24853  Biso   1.000  C
  N42      1.0000 0.78073  0.14580  0.20400  Biso   1.000  N
  O20      1.0000 0.74713  0.16817  0.30513  Biso   1.000  O
  H72      1.0000 0.72223  0.19919  0.13340  Biso   1.000  H
  C70      1.0000 0.91214  0.12722  0.07809  Biso   1.000  C
  C71      1.0000 0.20064  0.73408  0.14909  Biso   1.000  C
  C72      1.0000 0.38548  0.66932  0.19009  Biso   1.000  C
  N43      1.0000 0.21693  0.81622  0.11521  Biso   1.000  N
  O21      1.0000 0.35607  0.94349  0.10416  Biso   1.000  O
  N44      1.0000 0.10605  0.75054  0.18951  Biso   1.000  N
  O22      1.0000 0.07607  0.79283  0.29073  Biso   1.000  O
  C73      1.0000 0.74369  0.03361  0.18639  Biso   1.000  C
  H73      1.0000 0.96865  0.15497  0.05420  Biso   1.000  H
  H74      1.0000 0.84120  0.10999  0.05411  Biso   1.000  H
  N45      1.0000 0.94994  0.02993  0.09128  Biso   1.000  N
  C74      1.0000 0.19061  0.62378  0.10808  Biso   1.000  C
  H75      1.0000 0.34418  0.60911  0.20021  Biso   1.000  H
  H76      1.0000 0.45022  0.69255  0.21750  Biso   1.000  H
  H77      1.0000 0.41129  0.64832  0.14971  Biso   1.000  H
  C75      1.0000 0.14802  0.82524  0.06449  Biso   1.000  C
  C76      1.0000 0.98743  0.73946  0.17191  Biso   1.000  C
  N46      1.0000 0.83477  0.96762  0.16420  Biso   1.000  N
  H78      1.0000 0.71185  0.01123  0.22071  Biso   1.000  H
  H79      1.0000 0.68375  0.02299  0.15528  Biso   1.000  H
  C77      1.0000 0.05291  0.99242  0.07318  Biso   1.000  C
  C78      1.0000 0.87029  0.94791  0.10380  Biso   1.000  C
  H80      1.0000 0.17703  0.57110  0.13139  Biso   1.000  H
  H81      1.0000 0.26021  0.61108  0.08700  Biso   1.000  H
  H82      1.0000 0.12803  0.61863  0.07951  Biso   1.000  H
  H83      1.0000 0.19586  0.85603  0.03771  Biso   1.000  H
  H84      1.0000 0.11996  0.75361  0.04270  Biso   1.000  H
  N47      1.0000 0.05270  0.88908  0.07934  Biso   1.000  N
  H85      1.0000 0.94349  0.72242  0.20440  Biso   1.000  H
  H86      1.0000 0.97464  0.67944  0.13719  Biso   1.000  H
  N48      1.0000 0.94544  0.83311  0.15724  Biso   1.000  N
  C79      1.0000 0.87247  0.89466  0.19339  Biso   1.000  C
  O23      1.0000 0.12779  0.04029  0.05264  Biso   1.000  O
  C80      1.0000 0.94453  0.85114  0.09792  Biso   1.000  C
  H87      1.0000 0.80499  0.93183  0.07501  Biso   1.000  H
  O24      1.0000 0.84647  0.88630  0.24385  Biso   1.000  O
  H88      1.0000 0.91096  0.78810  0.06819  Biso   1.000  H
  Ne1      1.0000 0.12799  0.14887  0.25830  Biso   1.000  Ne
  He1      1.0000 0.96691  0.06569  0.36389  Biso   1.000  He
  He2      1.0000 0.27731  0.22151  0.15678  Biso   1.000  He
  Ar1      1.0000 0.12882  0.14811  0.25885  Biso   1.000  Ar
  Ne2      1.0000 0.87206  0.85130  0.74172  Biso   1.000  Ne
  He3      1.0000 0.71478  0.77393  0.84856  Biso   1.000  He
  He4      1.0000 0.02520  0.92968  0.64161  Biso   1.000  He
  Ar2      1.0000 0.87124  0.85205  0.74118  Biso   1.000  Ar
