data_image0
_cell_length_a       17.941
_cell_length_b       18.774
_cell_length_c       22.528
_cell_angle_alpha    90
_cell_angle_beta     102.58
_cell_angle_gamma    90

_symmetry_space_group_name_H-M    "P 1"
_symmetry_int_tables_number       1

loop_
  _symmetry_equiv_pos_as_xyz
  'x, y, z'

loop_
  _atom_site_label
  _atom_site_occupancy
  _atom_site_fract_x
  _atom_site_fract_y
  _atom_site_fract_z
  _atom_site_thermal_displace_type
  _atom_site_B_iso_or_equiv
  _atom_site_type_symbol
  C1       1.0000 0.69528  0.37813  0.44694  Biso   1.000  C
  C2       1.0000 0.64410  0.34734  0.47810  Biso   1.000  C
  H1       1.0000 0.70397  0.42809  0.44999  Biso   1.000  H
  C3       1.0000 0.73346  0.33845  0.41210  Biso   1.000  C
  C4       1.0000 0.63407  0.27378  0.47482  Biso   1.000  C
  C5       1.0000 0.59700  0.39730  0.50843  Biso   1.000  C
  C6       1.0000 0.72313  0.26462  0.40797  Biso   1.000  C
  O1       1.0000 0.78264  0.37158  0.38036  Biso   1.000  O
  C7       1.0000 0.58030  0.23490  0.50752  Biso   1.000  C
  C8       1.0000 0.67459  0.23341  0.44017  Biso   1.000  C
  C9       1.0000 0.52768  0.42484  0.46245  Biso   1.000  C
  H2       1.0000 0.57979  0.37179  0.54150  Biso   1.000  H
  H3       1.0000 0.62896  0.43800  0.52667  Biso   1.000  H
  O2       1.0000 0.76317  0.22984  0.37153  Biso   1.000  O
  C10      1.0000 0.74589  0.40567  0.32692  Biso   1.000  C
  C11      1.0000 0.50439  0.21780  0.46473  Biso   1.000  C
  H4       1.0000 0.57097  0.26489  0.54127  Biso   1.000  H
  H5       1.0000 0.60471  0.19010  0.52522  Biso   1.000  H
  H6       1.0000 0.66847  0.18313  0.43880  Biso   1.000  H
  C12      1.0000 0.45460  0.39549  0.45590  Biso   1.000  C
  C13      1.0000 0.53990  0.47960  0.42379  Biso   1.000  C
  C14      1.0000 0.74757  0.15559  0.36098  Biso   1.000  C
  C15      1.0000 0.67926  0.37989  0.29094  Biso   1.000  C
  C16      1.0000 0.78020  0.46591  0.31009  Biso   1.000  C
  C17      1.0000 0.50067  0.15601  0.42952  Biso   1.000  C
  C18      1.0000 0.44040  0.26201  0.45536  Biso   1.000  C
  C19      1.0000 0.43656  0.33062  0.49083  Biso   1.000  C
  C20      1.0000 0.39509  0.42649  0.41256  Biso   1.000  C
  C21      1.0000 0.48130  0.50629  0.37827  Biso   1.000  C
  H7       1.0000 0.58968  0.49920  0.42870  Biso   1.000  H
  H8       1.0000 0.78206  0.13609  0.33688  Biso   1.000  H
  H9       1.0000 0.75546  0.13061  0.40001  Biso   1.000  H
  H10      1.0000 0.69460  0.14941  0.33888  Biso   1.000  H
  C22      1.0000 0.64636  0.41419  0.23668  Biso   1.000  C
  H11      1.0000 0.65577  0.33871  0.30309  Biso   1.000  H
  C23      1.0000 0.74798  0.50000  0.25588  Biso   1.000  C
  H12      1.0000 0.82568  0.48381  0.33538  Biso   1.000  H
  C24      1.0000 0.43816  0.13902  0.38541  Biso   1.000  C
  H13      1.0000 0.54329  0.12469  0.43657  Biso   1.000  H
  C25      1.0000 0.37581  0.24379  0.41015  Biso   1.000  C
  H14      1.0000 0.47349  0.32790  0.53049  Biso   1.000  H
  H15      1.0000 0.38478  0.33578  0.49897  Biso   1.000  H
  H16      1.0000 0.34436  0.40972  0.40928  Biso   1.000  H
  C26      1.0000 0.40782  0.48008  0.37495  Biso   1.000  C
  O3       1.0000 0.49069  0.55721  0.33697  Biso   1.000  O
  C27      1.0000 0.68149  0.47358  0.21963  Biso   1.000  C
  H17      1.0000 0.60037  0.39677  0.21181  Biso   1.000  H
  H18      1.0000 0.77148  0.54128  0.24378  Biso   1.000  H
  C28      1.0000 0.37406  0.18350  0.37440  Biso   1.000  C
  O4       1.0000 0.43746  0.07649  0.35207  Biso   1.000  O
  H19      1.0000 0.33211  0.27368  0.40401  Biso   1.000  H
  O5       1.0000 0.34727  0.51145  0.33392  Biso   1.000  O
  C29      1.0000 0.56697  0.57377  0.33301  Biso   1.000  C
  O6       1.0000 0.65268  0.51145  0.16605  Biso   1.000  O
  O7       1.0000 0.31490  0.16251  0.32865  Biso   1.000  O
  C30      1.0000 0.46886  0.08139  0.30058  Biso   1.000  C
  C31      1.0000 0.31846  0.47358  0.28035  Biso   1.000  C
  H20      1.0000 0.56609  0.60419  0.29740  Biso   1.000  H
  H21      1.0000 0.59277  0.59902  0.36990  Biso   1.000  H
  H22      1.0000 0.59457  0.52972  0.32878  Biso   1.000  H
  C32      1.0000 0.59220  0.48008  0.12507  Biso   1.000  C
  C33      1.0000 0.25097  0.20859  0.31441  Biso   1.000  C
  C34      1.0000 0.48447  0.14472  0.27571  Biso   1.000  C
  C35      1.0000 0.48451  0.01838  0.27525  Biso   1.000  C
  C36      1.0000 0.35361  0.41419  0.26334  Biso   1.000  C
  C37      1.0000 0.25198  0.50000  0.24410  Biso   1.000  C
  C38      1.0000 0.60488  0.42649  0.08746  Biso   1.000  C
  C39      1.0000 0.51871  0.50629  0.12171  Biso   1.000  C
  H23      1.0000 0.21468  0.19048  0.27871  Biso   1.000  H
  H24      1.0000 0.22620  0.21098  0.34898  Biso   1.000  H
  H25      1.0000 0.26798  0.25642  0.30568  Biso   1.000  H
  C40      1.0000 0.51550  0.14472  0.22431  Biso   1.000  C
  H26      1.0000 0.47417  0.18851  0.29349  Biso   1.000  H
  C41      1.0000 0.51552  0.01838  0.22477  Biso   1.000  C
  H27      1.0000 0.47368  0.97449  0.29272  Biso   1.000  H
  C42      1.0000 0.32070  0.37989  0.20903  Biso   1.000  C
  H28      1.0000 0.39960  0.39677  0.28821  Biso   1.000  H
  C43      1.0000 0.21981  0.46591  0.18988  Biso   1.000  C
  H29      1.0000 0.22847  0.54128  0.25619  Biso   1.000  H
  C44      1.0000 0.54541  0.39549  0.04407  Biso   1.000  C
  H30      1.0000 0.65559  0.40972  0.09069  Biso   1.000  H
  C45      1.0000 0.46006  0.47960  0.07623  Biso   1.000  C
  O8       1.0000 0.50927  0.55721  0.16300  Biso   1.000  O
  C46      1.0000 0.53109  0.08139  0.19939  Biso   1.000  C
  H31      1.0000 0.52579  0.18851  0.20648  Biso   1.000  H
  H32      1.0000 0.52629  0.97449  0.20730  Biso   1.000  H
  C47      1.0000 0.25407  0.40567  0.17310  Biso   1.000  C
  H33      1.0000 0.34419  0.33871  0.19689  Biso   1.000  H
  H34      1.0000 0.17427  0.48381  0.16460  Biso   1.000  H
  C48      1.0000 0.56339  0.33062  0.00914  Biso   1.000  C
  C49      1.0000 0.47229  0.42484  0.03757  Biso   1.000  C
  H35      1.0000 0.41028  0.49920  0.07131  Biso   1.000  H
  C50      1.0000 0.43300  0.57377  0.16701  Biso   1.000  C
  O9       1.0000 0.56249  0.07649  0.14790  Biso   1.000  O
  O10      1.0000 0.21732  0.37158  0.11962  Biso   1.000  O
  C51      1.0000 0.55956  0.26201  0.04466  Biso   1.000  C
  H36      1.0000 0.61518  0.33578  0.00100  Biso   1.000  H
  H37      1.0000 0.52646  0.32790  0.96948  Biso   1.000  H
  C52      1.0000 0.40297  0.39730  0.99159  Biso   1.000  C
  H38      1.0000 0.43388  0.60419  0.20262  Biso   1.000  H
  H39      1.0000 0.40718  0.59902  0.13008  Biso   1.000  H
  H40      1.0000 0.40538  0.52972  0.17119  Biso   1.000  H
  C53      1.0000 0.56179  0.13902  0.11457  Biso   1.000  C
  C54      1.0000 0.26651  0.33845  0.08791  Biso   1.000  C
  C55      1.0000 0.49558  0.21780  0.03529  Biso   1.000  C
  C56      1.0000 0.62421  0.24379  0.08987  Biso   1.000  C
  C57      1.0000 0.35591  0.34734  0.02188  Biso   1.000  C
  H41      1.0000 0.42018  0.37179  0.95852  Biso   1.000  H
  H42      1.0000 0.37099  0.43800  0.97330  Biso   1.000  H
  C58      1.0000 0.49929  0.15601  0.07045  Biso   1.000  C
  C59      1.0000 0.62589  0.18350  0.12557  Biso   1.000  C
  C60      1.0000 0.30469  0.37813  0.05308  Biso   1.000  C
  C61      1.0000 0.27683  0.26462  0.09205  Biso   1.000  C
  C62      1.0000 0.41971  0.23490  0.99245  Biso   1.000  C
  H43      1.0000 0.66786  0.27368  0.09601  Biso   1.000  H
  C63      1.0000 0.36596  0.27378  0.02520  Biso   1.000  C
  H44      1.0000 0.45667  0.12469  0.06340  Biso   1.000  H
  O11      1.0000 0.68507  0.16251  0.17137  Biso   1.000  O
  H45      1.0000 0.29598  0.42809  0.04998  Biso   1.000  H
  C64      1.0000 0.32537  0.23341  0.05981  Biso   1.000  C
  O12      1.0000 0.23679  0.22984  0.12844  Biso   1.000  O
  H46      1.0000 0.42898  0.26489  0.95870  Biso   1.000  H
  H47      1.0000 0.39532  0.19010  0.97480  Biso   1.000  H
  C65      1.0000 0.74899  0.20859  0.18561  Biso   1.000  C
  H48      1.0000 0.33150  0.18313  0.06122  Biso   1.000  H
  C66      1.0000 0.25238  0.15559  0.13899  Biso   1.000  C
  H49      1.0000 0.78529  0.19048  0.22131  Biso   1.000  H
  H50      1.0000 0.77375  0.21098  0.15100  Biso   1.000  H
  H51      1.0000 0.73197  0.25642  0.19430  Biso   1.000  H
  H52      1.0000 0.21789  0.13609  0.16310  Biso   1.000  H
  H53      1.0000 0.24451  0.13061  0.10001  Biso   1.000  H
  H54      1.0000 0.30541  0.14941  0.16109  Biso   1.000  H
  C67      1.0000 0.60489  0.57351  0.58743  Biso   1.000  C
  C68      1.0000 0.54537  0.60451  0.54404  Biso   1.000  C
  H55      1.0000 0.65556  0.59028  0.59071  Biso   1.000  H
  C69      1.0000 0.59216  0.51992  0.62505  Biso   1.000  C
  C70      1.0000 0.47230  0.57516  0.53754  Biso   1.000  C
  C71      1.0000 0.56336  0.66938  0.50916  Biso   1.000  C
  C72      1.0000 0.51867  0.49371  0.62168  Biso   1.000  C
  O13      1.0000 0.65270  0.48855  0.66607  Biso   1.000  O
  C73      1.0000 0.40298  0.60270  0.49156  Biso   1.000  C
  C74      1.0000 0.46008  0.52040  0.57620  Biso   1.000  C
  C75      1.0000 0.55958  0.73799  0.54464  Biso   1.000  C
  H56      1.0000 0.52649  0.67210  0.46950  Biso   1.000  H
  H57      1.0000 0.61519  0.66422  0.50097  Biso   1.000  H
  O14      1.0000 0.50924  0.44279  0.66302  Biso   1.000  O
  C76      1.0000 0.68146  0.52642  0.71965  Biso   1.000  C
  C77      1.0000 0.35588  0.65266  0.52190  Biso   1.000  C
  H58      1.0000 0.42019  0.62821  0.45849  Biso   1.000  H
  H59      1.0000 0.37101  0.56200  0.47328  Biso   1.000  H
  H60      1.0000 0.41030  0.50080  0.57129  Biso   1.000  H
  C78      1.0000 0.49559  0.78220  0.53527  Biso   1.000  C
  C79      1.0000 0.62417  0.75621  0.58984  Biso   1.000  C
  C80      1.0000 0.43301  0.42617  0.66698  Biso   1.000  C
  C81      1.0000 0.64637  0.58581  0.73666  Biso   1.000  C
  C82      1.0000 0.74800  0.50000  0.75590  Biso   1.000  C
  C83      1.0000 0.30470  0.62187  0.55305  Biso   1.000  C
  C84      1.0000 0.36591  0.72622  0.52517  Biso   1.000  C
  C85      1.0000 0.41967  0.76510  0.49247  Biso   1.000  C
  C86      1.0000 0.49931  0.84393  0.57047  Biso   1.000  C
  C87      1.0000 0.62586  0.81650  0.62559  Biso   1.000  C
  H61      1.0000 0.66787  0.72627  0.59598  Biso   1.000  H
  H62      1.0000 0.43389  0.39581  0.70259  Biso   1.000  H
  H63      1.0000 0.40720  0.40098  0.63009  Biso   1.000  H
  H64      1.0000 0.40541  0.47028  0.67121  Biso   1.000  H
  C88      1.0000 0.67928  0.62011  0.79096  Biso   1.000  C
  H65      1.0000 0.60038  0.60317  0.71178  Biso   1.000  H
  C89      1.0000 0.78016  0.53409  0.81011  Biso   1.000  C
  H66      1.0000 0.77150  0.45872  0.74380  Biso   1.000  H
  H67      1.0000 0.29601  0.57191  0.55000  Biso   1.000  H
  C90      1.0000 0.26652  0.66150  0.58789  Biso   1.000  C
  C91      1.0000 0.32539  0.76659  0.55983  Biso   1.000  C
  H68      1.0000 0.42899  0.73511  0.45868  Biso   1.000  H
  H69      1.0000 0.39527  0.80990  0.47478  Biso   1.000  H
  H70      1.0000 0.45668  0.87531  0.56337  Biso   1.000  H
  C92      1.0000 0.56180  0.86098  0.61454  Biso   1.000  C
  O15      1.0000 0.68508  0.83749  0.67135  Biso   1.000  O
  C93      1.0000 0.74590  0.59433  0.82689  Biso   1.000  C
  H71      1.0000 0.65579  0.66129  0.80310  Biso   1.000  H
  H72      1.0000 0.82571  0.51619  0.83540  Biso   1.000  H
  O16      1.0000 0.21734  0.62842  0.61963  Biso   1.000  O
  C94      1.0000 0.27684  0.73538  0.59203  Biso   1.000  C
  H73      1.0000 0.33151  0.81687  0.56119  Biso   1.000  H
  O17      1.0000 0.56246  0.92351  0.64792  Biso   1.000  O
  C95      1.0000 0.74895  0.79141  0.68558  Biso   1.000  C
  O18      1.0000 0.78266  0.62842  0.88038  Biso   1.000  O
  C96      1.0000 0.25409  0.59433  0.67307  Biso   1.000  C
  O19      1.0000 0.23681  0.77016  0.62846  Biso   1.000  O
  C97      1.0000 0.53112  0.91861  0.69941  Biso   1.000  C
  H74      1.0000 0.78530  0.80947  0.72128  Biso   1.000  H
  H75      1.0000 0.77376  0.78902  0.65097  Biso   1.000  H
  H76      1.0000 0.73198  0.74358  0.69427  Biso   1.000  H
  C98      1.0000 0.73347  0.66150  0.91208  Biso   1.000  C
  C99      1.0000 0.32072  0.62011  0.70905  Biso   1.000  C
  C100     1.0000 0.21978  0.53409  0.68990  Biso   1.000  C
  C101     1.0000 0.25240  0.84441  0.63901  Biso   1.000  C
  C102     1.0000 0.51546  0.85528  0.72429  Biso   1.000  C
  C103     1.0000 0.51547  0.98157  0.72474  Biso   1.000  C
  C104     1.0000 0.69529  0.62187  0.94692  Biso   1.000  C
  C105     1.0000 0.72314  0.73538  0.90794  Biso   1.000  C
  C106     1.0000 0.35356  0.58581  0.76331  Biso   1.000  C
  H77      1.0000 0.34421  0.66129  0.69691  Biso   1.000  H
  C107     1.0000 0.25200  0.50000  0.74412  Biso   1.000  C
  H78      1.0000 0.17428  0.51619  0.66457  Biso   1.000  H
  H79      1.0000 0.21791  0.86391  0.66307  Biso   1.000  H
  H80      1.0000 0.24446  0.86939  0.59999  Biso   1.000  H
  H81      1.0000 0.30538  0.85059  0.66111  Biso   1.000  H
  C108     1.0000 0.48448  0.85528  0.77568  Biso   1.000  C
  H82      1.0000 0.52581  0.81149  0.70650  Biso   1.000  H
  C109     1.0000 0.48446  0.98157  0.77522  Biso   1.000  C
  H83      1.0000 0.52630  0.02551  0.70728  Biso   1.000  H
  C110     1.0000 0.64407  0.65266  0.97812  Biso   1.000  C
  H84      1.0000 0.70399  0.57191  0.95001  Biso   1.000  H
  O20      1.0000 0.76318  0.77016  0.87151  Biso   1.000  O
  C111     1.0000 0.67460  0.76659  0.94014  Biso   1.000  C
  C112     1.0000 0.31849  0.52642  0.78036  Biso   1.000  C
  H85      1.0000 0.39961  0.60317  0.78819  Biso   1.000  H
  H86      1.0000 0.22849  0.45872  0.75617  Biso   1.000  H
  C113     1.0000 0.46889  0.91861  0.80060  Biso   1.000  C
  H87      1.0000 0.47419  0.81149  0.79351  Biso   1.000  H
  H88      1.0000 0.47369  0.02551  0.79269  Biso   1.000  H
  C114     1.0000 0.59701  0.60270  0.00841  Biso   1.000  C
  C115     1.0000 0.63402  0.72622  0.97480  Biso   1.000  C
  C116     1.0000 0.74760  0.84441  0.86100  Biso   1.000  C
  H89      1.0000 0.66848  0.81687  0.93877  Biso   1.000  H
  O21      1.0000 0.34730  0.48855  0.83394  Biso   1.000  O
  O22      1.0000 0.43748  0.92351  0.85209  Biso   1.000  O
  C117     1.0000 0.52769  0.57516  0.96243  Biso   1.000  C
  H90      1.0000 0.57980  0.62821  0.04147  Biso   1.000  H
  H91      1.0000 0.62898  0.56200  0.02669  Biso   1.000  H
  C118     1.0000 0.58027  0.76510  0.00754  Biso   1.000  C
  H92      1.0000 0.78208  0.86391  0.83690  Biso   1.000  H
  H93      1.0000 0.75547  0.86939  0.89998  Biso   1.000  H
  H94      1.0000 0.69456  0.85059  0.83890  Biso   1.000  H
  C119     1.0000 0.40778  0.51992  0.87492  Biso   1.000  C
  C120     1.0000 0.43819  0.86098  0.88543  Biso   1.000  C
  C121     1.0000 0.45457  0.60451  0.95592  Biso   1.000  C
  C122     1.0000 0.53986  0.52040  0.92377  Biso   1.000  C
  C123     1.0000 0.50440  0.78220  0.96470  Biso   1.000  C
  H95      1.0000 0.57100  0.73511  0.04129  Biso   1.000  H
  H96      1.0000 0.60466  0.80990  0.02519  Biso   1.000  H
  C124     1.0000 0.39510  0.57351  0.91253  Biso   1.000  C
  C125     1.0000 0.48127  0.49371  0.87829  Biso   1.000  C
  C126     1.0000 0.50069  0.84393  0.92954  Biso   1.000  C
  C127     1.0000 0.37409  0.81650  0.87442  Biso   1.000  C
  C128     1.0000 0.43658  0.66938  0.99085  Biso   1.000  C
  H97      1.0000 0.58969  0.50080  0.92868  Biso   1.000  H
  C129     1.0000 0.44041  0.73799  0.95533  Biso   1.000  C
  H98      1.0000 0.34439  0.59028  0.90930  Biso   1.000  H
  O23      1.0000 0.49071  0.44279  0.83699  Biso   1.000  O
  H99      1.0000 0.54331  0.87531  0.93659  Biso   1.000  H
  C130     1.0000 0.37577  0.75621  0.91012  Biso   1.000  C
  O24      1.0000 0.31491  0.83749  0.82862  Biso   1.000  O
  H100     1.0000 0.38480  0.66422  0.99899  Biso   1.000  H
  H101     1.0000 0.47350  0.67210  0.03046  Biso   1.000  H
  C131     1.0000 0.56698  0.42617  0.83299  Biso   1.000  C
  H102     1.0000 0.33206  0.72627  0.90398  Biso   1.000  H
  C132     1.0000 0.25098  0.79141  0.81438  Biso   1.000  C
  H103     1.0000 0.56610  0.39581  0.79737  Biso   1.000  H
  H104     1.0000 0.59279  0.40098  0.86987  Biso   1.000  H
  H105     1.0000 0.59460  0.47028  0.82880  Biso   1.000  H
  H106     1.0000 0.21469  0.80947  0.77868  Biso   1.000  H
  H107     1.0000 0.22617  0.78902  0.84900  Biso   1.000  H
  H108     1.0000 0.26801  0.74358  0.80570  Biso   1.000  H
  C133     1.0000 0.75243  0.34441  0.63901  Biso   1.000  C
  O25      1.0000 0.73678  0.27016  0.62846  Biso   1.000  O
  H109     1.0000 0.71788  0.36391  0.66307  Biso   1.000  H
  H110     1.0000 0.74449  0.36939  0.59999  Biso   1.000  H
  H111     1.0000 0.80541  0.35059  0.66111  Biso   1.000  H
  C134     1.0000 0.77682  0.23538  0.59203  Biso   1.000  C
  C135     1.0000 0.75238  0.34441  0.63901  Biso   1.000  C
  C136     1.0000 0.76649  0.16155  0.58789  Biso   1.000  C
  C137     1.0000 0.82537  0.26659  0.55983  Biso   1.000  C
  C138     1.0000 0.80467  0.12187  0.55305  Biso   1.000  C
  O26      1.0000 0.71731  0.12842  0.61963  Biso   1.000  O
  C139     1.0000 0.86594  0.22622  0.52517  Biso   1.000  C
  H112     1.0000 0.83148  0.31687  0.56119  Biso   1.000  H
  C140     1.0000 0.85590  0.15266  0.52190  Biso   1.000  C
  H113     1.0000 0.79598  0.07191  0.55000  Biso   1.000  H
  C141     1.0000 0.75406  0.09433  0.67307  Biso   1.000  C
  C142     1.0000 0.91970  0.26510  0.49247  Biso   1.000  C
  C143     1.0000 0.90295  0.10270  0.49156  Biso   1.000  C
  C144     1.0000 0.82069  0.12011  0.70905  Biso   1.000  C
  C145     1.0000 0.71981  0.03409  0.68990  Biso   1.000  C
  H114     1.0000 0.89524  0.30990  0.47478  Biso   1.000  H
  C146     1.0000 0.99562  0.28220  0.53527  Biso   1.000  C
  H115     1.0000 0.92897  0.23511  0.45868  Biso   1.000  H
  C147     1.0000 0.99556  0.28220  0.53527  Biso   1.000  C
  C148     1.0000 0.97227  0.07516  0.53754  Biso   1.000  C
  H116     1.0000 0.92016  0.12821  0.45849  Biso   1.000  H
  H117     1.0000 0.87098  0.06200  0.47328  Biso   1.000  H
  C149     1.0000 0.85359  0.08581  0.76331  Biso   1.000  C
  H118     1.0000 0.84418  0.16129  0.69691  Biso   1.000  H
  C150     1.0000 0.75197  0.00000  0.74412  Biso   1.000  C
  H119     1.0000 0.67426  0.01619  0.66457  Biso   1.000  H
  C151     1.0000 0.99928  0.34393  0.57047  Biso   1.000  C
  C152     1.0000 0.05960  0.23799  0.54464  Biso   1.000  C
  C153     1.0000 0.05955  0.23799  0.54464  Biso   1.000  C
  C154     1.0000 0.96005  0.02040  0.57620  Biso   1.000  C
  C155     1.0000 0.04540  0.10451  0.54404  Biso   1.000  C
  H120     1.0000 0.89958  0.10317  0.78819  Biso   1.000  H
  C156     1.0000 0.81846  0.02642  0.78036  Biso   1.000  C
  H121     1.0000 0.72846  0.95872  0.75617  Biso   1.000  H
  H122     1.0000 0.95665  0.37531  0.56337  Biso   1.000  H
  C157     1.0000 0.06178  0.36098  0.61454  Biso   1.000  C
  C158     1.0000 0.06339  0.16938  0.50916  Biso   1.000  C
  C159     1.0000 0.12419  0.25621  0.58984  Biso   1.000  C
  H123     1.0000 0.91027  0.00080  0.57129  Biso   1.000  H
  C160     1.0000 0.01875  0.99371  0.62168  Biso   1.000  C
  C161     1.0000 0.10492  0.07351  0.58743  Biso   1.000  C
  O27      1.0000 0.84727  0.98855  0.83394  Biso   1.000  O
  O28      1.0000 0.06249  0.42351  0.64792  Biso   1.000  O
  C162     1.0000 0.12589  0.31650  0.62559  Biso   1.000  C
  H124     1.0000 0.02651  0.17210  0.46950  Biso   1.000  H
  H125     1.0000 0.11522  0.16422  0.50097  Biso   1.000  H
  H126     1.0000 0.02646  0.17210  0.46950  Biso   1.000  H
  H127     1.0000 0.16790  0.22632  0.59598  Biso   1.000  H
  H128     1.0000 0.16784  0.22632  0.59598  Biso   1.000  H
  O29      1.0000 0.00927  0.94279  0.66302  Biso   1.000  O
  C163     1.0000 0.09218  0.01992  0.62505  Biso   1.000  C
  H129     1.0000 0.15559  0.09028  0.59071  Biso   1.000  H
  H130     1.0000 0.15564  0.09028  0.59071  Biso   1.000  H
  C164     1.0000 0.90775  0.01992  0.87492  Biso   1.000  C
  C165     1.0000 0.03114  0.41861  0.69941  Biso   1.000  C
  O30      1.0000 0.18505  0.33749  0.67135  Biso   1.000  O
  C166     1.0000 0.93298  0.92617  0.66698  Biso   1.000  C
  O31      1.0000 0.15268  0.98855  0.66607  Biso   1.000  O
  C167     1.0000 0.89507  0.07351  0.91253  Biso   1.000  C
  C168     1.0000 0.98130  0.99371  0.87829  Biso   1.000  C
  C169     1.0000 0.01549  0.35528  0.72429  Biso   1.000  C
  C170     1.0000 0.01555  0.48162  0.72474  Biso   1.000  C
  C171     1.0000 0.24898  0.29141  0.68558  Biso   1.000  C
  C172     1.0000 0.24903  0.29141  0.68558  Biso   1.000  C
  H131     1.0000 0.90718  0.90098  0.63009  Biso   1.000  H
  H132     1.0000 0.90543  0.97028  0.67121  Biso   1.000  H
  H133     1.0000 0.93386  0.89581  0.70259  Biso   1.000  H
  H134     1.0000 0.90538  0.97028  0.67121  Biso   1.000  H
  C173     1.0000 0.18149  0.02642  0.71965  Biso   1.000  C
  C174     1.0000 0.95459  0.10451  0.95592  Biso   1.000  C
  H135     1.0000 0.84441  0.09028  0.90930  Biso   1.000  H
  H136     1.0000 0.84436  0.09028  0.90930  Biso   1.000  H
  O32      1.0000 0.99068  0.94279  0.83699  Biso   1.000  O
  C175     1.0000 0.03989  0.02040  0.92377  Biso   1.000  C
  C176     1.0000 0.98445  0.35528  0.77568  Biso   1.000  C
  H137     1.0000 0.02578  0.31149  0.70650  Biso   1.000  H
  C177     1.0000 0.98449  0.48162  0.77522  Biso   1.000  C
  H138     1.0000 0.02627  0.52551  0.70728  Biso   1.000  H
  H139     1.0000 0.28527  0.30952  0.72128  Biso   1.000  H
  H140     1.0000 0.23201  0.24358  0.69427  Biso   1.000  H
  H141     1.0000 0.27374  0.28902  0.65097  Biso   1.000  H
  C178     1.0000 0.14640  0.08581  0.73666  Biso   1.000  C
  C179     1.0000 0.24803  0.00000  0.75590  Biso   1.000  C
  C180     1.0000 0.93656  0.16938  0.99085  Biso   1.000  C
  C181     1.0000 0.02766  0.07516  0.96243  Biso   1.000  C
  C182     1.0000 0.06695  0.92617  0.83299  Biso   1.000  C
  H142     1.0000 0.08972  0.00080  0.92868  Biso   1.000  H
  C183     1.0000 0.96886  0.41861  0.80060  Biso   1.000  C
  H143     1.0000 0.97422  0.31149  0.79351  Biso   1.000  H
  H144     1.0000 0.97416  0.31149  0.79351  Biso   1.000  H
  H145     1.0000 0.97366  0.52551  0.79269  Biso   1.000  H
  C184     1.0000 0.17931  0.12011  0.79096  Biso   1.000  C
  H146     1.0000 0.10041  0.10317  0.71178  Biso   1.000  H
  C185     1.0000 0.17925  0.12011  0.79096  Biso   1.000  C
  H147     1.0000 0.10035  0.10317  0.71178  Biso   1.000  H
  H148     1.0000 0.27148  0.95872  0.74380  Biso   1.000  H
  C186     1.0000 0.28019  0.03409  0.81011  Biso   1.000  C
  C187     1.0000 0.94039  0.23799  0.95533  Biso   1.000  C
  H149     1.0000 0.88483  0.16422  0.99899  Biso   1.000  H
  H150     1.0000 0.88477  0.16422  0.99899  Biso   1.000  H
  H151     1.0000 0.97342  0.17210  0.03046  Biso   1.000  H
  H152     1.0000 0.97348  0.17210  0.03046  Biso   1.000  H
  C188     1.0000 0.09698  0.10270  0.00841  Biso   1.000  C
  H153     1.0000 0.09281  0.90098  0.86987  Biso   1.000  H
  H154     1.0000 0.09462  0.97028  0.82880  Biso   1.000  H
  H155     1.0000 0.06613  0.89581  0.79737  Biso   1.000  H
  O33      1.0000 0.93746  0.42351  0.85209  Biso   1.000  O
  H156     1.0000 0.15582  0.16129  0.80310  Biso   1.000  H
  C189     1.0000 0.24593  0.09433  0.82689  Biso   1.000  C
  H157     1.0000 0.32568  0.01619  0.83540  Biso   1.000  H
  H158     1.0000 0.32573  0.01619  0.83540  Biso   1.000  H
  C190     1.0000 0.87580  0.25621  0.91012  Biso   1.000  C
  C191     1.0000 0.00437  0.28220  0.96470  Biso   1.000  C
  C192     1.0000 0.14404  0.15266  0.97812  Biso   1.000  C
  H159     1.0000 0.07977  0.12821  0.04147  Biso   1.000  H
  H160     1.0000 0.12896  0.06200  0.02669  Biso   1.000  H
  C193     1.0000 0.93816  0.36098  0.88543  Biso   1.000  C
  O34      1.0000 0.28269  0.12842  0.88038  Biso   1.000  O
  O35      1.0000 0.28263  0.12842  0.88038  Biso   1.000  O
  C194     1.0000 0.87406  0.31650  0.87442  Biso   1.000  C
  H161     1.0000 0.83209  0.22632  0.90398  Biso   1.000  H
  C195     1.0000 0.00072  0.34393  0.92954  Biso   1.000  C
  C196     1.0000 0.08030  0.26510  0.00754  Biso   1.000  C
  C197     1.0000 0.19532  0.12187  0.94692  Biso   1.000  C
  C198     1.0000 0.19526  0.12187  0.94692  Biso   1.000  C
  C199     1.0000 0.13411  0.22622  0.97480  Biso   1.000  C
  C200     1.0000 0.23345  0.16155  0.91208  Biso   1.000  C
  O36      1.0000 0.81488  0.33749  0.82862  Biso   1.000  O
  H162     1.0000 0.04328  0.37531  0.93659  Biso   1.000  H
  H163     1.0000 0.10469  0.30990  0.02519  Biso   1.000  H
  H164     1.0000 0.07097  0.23511  0.04129  Biso   1.000  H
  H165     1.0000 0.20402  0.07191  0.95001  Biso   1.000  H
  H166     1.0000 0.20397  0.07191  0.95001  Biso   1.000  H
  C201     1.0000 0.17462  0.26659  0.94014  Biso   1.000  C
  C202     1.0000 0.22317  0.23538  0.90794  Biso   1.000  C
  C203     1.0000 0.75096  0.29141  0.81438  Biso   1.000  C
  H167     1.0000 0.16851  0.31687  0.93877  Biso   1.000  H
  O37      1.0000 0.26315  0.27016  0.87151  Biso   1.000  O
  H168     1.0000 0.72620  0.28902  0.84900  Biso   1.000  H
  H169     1.0000 0.71472  0.30952  0.77868  Biso   1.000  H
  H170     1.0000 0.76803  0.24358  0.80570  Biso   1.000  H
  H171     1.0000 0.71466  0.30952  0.77868  Biso   1.000  H
  H172     1.0000 0.76798  0.24358  0.80570  Biso   1.000  H
  C204     1.0000 0.24763  0.34441  0.86100  Biso   1.000  C
  H173     1.0000 0.28211  0.36391  0.83690  Biso   1.000  H
  H174     1.0000 0.25550  0.36939  0.89998  Biso   1.000  H
  H175     1.0000 0.19459  0.35059  0.83890  Biso   1.000  H
  H176     1.0000 0.28206  0.36391  0.83690  Biso   1.000  H
  H177     1.0000 0.25544  0.36939  0.89998  Biso   1.000  H
  H178     1.0000 0.19465  0.35059  0.83890  Biso   1.000  H
  C205     1.0000 0.93819  0.63902  0.38541  Biso   1.000  C
  C206     1.0000 0.87409  0.68350  0.37440  Biso   1.000  C
  O38      1.0000 0.93743  0.57649  0.35207  Biso   1.000  O
  O39      1.0000 0.93749  0.57649  0.35207  Biso   1.000  O
  C207     1.0000 0.00064  0.65601  0.42952  Biso   1.000  C
  O40      1.0000 0.81487  0.66251  0.32865  Biso   1.000  O
  C208     1.0000 0.87578  0.74379  0.41015  Biso   1.000  C
  C209     1.0000 0.96889  0.58139  0.30058  Biso   1.000  C
  C210     1.0000 0.00442  0.71780  0.46473  Biso   1.000  C
  H179     1.0000 0.04331  0.62469  0.43657  Biso   1.000  H
  H180     1.0000 0.04326  0.62469  0.43657  Biso   1.000  H
  C211     1.0000 0.75100  0.70859  0.31441  Biso   1.000  C
  H181     1.0000 0.83208  0.77368  0.40401  Biso   1.000  H
  C212     1.0000 0.94038  0.76201  0.45536  Biso   1.000  C
  C213     1.0000 0.98449  0.64472  0.27571  Biso   1.000  C
  C214     1.0000 0.98442  0.51838  0.27525  Biso   1.000  C
  C215     1.0000 0.98448  0.51838  0.27525  Biso   1.000  C
  C216     1.0000 0.08028  0.73490  0.50752  Biso   1.000  C
  H182     1.0000 0.71471  0.69048  0.27871  Biso   1.000  H
  H183     1.0000 0.72618  0.71098  0.34898  Biso   1.000  H
  H184     1.0000 0.76795  0.75642  0.30568  Biso   1.000  H
  C217     1.0000 0.93659  0.83062  0.49083  Biso   1.000  C
  H185     1.0000 0.97420  0.68851  0.29349  Biso   1.000  H
  C218     1.0000 0.01553  0.64472  0.22431  Biso   1.000  C
  H186     1.0000 0.97365  0.47449  0.29272  Biso   1.000  H
  H187     1.0000 0.97371  0.47449  0.29272  Biso   1.000  H
  C219     1.0000 0.01549  0.51838  0.22477  Biso   1.000  C
  C220     1.0000 0.13404  0.77378  0.47482  Biso   1.000  C
  H188     1.0000 0.07100  0.76489  0.54127  Biso   1.000  H
  C221     1.0000 0.13409  0.77378  0.47482  Biso   1.000  C
  H189     1.0000 0.07095  0.76489  0.54127  Biso   1.000  H
  H190     1.0000 0.10474  0.69010  0.52522  Biso   1.000  H
  C222     1.0000 0.95457  0.89549  0.45590  Biso   1.000  C
  H191     1.0000 0.97347  0.82790  0.53049  Biso   1.000  H
  H192     1.0000 0.88475  0.83578  0.49897  Biso   1.000  H
  C223     1.0000 0.03112  0.58139  0.19939  Biso   1.000  C
  H193     1.0000 0.02581  0.68851  0.20648  Biso   1.000  H
  H194     1.0000 0.02632  0.47449  0.20730  Biso   1.000  H
  H195     1.0000 0.02626  0.47449  0.20730  Biso   1.000  H
  C224     1.0000 0.14408  0.84734  0.47810  Biso   1.000  C
  C225     1.0000 0.17461  0.73341  0.44017  Biso   1.000  C
  C226     1.0000 0.14413  0.84734  0.47810  Biso   1.000  C
  C227     1.0000 0.89506  0.92649  0.41256  Biso   1.000  C
  C228     1.0000 0.02771  0.92484  0.46245  Biso   1.000  C
  O41      1.0000 0.06247  0.57649  0.14790  Biso   1.000  O
  C229     1.0000 0.09702  0.89730  0.50843  Biso   1.000  C
  C230     1.0000 0.19531  0.87813  0.44694  Biso   1.000  C
  C231     1.0000 0.22316  0.76462  0.40797  Biso   1.000  C
  H196     1.0000 0.16850  0.68307  0.43880  Biso   1.000  H
  C232     1.0000 0.22311  0.76462  0.40797  Biso   1.000  C
  H197     1.0000 0.16844  0.68307  0.43880  Biso   1.000  H
  H198     1.0000 0.84439  0.90972  0.40928  Biso   1.000  H
  C233     1.0000 0.90779  0.98008  0.37495  Biso   1.000  C
  C234     1.0000 0.03993  0.97960  0.42379  Biso   1.000  C
  C235     1.0000 0.06182  0.63902  0.11457  Biso   1.000  C
  C236     1.0000 0.06177  0.63902  0.11457  Biso   1.000  C
  H199     1.0000 0.07981  0.87179  0.54150  Biso   1.000  H
  H200     1.0000 0.12899  0.93800  0.52667  Biso   1.000  H
  H201     1.0000 0.12904  0.93800  0.52667  Biso   1.000  H
  H202     1.0000 0.20400  0.92809  0.44999  Biso   1.000  H
  C237     1.0000 0.23349  0.83845  0.41210  Biso   1.000  C
  O42      1.0000 0.26320  0.72984  0.37153  Biso   1.000  O
  O43      1.0000 0.84725  0.01145  0.33392  Biso   1.000  O
  C238     1.0000 0.98122  0.00629  0.37827  Biso   1.000  C
  O44      1.0000 0.84730  0.01145  0.33392  Biso   1.000  O
  C239     1.0000 0.98127  0.00629  0.37827  Biso   1.000  C
  H203     1.0000 0.08971  0.99920  0.42870  Biso   1.000  H
  C240     1.0000 0.99926  0.65601  0.07045  Biso   1.000  C
  C241     1.0000 0.12587  0.68350  0.12557  Biso   1.000  C
  C242     1.0000 0.12592  0.68350  0.12557  Biso   1.000  C
  O45      1.0000 0.28266  0.87158  0.38036  Biso   1.000  O
  C243     1.0000 0.24760  0.65559  0.36098  Biso   1.000  C
  C244     1.0000 0.81849  0.97358  0.28035  Biso   1.000  C
  O46      1.0000 0.99071  0.05721  0.33697  Biso   1.000  O
  H204     1.0000 0.95670  0.62469  0.06340  Biso   1.000  H
  C245     1.0000 0.99561  0.71780  0.03529  Biso   1.000  C
  C246     1.0000 0.99555  0.71780  0.03529  Biso   1.000  C
  O47      1.0000 0.18510  0.66251  0.17137  Biso   1.000  O
  C247     1.0000 0.12424  0.74379  0.08987  Biso   1.000  C
  C248     1.0000 0.24592  0.90567  0.32692  Biso   1.000  C
  H205     1.0000 0.28209  0.63609  0.33688  Biso   1.000  H
  H206     1.0000 0.25549  0.63061  0.40001  Biso   1.000  H
  H207     1.0000 0.19457  0.64941  0.33888  Biso   1.000  H
  H208     1.0000 0.28203  0.63609  0.33688  Biso   1.000  H
  H209     1.0000 0.19462  0.64941  0.33888  Biso   1.000  H
  C249     1.0000 0.85358  0.91419  0.26334  Biso   1.000  C
  C250     1.0000 0.75195  0.00000  0.24410  Biso   1.000  C
  C251     1.0000 0.75200  0.00000  0.24410  Biso   1.000  C
  C252     1.0000 0.06700  0.07377  0.33301  Biso   1.000  C
  C253     1.0000 0.06705  0.07377  0.33301  Biso   1.000  C
  C254     1.0000 0.91968  0.73490  0.99245  Biso   1.000  C
  C255     1.0000 0.05959  0.76201  0.04466  Biso   1.000  C
  C256     1.0000 0.05965  0.76201  0.04466  Biso   1.000  C
  C257     1.0000 0.24902  0.70859  0.18561  Biso   1.000  C
  H210     1.0000 0.16789  0.77368  0.09601  Biso   1.000  H
  H211     1.0000 0.16794  0.77368  0.09601  Biso   1.000  H
  C258     1.0000 0.17929  0.87989  0.29094  Biso   1.000  C
  C259     1.0000 0.17934  0.87989  0.29094  Biso   1.000  C
  C260     1.0000 0.28022  0.96591  0.31009  Biso   1.000  C
  H212     1.0000 0.89962  0.89677  0.28821  Biso   1.000  H
  C261     1.0000 0.82067  0.87989  0.20903  Biso   1.000  C
  H213     1.0000 0.89957  0.89677  0.28821  Biso   1.000  H
  C262     1.0000 0.71979  0.96591  0.18988  Biso   1.000  C
  H214     1.0000 0.72850  0.04128  0.25619  Biso   1.000  H
  H215     1.0000 0.06612  0.10419  0.29740  Biso   1.000  H
  H216     1.0000 0.09280  0.09902  0.36990  Biso   1.000  H
  H217     1.0000 0.09460  0.02967  0.32878  Biso   1.000  H
  H218     1.0000 0.09275  0.09902  0.36990  Biso   1.000  H
  C263     1.0000 0.86593  0.77378  0.02520  Biso   1.000  C
  H219     1.0000 0.92901  0.76489  0.95870  Biso   1.000  H
  H220     1.0000 0.89529  0.69010  0.97480  Biso   1.000  H
  H221     1.0000 0.92895  0.76489  0.95870  Biso   1.000  H
  C264     1.0000 0.06337  0.83062  0.00914  Biso   1.000  C
  H222     1.0000 0.28532  0.69048  0.22131  Biso   1.000  H
  H223     1.0000 0.27378  0.71098  0.15100  Biso   1.000  H
  H224     1.0000 0.23200  0.75642  0.19430  Biso   1.000  H
  H225     1.0000 0.28526  0.69048  0.22131  Biso   1.000  H
  C265     1.0000 0.14639  0.91419  0.23668  Biso   1.000  C
  H226     1.0000 0.15580  0.83871  0.30309  Biso   1.000  H
  H227     1.0000 0.32571  0.98381  0.33538  Biso   1.000  H
  C266     1.0000 0.24801  0.00000  0.25588  Biso   1.000  C
  C267     1.0000 0.75410  0.90567  0.17310  Biso   1.000  C
  H228     1.0000 0.84416  0.83871  0.19689  Biso   1.000  H
  H229     1.0000 0.67430  0.98381  0.16460  Biso   1.000  H
  C268     1.0000 0.85588  0.84734  0.02188  Biso   1.000  C
  C269     1.0000 0.82540  0.73341  0.05981  Biso   1.000  C
  C270     1.0000 0.82534  0.73341  0.05981  Biso   1.000  C
  H230     1.0000 0.02649  0.82790  0.96948  Biso   1.000  H
  H231     1.0000 0.02655  0.82790  0.96948  Biso   1.000  H
  H232     1.0000 0.11521  0.83578  0.00100  Biso   1.000  H
  C271     1.0000 0.04544  0.89549  0.04407  Biso   1.000  C
  C272     1.0000 0.18152  0.97358  0.21963  Biso   1.000  C
  H233     1.0000 0.10040  0.89677  0.21181  Biso   1.000  H
  H234     1.0000 0.27151  0.04128  0.24378  Biso   1.000  H
  H235     1.0000 0.27145  0.04128  0.24378  Biso   1.000  H
  O48      1.0000 0.71729  0.87158  0.11962  Biso   1.000  O
  C273     1.0000 0.90300  0.89730  0.99159  Biso   1.000  C
  C274     1.0000 0.80466  0.87813  0.05308  Biso   1.000  C
  H236     1.0000 0.83147  0.68307  0.06122  Biso   1.000  H
  C275     1.0000 0.77686  0.76462  0.09205  Biso   1.000  C
  C276     1.0000 0.77681  0.76462  0.09205  Biso   1.000  C
  C277     1.0000 0.97232  0.92484  0.03757  Biso   1.000  C
  C278     1.0000 0.97226  0.92484  0.03757  Biso   1.000  C
  C279     1.0000 0.10485  0.92649  0.08746  Biso   1.000  C
  O49      1.0000 0.15271  0.01145  0.16605  Biso   1.000  O
  O50      1.0000 0.15265  0.01145  0.16605  Biso   1.000  O
  C280     1.0000 0.76653  0.83845  0.08791  Biso   1.000  C
  H237     1.0000 0.92021  0.87179  0.95852  Biso   1.000  H
  H238     1.0000 0.92015  0.87179  0.95852  Biso   1.000  H
  H239     1.0000 0.87097  0.93800  0.97330  Biso   1.000  H
  H240     1.0000 0.79596  0.92809  0.04998  Biso   1.000  H
  O51      1.0000 0.73682  0.72984  0.12844  Biso   1.000  O
  O52      1.0000 0.73676  0.72984  0.12844  Biso   1.000  O
  C281     1.0000 0.96009  0.97960  0.07623  Biso   1.000  C
  H241     1.0000 0.15562  0.90972  0.09069  Biso   1.000  H
  C282     1.0000 0.09223  0.98008  0.12507  Biso   1.000  C
  C283     1.0000 0.75235  0.65559  0.13899  Biso   1.000  C
  H242     1.0000 0.91026  0.99920  0.07131  Biso   1.000  H
  C284     1.0000 0.01868  0.00629  0.12171  Biso   1.000  C
  H243     1.0000 0.80539  0.64941  0.16109  Biso   1.000  H
  H244     1.0000 0.74454  0.63061  0.10001  Biso   1.000  H
  H245     1.0000 0.71787  0.63609  0.16310  Biso   1.000  H
  H246     1.0000 0.74448  0.63061  0.10001  Biso   1.000  H
  O53      1.0000 0.00924  0.05721  0.16300  Biso   1.000  O
  C285     1.0000 0.93297  0.07377  0.16701  Biso   1.000  C
  H247     1.0000 0.93390  0.10419  0.20262  Biso   1.000  H
  H248     1.0000 0.90715  0.09902  0.13008  Biso   1.000  H
  H249     1.0000 0.90536  0.02967  0.17119  Biso   1.000  H
  Ne1      1.0000 0.49999  0.31897  0.25000  Biso   1.000  Ne
  He1      1.0000 0.56468  0.43112  0.32490  Biso   1.000  He
  He2      1.0000 0.61096  0.22974  0.30875  Biso   1.000  He
  He3      1.0000 0.36975  0.28400  0.29709  Biso   1.000  He
  He4      1.0000 0.51268  0.56338  0.24501  Biso   1.000  He
  He5      1.0000 0.37526  0.25544  0.26786  Biso   1.000  He
  He6      1.0000 0.34857  0.46194  0.13111  Biso   1.000  He
  Ar1      1.0000 0.49997  0.31503  0.25000  Biso   1.000  Ar
  Ne2      1.0000 0.49998  0.68103  0.74999  Biso   1.000  Ne
  He7      1.0000 0.67169  0.90479  0.76058  Biso   1.000  He
  He8      1.0000 0.37076  0.72085  0.78994  Biso   1.000  He
  He9      1.0000 0.49437  0.39402  0.75526  Biso   1.000  He
  He10     1.0000 0.32796  0.90542  0.73936  Biso   1.000  He
  He11     1.0000 0.70133  0.65212  0.65746  Biso   1.000  He
  He12     1.0000 0.30780  0.49494  0.61285  Biso   1.000  He
  Ar2      1.0000 0.50002  0.68495  0.75002  Biso   1.000  Ar
  Ne3      1.0000 0.00916  0.18368  0.74869  Biso   1.000  Ne
  He13     1.0000 0.10905  0.40150  0.87339  Biso   1.000  He
  He14     1.0000 0.87079  0.22085  0.78994  Biso   1.000  He
  He15     1.0000 0.11418  0.91757  0.73583  Biso   1.000  He
  He16     1.0000 0.84170  0.38253  0.74072  Biso   1.000  He
  He17     1.0000 0.23530  0.13780  0.66284  Biso   1.000  He
  He18     1.0000 0.89134  0.27570  0.68295  Biso   1.000  He
  Ar3      1.0000 0.00204  0.18441  0.75261  Biso   1.000  Ar
  Ne4      1.0000 0.99955  0.81698  0.24651  Biso   1.000  Ne
  He19     1.0000 0.17912  0.58202  0.26031  Biso   1.000  He
  He20     1.0000 0.00000  0.00000  0.00000  Biso   1.000  He
  He21     1.0000 0.82892  0.59621  0.23948  Biso   1.000  He
  He22     1.0000 0.12888  0.77716  0.21301  Biso   1.000  He
  He23     1.0000 0.88962  0.72825  0.18900  Biso   1.000  He
  Ar4      1.0000 0.99774  0.81560  0.24714  Biso   1.000  Ar
