data_image0
_cell_length_a       12.466
_cell_length_b       13.165
_cell_length_c       22.426
_cell_angle_alpha    76.68
_cell_angle_beta     79.86
_cell_angle_gamma    63.66

_symmetry_space_group_name_H-M    "P 1"
_symmetry_int_tables_number       1

loop_
  _symmetry_equiv_pos_as_xyz
  'x, y, z'

loop_
  _atom_site_label
  _atom_site_occupancy
  _atom_site_fract_x
  _atom_site_fract_y
  _atom_site_fract_z
  _atom_site_thermal_displace_type
  _atom_site_B_iso_or_equiv
  _atom_site_type_symbol
  C1       1.0000 0.50693  0.53855  0.39762  Biso   1.000  C
  C2       1.0000 0.56909  0.55234  0.34151  Biso   1.000  C
  H1       1.0000 0.49630  0.46966  0.41252  Biso   1.000  H
  C3       1.0000 0.45928  0.62665  0.43239  Biso   1.000  C
  O1       1.0000 0.61500  0.46070  0.31033  Biso   1.000  O
  C4       1.0000 0.58259  0.65211  0.31972  Biso   1.000  C
  C5       1.0000 0.47515  0.72701  0.41008  Biso   1.000  C
  H2       1.0000 0.41618  0.61793  0.47120  Biso   1.000  H
  C6       1.0000 0.68881  0.46719  0.25639  Biso   1.000  C
  H3       1.0000 0.62479  0.66146  0.28081  Biso   1.000  H
  C7       1.0000 0.53504  0.73941  0.35411  Biso   1.000  C
  O2       1.0000 0.42247  0.81149  0.44637  Biso   1.000  O
  C8       1.0000 0.64034  0.52816  0.20120  Biso   1.000  C
  C9       1.0000 0.81125  0.40466  0.25791  Biso   1.000  C
  H4       1.0000 0.54448  0.80865  0.33839  Biso   1.000  H
  C10      1.0000 0.46175  0.89919  0.43069  Biso   1.000  C
  O3       1.0000 0.51741  0.58676  0.20479  Biso   1.000  O
  C11      1.0000 0.71735  0.52340  0.14822  Biso   1.000  C
  C12      1.0000 0.88934  0.40249  0.20451  Biso   1.000  C
  H5       1.0000 0.84336  0.36227  0.29598  Biso   1.000  H
  C13      1.0000 0.57205  0.87968  0.44991  Biso   1.000  C
  C14      1.0000 0.39335  0.00324  0.39799  Biso   1.000  C
  C15      1.0000 0.46094  0.65179  0.14960  Biso   1.000  C
  H6       1.0000 0.68414  0.56417  0.11019  Biso   1.000  H
  C16      1.0000 0.84178  0.46116  0.14831  Biso   1.000  C
  C17      1.0000 0.02272  0.33311  0.21150  Biso   1.000  C
  O4       1.0000 0.63538  0.77253  0.48118  Biso   1.000  O
  C18      1.0000 0.60503  0.97019  0.43630  Biso   1.000  C
  H7       1.0000 0.31984  0.01430  0.38502  Biso   1.000  H
  C19      1.0000 0.42776  0.09372  0.38318  Biso   1.000  C
  H8       1.0000 0.49172  0.70991  0.13130  Biso   1.000  H
  H9       1.0000 0.37395  0.68988  0.15921  Biso   1.000  H
  H10      1.0000 0.47860  0.60011  0.12040  Biso   1.000  H
  C20      1.0000 0.91753  0.46147  0.08752  Biso   1.000  C
  C21      1.0000 0.08251  0.40135  0.22668  Biso   1.000  C
  H11      1.0000 0.06271  0.30428  0.17269  Biso   1.000  H
  H12      1.0000 0.03420  0.26557  0.24452  Biso   1.000  H
  C22      1.0000 0.75129  0.74544  0.49342  Biso   1.000  C
  H13      1.0000 0.67833  0.95839  0.45000  Biso   1.000  H
  C23      1.0000 0.53652  0.07805  0.40360  Biso   1.000  C
  C24      1.0000 0.34826  0.20376  0.34349  Biso   1.000  C
  H14      1.0000 0.87168  0.46449  0.05482  Biso   1.000  H
  H15      1.0000 0.99061  0.38801  0.08982  Biso   1.000  H
  C25      1.0000 0.95595  0.56058  0.06880  Biso   1.000  C
  C26      1.0000 0.15022  0.44767  0.18248  Biso   1.000  C
  C27      1.0000 0.06956  0.41846  0.28812  Biso   1.000  C
  H16      1.0000 0.79694  0.76219  0.45520  Biso   1.000  H
  H17      1.0000 0.79044  0.66360  0.51089  Biso   1.000  H
  H18      1.0000 0.74816  0.79161  0.52289  Biso   1.000  H
  C28      1.0000 0.57891  0.17205  0.39311  Biso   1.000  C
  C29      1.0000 0.37706  0.20118  0.27561  Biso   1.000  C
  H19      1.0000 0.26327  0.21669  0.35462  Biso   1.000  H
  H20      1.0000 0.35758  0.26947  0.35260  Biso   1.000  H
  C30      1.0000 0.87719  0.66477  0.03569  Biso   1.000  C
  C31      1.0000 0.06280  0.55350  0.08181  Biso   1.000  C
  C32      1.0000 0.16036  0.44718  0.11470  Biso   1.000  C
  C33      1.0000 0.20699  0.50381  0.20180  Biso   1.000  C
  C34      1.0000 0.12170  0.47828  0.30500  Biso   1.000  C
  H21      1.0000 0.02336  0.38745  0.31829  Biso   1.000  H
  C35      1.0000 0.67197  0.16676  0.33811  Biso   1.000  C
  H22      1.0000 0.61415  0.16709  0.43050  Biso   1.000  H
  H23      1.0000 0.50871  0.24743  0.38672  Biso   1.000  H
  C36      1.0000 0.32613  0.14772  0.24880  Biso   1.000  C
  C37      1.0000 0.45138  0.24977  0.23882  Biso   1.000  C
  H24      1.0000 0.80497  0.66934  0.02442  Biso   1.000  H
  C38      1.0000 0.90124  0.75905  0.01959  Biso   1.000  C
  C39      1.0000 0.08571  0.65260  0.06599  Biso   1.000  C
  H25      1.0000 0.15448  0.37766  0.10872  Biso   1.000  H
  H26      1.0000 0.23996  0.44329  0.09630  Biso   1.000  H
  H27      1.0000 0.25685  0.53175  0.17250  Biso   1.000  H
  C40      1.0000 0.19358  0.51976  0.26131  Biso   1.000  C
  O5       1.0000 0.10934  0.50027  0.36340  Biso   1.000  O
  C41      1.0000 0.64130  0.22392  0.27869  Biso   1.000  C
  C42      1.0000 0.79222  0.10101  0.34749  Biso   1.000  C
  H28      1.0000 0.27568  0.11489  0.27382  Biso   1.000  H
  C43      1.0000 0.34795  0.14208  0.18699  Biso   1.000  C
  C44      1.0000 0.46762  0.24722  0.17559  Biso   1.000  C
  C45      1.0000 0.51421  0.30611  0.26278  Biso   1.000  C
  O6       1.0000 0.82559  0.85790  0.98252  Biso   1.000  O
  C46      1.0000 0.00617  0.75506  0.03560  Biso   1.000  C
  H29      1.0000 0.15823  0.64849  0.07662  Biso   1.000  H
  O7       1.0000 0.25415  0.57405  0.27851  Biso   1.000  O
  C47      1.0000 0.01332  0.48410  0.40429  Biso   1.000  C
  C48      1.0000 0.73310  0.20810  0.23031  Biso   1.000  C
  C49      1.0000 0.88137  0.08705  0.29989  Biso   1.000  C
  H30      1.0000 0.81400  0.06427  0.38801  Biso   1.000  H
  C50      1.0000 0.41944  0.19332  0.15038  Biso   1.000  C
  O8       1.0000 0.30254  0.09086  0.15742  Biso   1.000  O
  H31      1.0000 0.51353  0.28392  0.14960  Biso   1.000  H
  H32      1.0000 0.46680  0.33718  0.29989  Biso   1.000  H
  H33      1.0000 0.51707  0.37146  0.23128  Biso   1.000  H
  C51      1.0000 0.73274  0.94090  0.01131  Biso   1.000  C
  O9       1.0000 0.02207  0.85460  0.01872  Biso   1.000  O
  C52      1.0000 0.18686  0.68889  0.28509  Biso   1.000  C
  H34      1.0000 0.93884  0.52316  0.38359  Biso   1.000  H
  H35      1.0000 0.00251  0.51638  0.44131  Biso   1.000  H
  H36      1.0000 0.03309  0.40168  0.41592  Biso   1.000  H
  H37      1.0000 0.71235  0.24532  0.18961  Biso   1.000  H
  C53      1.0000 0.85355  0.13958  0.24038  Biso   1.000  C
  O10      1.0000 0.00214  0.02651  0.31337  Biso   1.000  O
  O11      1.0000 0.43385  0.19647  0.08655  Biso   1.000  O
  C54      1.0000 0.24905  0.01842  0.19642  Biso   1.000  C
  C55      1.0000 0.72421  0.94394  0.07248  Biso   1.000  C
  C56      1.0000 0.64299  0.02254  0.97609  Biso   1.000  C
  C57      1.0000 0.11147  0.86170  0.04659  Biso   1.000  C
  C58      1.0000 0.07490  0.75226  0.26499  Biso   1.000  C
  C59      1.0000 0.23701  0.73789  0.31208  Biso   1.000  C
  O12      1.0000 0.94662  0.12299  0.19623  Biso   1.000  O
  C60      1.0000 0.06044  0.91408  0.30219  Biso   1.000  C
  C61      1.0000 0.53715  0.10879  0.06360  Biso   1.000  C
  H38      1.0000 0.30572  0.96195  0.22590  Biso   1.000  H
  H39      1.0000 0.23004  0.97807  0.17099  Biso   1.000  H
  H40      1.0000 0.17526  0.06597  0.21872  Biso   1.000  H
  H41      1.0000 0.78692  0.88907  0.09699  Biso   1.000  H
  C62      1.0000 0.62400  0.02711  0.09920  Biso   1.000  C
  H42      1.0000 0.64780  0.02155  0.93350  Biso   1.000  H
  C63      1.0000 0.54535  0.10641  0.00299  Biso   1.000  C
  H43      1.0000 0.09879  0.84257  0.09138  Biso   1.000  H
  H44      1.0000 0.10659  0.94001  0.03532  Biso   1.000  H
  H45      1.0000 0.19103  0.80728  0.03242  Biso   1.000  H
  H46      1.0000 0.03970  0.71877  0.24558  Biso   1.000  H
  C64      1.0000 0.01190  0.86788  0.27308  Biso   1.000  C
  H47      1.0000 0.31618  0.69470  0.32459  Biso   1.000  H
  C65      1.0000 0.17298  0.85072  0.32151  Biso   1.000  C
  C66      1.0000 0.92196  0.15908  0.13332  Biso   1.000  C
  H48      1.0000 0.61634  0.02653  0.14220  Biso   1.000  H
  H49      1.0000 0.48335  0.16293  0.97862  Biso   1.000  H
  H50      1.0000 0.93495  0.91332  0.25809  Biso   1.000  H
  H51      1.0000 0.20765  0.88395  0.34142  Biso   1.000  H
  H52      1.0000 0.87438  0.12260  0.12449  Biso   1.000  H
  H53      1.0000 0.99777  0.13666  0.10720  Biso   1.000  H
  H54      1.0000 0.87684  0.24291  0.12491  Biso   1.000  H
  C67      1.0000 0.54047  0.37329  0.56760  Biso   1.000  C
  C68      1.0000 0.52460  0.27294  0.58990  Biso   1.000  C
  C69      1.0000 0.49290  0.46138  0.60241  Biso   1.000  C
  H55      1.0000 0.58361  0.38193  0.52878  Biso   1.000  H
  O13      1.0000 0.57736  0.18846  0.55361  Biso   1.000  O
  C70      1.0000 0.46470  0.26053  0.64591  Biso   1.000  C
  C71      1.0000 0.43066  0.44759  0.65852  Biso   1.000  C
  H56      1.0000 0.50344  0.53028  0.58751  Biso   1.000  H
  C72      1.0000 0.53801  0.10075  0.56930  Biso   1.000  C
  C73      1.0000 0.41724  0.34782  0.68031  Biso   1.000  C
  H57      1.0000 0.45532  0.19121  0.66160  Biso   1.000  H
  O14      1.0000 0.38483  0.53924  0.68965  Biso   1.000  O
  C74      1.0000 0.42769  0.12025  0.55012  Biso   1.000  C
  C75      1.0000 0.60641  0.99670  0.60200  Biso   1.000  C
  H58      1.0000 0.37496  0.33847  0.71922  Biso   1.000  H
  C76      1.0000 0.31094  0.53275  0.74360  Biso   1.000  C
  O15      1.0000 0.36441  0.22733  0.51880  Biso   1.000  O
  C77      1.0000 0.39473  0.02975  0.56369  Biso   1.000  C
  C78      1.0000 0.57208  0.90623  0.61680  Biso   1.000  C
  H59      1.0000 0.67999  0.98563  0.61501  Biso   1.000  H
  C79      1.0000 0.18858  0.59527  0.74212  Biso   1.000  C
  C80      1.0000 0.35949  0.47179  0.79878  Biso   1.000  C
  C81      1.0000 0.24854  0.25449  0.50661  Biso   1.000  C
  H60      1.0000 0.32142  0.04156  0.54998  Biso   1.000  H
  C82      1.0000 0.46323  0.92189  0.59638  Biso   1.000  C
  C83      1.0000 0.65158  0.79619  0.65649  Biso   1.000  C
  C84      1.0000 0.11049  0.59744  0.79552  Biso   1.000  C
  H61      1.0000 0.15648  0.63767  0.70400  Biso   1.000  H
  O16      1.0000 0.48238  0.41310  0.79519  Biso   1.000  O
  C85      1.0000 0.28248  0.47653  0.85181  Biso   1.000  C
  H62      1.0000 0.20282  0.23776  0.54478  Biso   1.000  H
  H63      1.0000 0.20931  0.33635  0.48909  Biso   1.000  H
  H64      1.0000 0.25168  0.20834  0.47709  Biso   1.000  H
  C86      1.0000 0.42084  0.82788  0.60692  Biso   1.000  C
  C87      1.0000 0.62277  0.79875  0.72442  Biso   1.000  C
  H65      1.0000 0.73656  0.78324  0.64541  Biso   1.000  H
  H66      1.0000 0.64226  0.73048  0.64739  Biso   1.000  H
  C88      1.0000 0.15804  0.53877  0.85172  Biso   1.000  C
  C89      1.0000 0.97711  0.66682  0.78853  Biso   1.000  C
  C90      1.0000 0.53889  0.34814  0.85043  Biso   1.000  C
  H67      1.0000 0.31569  0.43578  0.88979  Biso   1.000  H
  C91      1.0000 0.32786  0.83317  0.66192  Biso   1.000  C
  H68      1.0000 0.38568  0.83285  0.56948  Biso   1.000  H
  H69      1.0000 0.49108  0.75242  0.61331  Biso   1.000  H
  C92      1.0000 0.67370  0.85223  0.75118  Biso   1.000  C
  C93      1.0000 0.54845  0.75016  0.76121  Biso   1.000  C
  C94      1.0000 0.08222  0.53846  0.91251  Biso   1.000  C
  C95      1.0000 0.91728  0.59851  0.77330  Biso   1.000  C
  H70      1.0000 0.93704  0.69566  0.82730  Biso   1.000  H
  H71      1.0000 0.96555  0.73436  0.75551  Biso   1.000  H
  H72      1.0000 0.50811  0.29003  0.86869  Biso   1.000  H
  H73      1.0000 0.62588  0.31005  0.84082  Biso   1.000  H
  H74      1.0000 0.52115  0.39983  0.87958  Biso   1.000  H
  C96      1.0000 0.35846  0.77602  0.72129  Biso   1.000  C
  C97      1.0000 0.20754  0.89894  0.65249  Biso   1.000  C
  H75      1.0000 0.72415  0.88505  0.72621  Biso   1.000  H
  C98      1.0000 0.65181  0.85786  0.81299  Biso   1.000  C
  C99      1.0000 0.48554  0.69384  0.73720  Biso   1.000  C
  C100     1.0000 0.53213  0.75272  0.82440  Biso   1.000  C
  H76      1.0000 0.12815  0.53544  0.94521  Biso   1.000  H
  H77      1.0000 0.00914  0.61193  0.91021  Biso   1.000  H
  C101     1.0000 0.04388  0.43936  0.93118  Biso   1.000  C
  C102     1.0000 0.84954  0.55228  0.81750  Biso   1.000  C
  C103     1.0000 0.93027  0.58147  0.71191  Biso   1.000  C
  C104     1.0000 0.26664  0.79183  0.76972  Biso   1.000  C
  C105     1.0000 0.11846  0.91289  0.70009  Biso   1.000  C
  H78      1.0000 0.18574  0.93566  0.61202  Biso   1.000  H
  O17      1.0000 0.69721  0.90907  0.84261  Biso   1.000  O
  C106     1.0000 0.58031  0.80663  0.84960  Biso   1.000  C
  H79      1.0000 0.53295  0.66277  0.70009  Biso   1.000  H
  H80      1.0000 0.48280  0.62840  0.76871  Biso   1.000  H
  H81      1.0000 0.48622  0.71601  0.85043  Biso   1.000  H
  C107     1.0000 0.12269  0.33510  0.96430  Biso   1.000  C
  C108     1.0000 0.93695  0.44643  0.91822  Biso   1.000  C
  C109     1.0000 0.79276  0.49614  0.79818  Biso   1.000  C
  C110     1.0000 0.83947  0.55276  0.88529  Biso   1.000  C
  C111     1.0000 0.87806  0.52167  0.69498  Biso   1.000  C
  H82      1.0000 0.97652  0.61242  0.68169  Biso   1.000  H
  H83      1.0000 0.28748  0.75461  0.81042  Biso   1.000  H
  C112     1.0000 0.14629  0.86036  0.75960  Biso   1.000  C
  O18      1.0000 0.99770  0.97344  0.68661  Biso   1.000  O
  C113     1.0000 0.75078  0.98151  0.80361  Biso   1.000  C
  O19      1.0000 0.56590  0.80346  0.91348  Biso   1.000  O
  C114     1.0000 0.09859  0.24090  0.98039  Biso   1.000  C
  H84      1.0000 0.19477  0.33059  0.97561  Biso   1.000  H
  C115     1.0000 0.91405  0.34734  0.93399  Biso   1.000  C
  C116     1.0000 0.80616  0.48017  0.73872  Biso   1.000  C
  H85      1.0000 0.74302  0.46810  0.82753  Biso   1.000  H
  H86      1.0000 0.84535  0.62227  0.89131  Biso   1.000  H
  H87      1.0000 0.75987  0.55665  0.90368  Biso   1.000  H
  O20      1.0000 0.89049  0.49966  0.63662  Biso   1.000  O
  O21      1.0000 0.05313  0.87694  0.80379  Biso   1.000  O
  C117     1.0000 0.93931  0.08586  0.69779  Biso   1.000  C
  H88      1.0000 0.69415  0.03791  0.77409  Biso   1.000  H
  H89      1.0000 0.76979  0.02187  0.82900  Biso   1.000  H
  H90      1.0000 0.82457  0.93396  0.78131  Biso   1.000  H
  C118     1.0000 0.46259  0.89115  0.93643  Biso   1.000  C
  O22      1.0000 0.17424  0.14205  0.01746  Biso   1.000  O
  C119     1.0000 0.99370  0.24480  0.96439  Biso   1.000  C
  H91      1.0000 0.84160  0.35144  0.92341  Biso   1.000  H
  O23      1.0000 0.74568  0.42588  0.72152  Biso   1.000  O
  C120     1.0000 0.98651  0.51585  0.59569  Biso   1.000  C
  C121     1.0000 0.07787  0.84085  0.86671  Biso   1.000  C
  C122     1.0000 0.98794  0.13206  0.72690  Biso   1.000  C
  C123     1.0000 0.82685  0.14922  0.67852  Biso   1.000  C
  C124     1.0000 0.37584  0.97284  0.90079  Biso   1.000  C
  C125     1.0000 0.45440  0.89354  0.99699  Biso   1.000  C
  C126     1.0000 0.26709  0.05903  0.98872  Biso   1.000  C
  O24      1.0000 0.97767  0.14533  0.98131  Biso   1.000  O
  C127     1.0000 0.81289  0.31105  0.71490  Biso   1.000  C
  H92      1.0000 0.06099  0.47679  0.61639  Biso   1.000  H
  H93      1.0000 0.99732  0.48355  0.55872  Biso   1.000  H
  H94      1.0000 0.96673  0.59825  0.58411  Biso   1.000  H
  H95      1.0000 0.12545  0.87735  0.87549  Biso   1.000  H
  H96      1.0000 0.00210  0.86320  0.89278  Biso   1.000  H
  H97      1.0000 0.12299  0.75702  0.87512  Biso   1.000  H
  H98      1.0000 0.06481  0.08662  0.74189  Biso   1.000  H
  C128     1.0000 0.92486  0.24769  0.73500  Biso   1.000  C
  C129     1.0000 0.76282  0.26205  0.68790  Biso   1.000  C
  H99      1.0000 0.79209  0.11598  0.65861  Biso   1.000  H
  C130     1.0000 0.27562  0.05600  0.92750  Biso   1.000  C
  H100     1.0000 0.38349  0.97342  0.85779  Biso   1.000  H
  C131     1.0000 0.35685  0.97740  0.02390  Biso   1.000  C
  H101     1.0000 0.51648  0.83700  0.02141  Biso   1.000  H
  C132     1.0000 0.88828  0.13825  0.95340  Biso   1.000  C
  H102     1.0000 0.96006  0.28117  0.75440  Biso   1.000  H
  H103     1.0000 0.68365  0.30525  0.67539  Biso   1.000  H
  H104     1.0000 0.21291  0.11087  0.90299  Biso   1.000  H
  H105     1.0000 0.35204  0.97840  0.06648  Biso   1.000  H
  H106     1.0000 0.90096  0.15737  0.90860  Biso   1.000  H
  H107     1.0000 0.89324  0.05992  0.96471  Biso   1.000  H
  H108     1.0000 0.80879  0.19265  0.96761  Biso   1.000  H
