data_image0
_cell_length_a       18.093
_cell_length_b       9.011
_cell_length_c       28.029
_cell_angle_alpha    90
_cell_angle_beta     101.57
_cell_angle_gamma    90

_symmetry_space_group_name_H-M    "P 1"
_symmetry_int_tables_number       1

loop_
  _symmetry_equiv_pos_as_xyz
  'x, y, z'

loop_
  _atom_site_label
  _atom_site_occupancy
  _atom_site_fract_x
  _atom_site_fract_y
  _atom_site_fract_z
  _atom_site_thermal_displace_type
  _atom_site_B_iso_or_equiv
  _atom_site_type_symbol
  C1       1.0000 0.65498  0.47387  0.54371  Biso   1.000  C
  C2       1.0000 0.58630  0.37543  0.53934  Biso   1.000  C
  O1       1.0000 0.70052  0.48186  0.59138  Biso   1.000  O
  H1       1.0000 0.68581  0.43758  0.52161  Biso   1.000  H
  H2       1.0000 0.63851  0.57330  0.53340  Biso   1.000  H
  O2       1.0000 0.52949  0.44878  0.55981  Biso   1.000  O
  H3       1.0000 0.56649  0.35301  0.50529  Biso   1.000  H
  H4       1.0000 0.60020  0.28277  0.55631  Biso   1.000  H
  C3       1.0000 0.67656  0.59438  0.62099  Biso   1.000  C
  C4       1.0000 0.46287  0.37277  0.55708  Biso   1.000  C
  H5       1.0000 0.62760  0.56875  0.62780  Biso   1.000  H
  H6       1.0000 0.67191  0.68849  0.60391  Biso   1.000  H
  C5       1.0000 0.73347  0.60770  0.66789  Biso   1.000  C
  C6       1.0000 0.44969  0.23205  0.53690  Biso   1.000  C
  C7       1.0000 0.40765  0.44834  0.57645  Biso   1.000  C
  H7       1.0000 0.78277  0.62746  0.66079  Biso   1.000  H
  H8       1.0000 0.72011  0.69071  0.68661  Biso   1.000  H
  O3       1.0000 0.73647  0.47664  0.69586  Biso   1.000  O
  H9       1.0000 0.73312  0.70414  0.68330  Biso   1.000  H
  H10      1.0000 0.78418  0.58107  0.66480  Biso   1.000  H
  O4       1.0000 0.69151  0.47908  0.69350  Biso   1.000  O
  C8       1.0000 0.37949  0.16491  0.53635  Biso   1.000  C
  H11      1.0000 0.48659  0.18344  0.52401  Biso   1.000  H
  C9       1.0000 0.33843  0.37987  0.57496  Biso   1.000  C
  H12      1.0000 0.41722  0.54245  0.59000  Biso   1.000  H
  C10      1.0000 0.78384  0.48851  0.74284  Biso   1.000  C
  C11      1.0000 0.73288  0.44057  0.74000  Biso   1.000  C
  C12      1.0000 0.36568  0.00954  0.51625  Biso   1.000  C
  C13      1.0000 0.32418  0.23782  0.55489  Biso   1.000  C
  O5       1.0000 0.27988  0.44079  0.59251  Biso   1.000  O
  H13      1.0000 0.82410  0.55843  0.74149  Biso   1.000  H
  H14      1.0000 0.80648  0.39274  0.75238  Biso   1.000  H
  C14      1.0000 0.73922  0.54045  0.78068  Biso   1.000  C
  H15      1.0000 0.78379  0.41771  0.73629  Biso   1.000  H
  H16      1.0000 0.71139  0.34902  0.74929  Biso   1.000  H
  H17      1.0000 0.35901  0.01265  0.48111  Biso   1.000  H
  O6       1.0000 0.42733  0.91144  0.53555  Biso   1.000  O
  H18      1.0000 0.31959  0.97115  0.52430  Biso   1.000  H
  H19      1.0000 0.27770  0.19276  0.55402  Biso   1.000  H
  C15      1.0000 0.29303  0.58051  0.61706  Biso   1.000  C
  O7       1.0000 0.78967  0.52225  0.82602  Biso   1.000  O
  H20      1.0000 0.72442  0.64355  0.77540  Biso   1.000  H
  H21      1.0000 0.69430  0.48041  0.77929  Biso   1.000  H
  H22      1.0000 0.75000  0.63733  0.76859  Biso   1.000  H
  H23      1.0000 0.68921  0.54700  0.78800  Biso   1.000  H
  C16      1.0000 0.44539  0.89502  0.58548  Biso   1.000  C
  H24      1.0000 0.30228  0.65686  0.59451  Biso   1.000  H
  H25      1.0000 0.33681  0.57408  0.64338  Biso   1.000  H
  C17      1.0000 0.22370  0.61858  0.63690  Biso   1.000  C
  C18      1.0000 0.77627  0.61858  0.86309  Biso   1.000  C
  C19      1.0000 0.52022  0.85862  0.60486  Biso   1.000  C
  C20      1.0000 0.39386  0.91133  0.61604  Biso   1.000  C
  O8       1.0000 0.21035  0.52225  0.67398  Biso   1.000  O
  H26      1.0000 0.22892  0.71890  0.64961  Biso   1.000  H
  H27      1.0000 0.18012  0.61658  0.61032  Biso   1.000  H
  C21      1.0000 0.70693  0.58051  0.88294  Biso   1.000  C
  H28      1.0000 0.77111  0.71890  0.85042  Biso   1.000  H
  H29      1.0000 0.81991  0.61658  0.88971  Biso   1.000  H
  H30      1.0000 0.55420  0.84563  0.58439  Biso   1.000  H
  C22      1.0000 0.54383  0.84197  0.65471  Biso   1.000  C
  C23      1.0000 0.41750  0.89191  0.66578  Biso   1.000  C
  H31      1.0000 0.34380  0.93519  0.60311  Biso   1.000  H
  C24      1.0000 0.26080  0.54045  0.71931  Biso   1.000  C
  O9       1.0000 0.72009  0.44079  0.90748  Biso   1.000  O
  H32      1.0000 0.69770  0.65686  0.90552  Biso   1.000  H
  H33      1.0000 0.66321  0.57408  0.85661  Biso   1.000  H
  H34      1.0000 0.59399  0.81955  0.66760  Biso   1.000  H
  C25      1.0000 0.49296  0.85840  0.68577  Biso   1.000  C
  H35      1.0000 0.38291  0.90112  0.68610  Biso   1.000  H
  C26      1.0000 0.21613  0.48851  0.75715  Biso   1.000  C
  H36      1.0000 0.27560  0.64355  0.72460  Biso   1.000  H
  H37      1.0000 0.30573  0.48041  0.72070  Biso   1.000  H
  C27      1.0000 0.26709  0.44057  0.75999  Biso   1.000  C
  H38      1.0000 0.25002  0.63733  0.73141  Biso   1.000  H
  H39      1.0000 0.31082  0.54700  0.71200  Biso   1.000  H
  C28      1.0000 0.66159  0.37987  0.92504  Biso   1.000  C
  N1       1.0000 0.52409  0.85029  0.73669  Biso   1.000  N
  O10      1.0000 0.26350  0.47664  0.80413  Biso   1.000  O
  H40      1.0000 0.17592  0.55843  0.75850  Biso   1.000  H
  H41      1.0000 0.19349  0.39274  0.74761  Biso   1.000  H
  H42      1.0000 0.21618  0.41771  0.76371  Biso   1.000  H
  O11      1.0000 0.30851  0.47908  0.80650  Biso   1.000  O
  H43      1.0000 0.28858  0.34902  0.75071  Biso   1.000  H
  C29      1.0000 0.67579  0.23782  0.94510  Biso   1.000  C
  C30      1.0000 0.59237  0.44834  0.92354  Biso   1.000  C
  N2       1.0000 0.47593  0.85029  0.76331  Biso   1.000  N
  C31      1.0000 0.26655  0.60770  0.83210  Biso   1.000  C
  C32      1.0000 0.62053  0.16491  0.96364  Biso   1.000  C
  H44      1.0000 0.72233  0.19276  0.94601  Biso   1.000  H
  C33      1.0000 0.53710  0.37277  0.94292  Biso   1.000  C
  H45      1.0000 0.58280  0.54245  0.91000  Biso   1.000  H
  C34      1.0000 0.50702  0.85840  0.81425  Biso   1.000  C
  C35      1.0000 0.32346  0.59438  0.87900  Biso   1.000  C
  H46      1.0000 0.21719  0.62746  0.83920  Biso   1.000  H
  H47      1.0000 0.27993  0.69071  0.81342  Biso   1.000  H
  H48      1.0000 0.26691  0.70414  0.81669  Biso   1.000  H
  H49      1.0000 0.21578  0.58107  0.83519  Biso   1.000  H
  C36      1.0000 0.63429  0.00954  0.98374  Biso   1.000  C
  C37      1.0000 0.55028  0.23205  0.96309  Biso   1.000  C
  O12      1.0000 0.47055  0.44878  0.94022  Biso   1.000  O
  C38      1.0000 0.45619  0.84197  0.84528  Biso   1.000  C
  C39      1.0000 0.58254  0.89191  0.83425  Biso   1.000  C
  O13      1.0000 0.29950  0.48186  0.90861  Biso   1.000  O
  H50      1.0000 0.37242  0.56875  0.87219  Biso   1.000  H
  H51      1.0000 0.32811  0.68849  0.89608  Biso   1.000  H
  O14      1.0000 0.57264  0.91144  0.96444  Biso   1.000  O
  H52      1.0000 0.68037  0.97115  0.97569  Biso   1.000  H
  H53      1.0000 0.64095  0.01265  0.01888  Biso   1.000  H
  H54      1.0000 0.51338  0.18344  0.97598  Biso   1.000  H
  C40      1.0000 0.41372  0.37543  0.96065  Biso   1.000  C
  C41      1.0000 0.47981  0.85862  0.89514  Biso   1.000  C
  H55      1.0000 0.40598  0.81955  0.83239  Biso   1.000  H
  H56      1.0000 0.61711  0.90112  0.81389  Biso   1.000  H
  C42      1.0000 0.60617  0.91133  0.88399  Biso   1.000  C
  C43      1.0000 0.34504  0.47387  0.95628  Biso   1.000  C
  C44      1.0000 0.55465  0.89502  0.91455  Biso   1.000  C
  H57      1.0000 0.43347  0.35301  0.99470  Biso   1.000  H
  H58      1.0000 0.39977  0.28277  0.94368  Biso   1.000  H
  H59      1.0000 0.44582  0.84563  0.91560  Biso   1.000  H
  H60      1.0000 0.65622  0.93519  0.89689  Biso   1.000  H
  H61      1.0000 0.31422  0.43758  0.97839  Biso   1.000  H
  H62      1.0000 0.36151  0.57330  0.96659  Biso   1.000  H
  C45      1.0000 0.66161  0.62013  0.42506  Biso   1.000  C
  C46      1.0000 0.59234  0.55166  0.42357  Biso   1.000  C
  C47      1.0000 0.67579  0.76218  0.44509  Biso   1.000  C
  O15      1.0000 0.72011  0.55932  0.40751  Biso   1.000  O
  C48      1.0000 0.53711  0.62723  0.44291  Biso   1.000  C
  H63      1.0000 0.58281  0.45766  0.40999  Biso   1.000  H
  C49      1.0000 0.62048  0.83509  0.46363  Biso   1.000  C
  H64      1.0000 0.72228  0.80724  0.44600  Biso   1.000  H
  C50      1.0000 0.70695  0.41949  0.38296  Biso   1.000  C
  O16      1.0000 0.47055  0.55122  0.44021  Biso   1.000  O
  C51      1.0000 0.55028  0.76795  0.46308  Biso   1.000  C
  C52      1.0000 0.63430  0.99046  0.48373  Biso   1.000  C
  H65      1.0000 0.69771  0.34325  0.40551  Biso   1.000  H
  H66      1.0000 0.66322  0.42603  0.35660  Biso   1.000  H
  C53      1.0000 0.77628  0.38153  0.36312  Biso   1.000  C
  C54      1.0000 0.41374  0.62457  0.46068  Biso   1.000  C
  H67      1.0000 0.51340  0.81667  0.47601  Biso   1.000  H
  H68      1.0000 0.64103  0.98735  0.51891  Biso   1.000  H
  O17      1.0000 0.57264  0.08867  0.46443  Biso   1.000  O
  H69      1.0000 0.68038  0.02885  0.47568  Biso   1.000  H
  O18      1.0000 0.78963  0.47775  0.32601  Biso   1.000  O
  H70      1.0000 0.77112  0.28110  0.35041  Biso   1.000  H
  H71      1.0000 0.81992  0.38342  0.38970  Biso   1.000  H
  C55      1.0000 0.34500  0.52625  0.45627  Biso   1.000  C
  H72      1.0000 0.43348  0.64699  0.49469  Biso   1.000  H
  H73      1.0000 0.39979  0.71735  0.44371  Biso   1.000  H
  C56      1.0000 0.55466  0.10498  0.41454  Biso   1.000  C
  C57      1.0000 0.73923  0.45966  0.28067  Biso   1.000  C
  O19      1.0000 0.29951  0.51826  0.40860  Biso   1.000  O
  H74      1.0000 0.31418  0.56242  0.47841  Biso   1.000  H
  H75      1.0000 0.36153  0.42670  0.46662  Biso   1.000  H
  C58      1.0000 0.47982  0.14138  0.39516  Biso   1.000  C
  C59      1.0000 0.60618  0.08878  0.38398  Biso   1.000  C
  C60      1.0000 0.78384  0.51149  0.24283  Biso   1.000  C
  C61      1.0000 0.73289  0.55943  0.23999  Biso   1.000  C
  H76      1.0000 0.72438  0.35656  0.27539  Biso   1.000  H
  H77      1.0000 0.69430  0.51959  0.27928  Biso   1.000  H
  H78      1.0000 0.75002  0.36267  0.26861  Biso   1.000  H
  H79      1.0000 0.68921  0.45300  0.28799  Biso   1.000  H
  C62      1.0000 0.32348  0.40562  0.37903  Biso   1.000  C
  H80      1.0000 0.44583  0.15437  0.41559  Biso   1.000  H
  C63      1.0000 0.45621  0.15814  0.34531  Biso   1.000  C
  C64      1.0000 0.58254  0.10820  0.33424  Biso   1.000  C
  H81      1.0000 0.65618  0.06492  0.39691  Biso   1.000  H
  O20      1.0000 0.73647  0.52347  0.19585  Biso   1.000  O
  H82      1.0000 0.82410  0.44157  0.24148  Biso   1.000  H
  H83      1.0000 0.80650  0.60737  0.25241  Biso   1.000  H
  H84      1.0000 0.78381  0.58229  0.23631  Biso   1.000  H
  O21      1.0000 0.69152  0.52092  0.19349  Biso   1.000  O
  H85      1.0000 0.71141  0.65098  0.24931  Biso   1.000  H
  C65      1.0000 0.26656  0.39230  0.33209  Biso   1.000  C
  H86      1.0000 0.37237  0.43136  0.37219  Biso   1.000  H
  H87      1.0000 0.32813  0.31151  0.39611  Biso   1.000  H
  C66      1.0000 0.50702  0.14172  0.31425  Biso   1.000  C
  H88      1.0000 0.40600  0.18056  0.33242  Biso   1.000  H
  H89      1.0000 0.61713  0.09888  0.31392  Biso   1.000  H
  C67      1.0000 0.73349  0.39230  0.16792  Biso   1.000  C
  O22      1.0000 0.26352  0.52347  0.30416  Biso   1.000  O
  O23      1.0000 0.30852  0.52092  0.30649  Biso   1.000  O
  H90      1.0000 0.21720  0.37266  0.33919  Biso   1.000  H
  H91      1.0000 0.27988  0.30929  0.31341  Biso   1.000  H
  H92      1.0000 0.26691  0.29586  0.31669  Biso   1.000  H
  H93      1.0000 0.21579  0.41904  0.33519  Biso   1.000  H
  N3       1.0000 0.47589  0.14971  0.26333  Biso   1.000  N
  C68      1.0000 0.67657  0.40562  0.12098  Biso   1.000  C
  H94      1.0000 0.78278  0.37266  0.16078  Biso   1.000  H
  H95      1.0000 0.72011  0.30929  0.18660  Biso   1.000  H
  H96      1.0000 0.73312  0.29586  0.18329  Biso   1.000  H
  H97      1.0000 0.78419  0.41904  0.16479  Biso   1.000  H
  C69      1.0000 0.21615  0.51149  0.25718  Biso   1.000  C
  C70      1.0000 0.26709  0.55943  0.25998  Biso   1.000  C
  N4       1.0000 0.52410  0.14971  0.23668  Biso   1.000  N
  O24      1.0000 0.70054  0.51826  0.09141  Biso   1.000  O
  H98      1.0000 0.62761  0.43136  0.12779  Biso   1.000  H
  H99      1.0000 0.67192  0.31151  0.10390  Biso   1.000  H
  C71      1.0000 0.26077  0.45966  0.21934  Biso   1.000  C
  H100     1.0000 0.17588  0.44157  0.25849  Biso   1.000  H
  H101     1.0000 0.19350  0.60737  0.24760  Biso   1.000  H
  H102     1.0000 0.21618  0.58229  0.26370  Biso   1.000  H
  H103     1.0000 0.28858  0.65098  0.25070  Biso   1.000  H
  C72      1.0000 0.49297  0.14172  0.18576  Biso   1.000  C
  C73      1.0000 0.65500  0.52625  0.04374  Biso   1.000  C
  O25      1.0000 0.21037  0.47775  0.17400  Biso   1.000  O
  H104     1.0000 0.27561  0.35656  0.22459  Biso   1.000  H
  H105     1.0000 0.30568  0.51959  0.22069  Biso   1.000  H
  H106     1.0000 0.24998  0.36267  0.23140  Biso   1.000  H
  H107     1.0000 0.31082  0.45300  0.21199  Biso   1.000  H
  C74      1.0000 0.54378  0.15814  0.15470  Biso   1.000  C
  C75      1.0000 0.41745  0.10820  0.16577  Biso   1.000  C
  C76      1.0000 0.58631  0.62457  0.03933  Biso   1.000  C
  H108     1.0000 0.68581  0.56242  0.02160  Biso   1.000  H
  H109     1.0000 0.63852  0.42670  0.03339  Biso   1.000  H
  C77      1.0000 0.22371  0.38153  0.13689  Biso   1.000  C
  C78      1.0000 0.52017  0.14138  0.10485  Biso   1.000  C
  H110     1.0000 0.59399  0.18056  0.16759  Biso   1.000  H
  C79      1.0000 0.39387  0.08878  0.11603  Biso   1.000  C
  H111     1.0000 0.38292  0.09888  0.18609  Biso   1.000  H
  O26      1.0000 0.52944  0.55122  0.05980  Biso   1.000  O
  H112     1.0000 0.56651  0.64699  0.00532  Biso   1.000  H
  H113     1.0000 0.60020  0.71735  0.05630  Biso   1.000  H
  C80      1.0000 0.29304  0.41949  0.11705  Biso   1.000  C
  H114     1.0000 0.22887  0.28110  0.14960  Biso   1.000  H
  H115     1.0000 0.18008  0.38342  0.11031  Biso   1.000  H
  C81      1.0000 0.44539  0.10498  0.08547  Biso   1.000  C
  H116     1.0000 0.55422  0.15437  0.08442  Biso   1.000  H
  H117     1.0000 0.34381  0.06492  0.10310  Biso   1.000  H
  C82      1.0000 0.46288  0.62723  0.05707  Biso   1.000  C
  O27      1.0000 0.27989  0.55932  0.09250  Biso   1.000  O
  H118     1.0000 0.30229  0.34325  0.09450  Biso   1.000  H
  H119     1.0000 0.33683  0.42603  0.14341  Biso   1.000  H
  O28      1.0000 0.42735  0.08867  0.03558  Biso   1.000  O
  C83      1.0000 0.40766  0.55166  0.07644  Biso   1.000  C
  C84      1.0000 0.44970  0.76795  0.03689  Biso   1.000  C
  C85      1.0000 0.33838  0.62013  0.07495  Biso   1.000  C
  C86      1.0000 0.36569  0.99046  0.01628  Biso   1.000  C
  H120     1.0000 0.41717  0.45766  0.08999  Biso   1.000  H
  C87      1.0000 0.37951  0.83509  0.03638  Biso   1.000  C
  H121     1.0000 0.48659  0.81667  0.02400  Biso   1.000  H
  C88      1.0000 0.32419  0.76218  0.05488  Biso   1.000  C
  H122     1.0000 0.35902  0.98735  0.98110  Biso   1.000  H
  H123     1.0000 0.31960  0.02885  0.02429  Biso   1.000  H
  H124     1.0000 0.27771  0.80724  0.05401  Biso   1.000  H
  C89      1.0000 0.86570  0.50960  0.51625  Biso   1.000  C
  O29      1.0000 0.92736  0.41139  0.53555  Biso   1.000  O
  C90      1.0000 0.87952  0.66497  0.53635  Biso   1.000  C
  H125     1.0000 0.81962  0.47109  0.52430  Biso   1.000  H
  H126     1.0000 0.85899  0.51271  0.48111  Biso   1.000  H
  C91      1.0000 0.94536  0.39507  0.58548  Biso   1.000  C
  C92      1.0000 0.94972  0.73211  0.53690  Biso   1.000  C
  C93      1.0000 0.82421  0.73788  0.55489  Biso   1.000  C
  C94      1.0000 0.89383  0.41128  0.61604  Biso   1.000  C
  C95      1.0000 0.02019  0.35867  0.60486  Biso   1.000  C
  C96      1.0000 0.96290  0.87282  0.55708  Biso   1.000  C
  H127     1.0000 0.98661  0.68339  0.52401  Biso   1.000  H
  H128     1.0000 0.77773  0.69282  0.55402  Biso   1.000  H
  C97      1.0000 0.83840  0.87992  0.57496  Biso   1.000  C
  C98      1.0000 0.91747  0.39185  0.66578  Biso   1.000  C
  H129     1.0000 0.84378  0.43513  0.60311  Biso   1.000  H
  H130     1.0000 0.05418  0.34558  0.58439  Biso   1.000  H
  C99      1.0000 0.04380  0.34192  0.65471  Biso   1.000  C
  C100     1.0000 0.90762  0.94840  0.57645  Biso   1.000  C
  O30      1.0000 0.02946  0.94884  0.55981  Biso   1.000  O
  O31      1.0000 0.77991  0.94074  0.59251  Biso   1.000  O
  C101     1.0000 0.99299  0.35834  0.68577  Biso   1.000  C
  H131     1.0000 0.88288  0.40107  0.68610  Biso   1.000  H
  H132     1.0000 0.09402  0.31950  0.66760  Biso   1.000  H
  H133     1.0000 0.91719  0.04239  0.59000  Biso   1.000  H
  C102     1.0000 0.08628  0.87549  0.53934  Biso   1.000  C
  C103     1.0000 0.79306  0.08057  0.61706  Biso   1.000  C
  N5       1.0000 0.02412  0.35035  0.73669  Biso   1.000  N
  H134     1.0000 0.06652  0.85307  0.50529  Biso   1.000  H
  H135     1.0000 0.10023  0.78271  0.55631  Biso   1.000  H
  C104     1.0000 0.15495  0.97392  0.54371  Biso   1.000  C
  H136     1.0000 0.80231  0.15681  0.59451  Biso   1.000  H
  H137     1.0000 0.83678  0.07402  0.64338  Biso   1.000  H
  C105     1.0000 0.72373  0.11852  0.63690  Biso   1.000  C
  N6       1.0000 0.97590  0.35035  0.76331  Biso   1.000  N
  O32      1.0000 0.20049  0.98180  0.59138  Biso   1.000  O
  H138     1.0000 0.18578  0.93763  0.52161  Biso   1.000  H
  H139     1.0000 0.13848  0.07335  0.53340  Biso   1.000  H
  O33      1.0000 0.71032  0.02220  0.67398  Biso   1.000  O
  H140     1.0000 0.72889  0.21895  0.64961  Biso   1.000  H
  H141     1.0000 0.68010  0.11664  0.61032  Biso   1.000  H
  C106     1.0000 0.00704  0.35834  0.81425  Biso   1.000  C
  C107     1.0000 0.17653  0.09433  0.62099  Biso   1.000  C
  C108     1.0000 0.76078  0.04040  0.71931  Biso   1.000  C
  C109     1.0000 0.95616  0.34192  0.84528  Biso   1.000  C
  C110     1.0000 0.08251  0.39185  0.83425  Biso   1.000  C
  H142     1.0000 0.12758  0.06869  0.62780  Biso   1.000  H
  H143     1.0000 0.17189  0.18855  0.60391  Biso   1.000  H
  C111     1.0000 0.23344  0.10776  0.66789  Biso   1.000  C
  C112     1.0000 0.71616  0.98857  0.75715  Biso   1.000  C
  H144     1.0000 0.80570  0.98047  0.72070  Biso   1.000  H
  C113     1.0000 0.76711  0.94063  0.75999  Biso   1.000  C
  H145     1.0000 0.77557  0.14349  0.72460  Biso   1.000  H
  H146     1.0000 0.75000  0.13728  0.73141  Biso   1.000  H
  H147     1.0000 0.81079  0.04705  0.71200  Biso   1.000  H
  C114     1.0000 0.97978  0.35867  0.89514  Biso   1.000  C
  H148     1.0000 0.90601  0.31950  0.83239  Biso   1.000  H
  H149     1.0000 0.11708  0.40107  0.81389  Biso   1.000  H
  C115     1.0000 0.10615  0.41128  0.88399  Biso   1.000  C
  O34      1.0000 0.23649  0.97670  0.69586  Biso   1.000  O
  O35      1.0000 0.19149  0.97914  0.69350  Biso   1.000  O
  H150     1.0000 0.28280  0.12740  0.66079  Biso   1.000  H
  H151     1.0000 0.22008  0.19066  0.68661  Biso   1.000  H
  H152     1.0000 0.23309  0.20408  0.68330  Biso   1.000  H
  H153     1.0000 0.28421  0.08101  0.66480  Biso   1.000  H
  O36      1.0000 0.76353  0.97670  0.80413  Biso   1.000  O
  H154     1.0000 0.69352  0.89269  0.74761  Biso   1.000  H
  H155     1.0000 0.71620  0.91777  0.76371  Biso   1.000  H
  H156     1.0000 0.67590  0.05837  0.75850  Biso   1.000  H
  O37      1.0000 0.80848  0.97914  0.80650  Biso   1.000  O
  H157     1.0000 0.78860  0.84907  0.75071  Biso   1.000  H
  H158     1.0000 0.94579  0.34558  0.91560  Biso   1.000  H
  C116     1.0000 0.05462  0.39507  0.91455  Biso   1.000  C
  H159     1.0000 0.15619  0.43513  0.89689  Biso   1.000  H
  C117     1.0000 0.28387  0.98857  0.74284  Biso   1.000  C
  C118     1.0000 0.23291  0.94063  0.74000  Biso   1.000  C
  C119     1.0000 0.76653  0.10776  0.83210  Biso   1.000  C
  O38      1.0000 0.07267  0.41139  0.96444  Biso   1.000  O
  H160     1.0000 0.30651  0.89269  0.75238  Biso   1.000  H
  H161     1.0000 0.28382  0.91777  0.73629  Biso   1.000  H
  H162     1.0000 0.32407  0.05837  0.74149  Biso   1.000  H
  C120     1.0000 0.23919  0.04040  0.78068  Biso   1.000  C
  H163     1.0000 0.21142  0.84907  0.74929  Biso   1.000  H
  C121     1.0000 0.82344  0.09433  0.87900  Biso   1.000  C
  H164     1.0000 0.71722  0.12740  0.83920  Biso   1.000  H
  H165     1.0000 0.77990  0.19066  0.81342  Biso   1.000  H
  H166     1.0000 0.76688  0.20408  0.81669  Biso   1.000  H
  H167     1.0000 0.71581  0.08101  0.83519  Biso   1.000  H
  C122     1.0000 0.13432  0.50960  0.98374  Biso   1.000  C
  H168     1.0000 0.19432  0.98047  0.77929  Biso   1.000  H
  O39      1.0000 0.28965  0.02220  0.82602  Biso   1.000  O
  H169     1.0000 0.22440  0.14349  0.77540  Biso   1.000  H
  H170     1.0000 0.24997  0.13728  0.76859  Biso   1.000  H
  H171     1.0000 0.18918  0.04705  0.78800  Biso   1.000  H
  O40      1.0000 0.79947  0.98180  0.90861  Biso   1.000  O
  H172     1.0000 0.87239  0.06869  0.87219  Biso   1.000  H
  H173     1.0000 0.82808  0.18855  0.89608  Biso   1.000  H
  C123     1.0000 0.12050  0.66497  0.96364  Biso   1.000  C
  H174     1.0000 0.18040  0.47109  0.97569  Biso   1.000  H
  H175     1.0000 0.14098  0.51271  0.01888  Biso   1.000  H
  C124     1.0000 0.27629  0.11852  0.86309  Biso   1.000  C
  C125     1.0000 0.84502  0.97392  0.95628  Biso   1.000  C
  C126     1.0000 0.05030  0.73211  0.96309  Biso   1.000  C
  C127     1.0000 0.17582  0.73788  0.94510  Biso   1.000  C
  C128     1.0000 0.20696  0.08057  0.88294  Biso   1.000  C
  H176     1.0000 0.27108  0.21895  0.85042  Biso   1.000  H
  H177     1.0000 0.31988  0.11664  0.88971  Biso   1.000  H
  C129     1.0000 0.91369  0.87549  0.96065  Biso   1.000  C
  H178     1.0000 0.81419  0.93763  0.97839  Biso   1.000  H
  H179     1.0000 0.86148  0.07335  0.96659  Biso   1.000  H
  C130     1.0000 0.03713  0.87282  0.94292  Biso   1.000  C
  H180     1.0000 0.01341  0.68339  0.97598  Biso   1.000  H
  H181     1.0000 0.22230  0.69282  0.94601  Biso   1.000  H
  C131     1.0000 0.16162  0.87992  0.92504  Biso   1.000  C
  O41      1.0000 0.22011  0.94074  0.90748  Biso   1.000  O
  H182     1.0000 0.19773  0.15681  0.90552  Biso   1.000  H
  H183     1.0000 0.16319  0.07402  0.85661  Biso   1.000  H
  O42      1.0000 0.97052  0.94884  0.94022  Biso   1.000  O
  H184     1.0000 0.93350  0.85307  0.99470  Biso   1.000  H
  H185     1.0000 0.89980  0.78271  0.94368  Biso   1.000  H
  C132     1.0000 0.09235  0.94840  0.92354  Biso   1.000  C
  H186     1.0000 0.08278  0.04239  0.91000  Biso   1.000  H
  C133     1.0000 0.84502  0.02619  0.45627  Biso   1.000  C
  O43      1.0000 0.79948  0.01820  0.40860  Biso   1.000  O
  C134     1.0000 0.91371  0.12463  0.46068  Biso   1.000  C
  H187     1.0000 0.81421  0.06237  0.47841  Biso   1.000  H
  H188     1.0000 0.86150  0.92676  0.46662  Biso   1.000  H
  C135     1.0000 0.82346  0.90567  0.37903  Biso   1.000  C
  O44      1.0000 0.97053  0.05116  0.44021  Biso   1.000  O
  H189     1.0000 0.93351  0.14704  0.49469  Biso   1.000  H
  H190     1.0000 0.89982  0.21729  0.44371  Biso   1.000  H
  C136     1.0000 0.76653  0.89235  0.33209  Biso   1.000  C
  H191     1.0000 0.87240  0.93131  0.37219  Biso   1.000  H
  H192     1.0000 0.82810  0.81156  0.39611  Biso   1.000  H
  C137     1.0000 0.03713  0.12729  0.44291  Biso   1.000  C
  O45      1.0000 0.76355  0.02342  0.30416  Biso   1.000  O
  O46      1.0000 0.80849  0.02086  0.30649  Biso   1.000  O
  H193     1.0000 0.71717  0.87260  0.33919  Biso   1.000  H
  H194     1.0000 0.77991  0.80934  0.31341  Biso   1.000  H
  H195     1.0000 0.76689  0.79592  0.31669  Biso   1.000  H
  H196     1.0000 0.71582  0.91899  0.33519  Biso   1.000  H
  C138     1.0000 0.05031  0.26789  0.46308  Biso   1.000  C
  C139     1.0000 0.09236  0.05160  0.42357  Biso   1.000  C
  C140     1.0000 0.71618  0.01154  0.25718  Biso   1.000  C
  C141     1.0000 0.76712  0.05937  0.25998  Biso   1.000  C
  H197     1.0000 0.01343  0.31661  0.47601  Biso   1.000  H
  C142     1.0000 0.12051  0.33503  0.46363  Biso   1.000  C
  H198     1.0000 0.08278  0.95761  0.40999  Biso   1.000  H
  C143     1.0000 0.16158  0.12019  0.42506  Biso   1.000  C
  H199     1.0000 0.69352  0.10731  0.24760  Biso   1.000  H
  H200     1.0000 0.71621  0.08234  0.26370  Biso   1.000  H
  H201     1.0000 0.67590  0.94163  0.25849  Biso   1.000  H
  C144     1.0000 0.76079  0.95960  0.21934  Biso   1.000  C
  H202     1.0000 0.78861  0.15104  0.25070  Biso   1.000  H
  C145     1.0000 0.17582  0.26212  0.44509  Biso   1.000  C
  C146     1.0000 0.13433  0.49040  0.48373  Biso   1.000  C
  O47      1.0000 0.22013  0.05926  0.40751  Biso   1.000  O
  H203     1.0000 0.80571  0.01964  0.22069  Biso   1.000  H
  O48      1.0000 0.71034  0.97780  0.17400  Biso   1.000  O
  H204     1.0000 0.77558  0.85651  0.22459  Biso   1.000  H
  H205     1.0000 0.75000  0.86272  0.23140  Biso   1.000  H
  H206     1.0000 0.81079  0.95306  0.21199  Biso   1.000  H
  H207     1.0000 0.22231  0.30718  0.44600  Biso   1.000  H
  O49      1.0000 0.07267  0.58861  0.46443  Biso   1.000  O
  H208     1.0000 0.18041  0.52891  0.47568  Biso   1.000  H
  H209     1.0000 0.14100  0.48729  0.51891  Biso   1.000  H
  C147     1.0000 0.20698  0.91954  0.38296  Biso   1.000  C
  C148     1.0000 0.72368  0.88148  0.13689  Biso   1.000  C
  C149     1.0000 0.05463  0.60504  0.41454  Biso   1.000  C
  H210     1.0000 0.19768  0.84319  0.40551  Biso   1.000  H
  H211     1.0000 0.16319  0.92609  0.35660  Biso   1.000  H
  C150     1.0000 0.27631  0.88148  0.36312  Biso   1.000  C
  C151     1.0000 0.79301  0.91954  0.11705  Biso   1.000  C
  H212     1.0000 0.72890  0.78116  0.14960  Biso   1.000  H
  H213     1.0000 0.68010  0.88348  0.11031  Biso   1.000  H
  C152     1.0000 0.97980  0.64144  0.39516  Biso   1.000  C
  C153     1.0000 0.10615  0.58872  0.38398  Biso   1.000  C
  O50      1.0000 0.28965  0.97780  0.32601  Biso   1.000  O
  H214     1.0000 0.27109  0.78116  0.35041  Biso   1.000  H
  H215     1.0000 0.31989  0.88348  0.38970  Biso   1.000  H
  O51      1.0000 0.77986  0.05926  0.09250  Biso   1.000  O
  H216     1.0000 0.80231  0.84319  0.09450  Biso   1.000  H
  H217     1.0000 0.83680  0.92609  0.14341  Biso   1.000  H
  H218     1.0000 0.94580  0.65442  0.41559  Biso   1.000  H
  C154     1.0000 0.95618  0.65808  0.34531  Biso   1.000  C
  C155     1.0000 0.08252  0.60815  0.33424  Biso   1.000  C
  H219     1.0000 0.15621  0.56498  0.39691  Biso   1.000  H
  C156     1.0000 0.23920  0.95960  0.28067  Biso   1.000  C
  C157     1.0000 0.83841  0.12019  0.07495  Biso   1.000  C
  H220     1.0000 0.90603  0.68050  0.33242  Biso   1.000  H
  C158     1.0000 0.00705  0.64177  0.31425  Biso   1.000  C
  H221     1.0000 0.11710  0.59893  0.31392  Biso   1.000  H
  H222     1.0000 0.22440  0.85651  0.27539  Biso   1.000  H
  H223     1.0000 0.24999  0.86272  0.26861  Biso   1.000  H
  H224     1.0000 0.18919  0.95306  0.28799  Biso   1.000  H
  C159     1.0000 0.28382  0.01154  0.24283  Biso   1.000  C
  H225     1.0000 0.19428  0.01964  0.27928  Biso   1.000  H
  C160     1.0000 0.23292  0.05937  0.23999  Biso   1.000  C
  C161     1.0000 0.82421  0.26212  0.05488  Biso   1.000  C
  C162     1.0000 0.90763  0.05160  0.07644  Biso   1.000  C
  N7       1.0000 0.97592  0.64976  0.26333  Biso   1.000  N
  O52      1.0000 0.23645  0.02342  0.19585  Biso   1.000  O
  H226     1.0000 0.32408  0.94163  0.24148  Biso   1.000  H
  H227     1.0000 0.30652  0.10731  0.25241  Biso   1.000  H
  H228     1.0000 0.28378  0.08234  0.23631  Biso   1.000  H
  O53      1.0000 0.19149  0.02086  0.19349  Biso   1.000  O
  H229     1.0000 0.21138  0.15104  0.24931  Biso   1.000  H
  C163     1.0000 0.87948  0.33503  0.03638  Biso   1.000  C
  H230     1.0000 0.77768  0.30718  0.05401  Biso   1.000  H
  C164     1.0000 0.96290  0.12729  0.05707  Biso   1.000  C
  H231     1.0000 0.91720  0.95761  0.08999  Biso   1.000  H
  N8       1.0000 0.02407  0.64976  0.23668  Biso   1.000  N
  C165     1.0000 0.23346  0.89235  0.16792  Biso   1.000  C
  C166     1.0000 0.94967  0.26789  0.03689  Biso   1.000  C
  C167     1.0000 0.86572  0.49040  0.01628  Biso   1.000  C
  O54      1.0000 0.02947  0.05116  0.05980  Biso   1.000  O
  C168     1.0000 0.99300  0.64177  0.18576  Biso   1.000  C
  C169     1.0000 0.17654  0.90567  0.12098  Biso   1.000  C
  H232     1.0000 0.28281  0.87260  0.16078  Biso   1.000  H
  H233     1.0000 0.22009  0.80934  0.18660  Biso   1.000  H
  H234     1.0000 0.23309  0.79592  0.18329  Biso   1.000  H
  H235     1.0000 0.28422  0.91899  0.16479  Biso   1.000  H
  H236     1.0000 0.98662  0.31661  0.02400  Biso   1.000  H
  O55      1.0000 0.92732  0.58861  0.03558  Biso   1.000  O
  H237     1.0000 0.81957  0.52891  0.02429  Biso   1.000  H
  H238     1.0000 0.85899  0.48729  0.98110  Biso   1.000  H
  C170     1.0000 0.08628  0.12463  0.03933  Biso   1.000  C
  C171     1.0000 0.91748  0.60815  0.16577  Biso   1.000  C
  C172     1.0000 0.04381  0.65808  0.15470  Biso   1.000  C
  O56      1.0000 0.20051  0.01820  0.09141  Biso   1.000  O
  H239     1.0000 0.12758  0.93131  0.12779  Biso   1.000  H
  H240     1.0000 0.17189  0.81156  0.10390  Biso   1.000  H
  C173     1.0000 0.94537  0.60504  0.08547  Biso   1.000  C
  H241     1.0000 0.06648  0.14704  0.00532  Biso   1.000  H
  H242     1.0000 0.10018  0.21729  0.05630  Biso   1.000  H
  C174     1.0000 0.15497  0.02619  0.04374  Biso   1.000  C
  C175     1.0000 0.89384  0.58872  0.11603  Biso   1.000  C
  H243     1.0000 0.88289  0.59893  0.18609  Biso   1.000  H
  C176     1.0000 0.02020  0.64144  0.10485  Biso   1.000  C
  H244     1.0000 0.09402  0.68050  0.16759  Biso   1.000  H
  H245     1.0000 0.13849  0.92676  0.03339  Biso   1.000  H
  H246     1.0000 0.18578  0.06237  0.02160  Biso   1.000  H
  H247     1.0000 0.84378  0.56498  0.10310  Biso   1.000  H
  H248     1.0000 0.05420  0.65442  0.08442  Biso   1.000  H
  Ne1      1.0000 0.50000  0.70439  0.25000  Biso   1.000  Ne
  He1      1.0000 0.49664  0.42971  0.26849  Biso   1.000  He
  He2      1.0000 0.37869  0.83620  0.31045  Biso   1.000  He
  He3      1.0000 0.69602  0.98050  0.23768  Biso   1.000  He
  Ar1      1.0000 0.49995  0.68639  0.25073  Biso   1.000  Ar
  Ne2      1.0000 0.50000  0.29565  0.75000  Biso   1.000  Ne
  He4      1.0000 0.43273  0.21932  0.83909  Biso   1.000  He
  He5      1.0000 0.50309  0.54595  0.73317  Biso   1.000  He
  He6      1.0000 0.61415  0.16959  0.69121  Biso   1.000  He
  Ar2      1.0000 0.50005  0.31371  0.74927  Biso   1.000  Ar
  Ne3      1.0000 1.00000  0.20438  0.25000  Biso   1.000  Ne
  He7      1.0000 0.99661  0.92978  0.26848  Biso   1.000  He
  He8      1.0000 0.87869  0.33609  0.31052  Biso   1.000  He
  He9      1.0000 0.11355  0.32995  0.19133  Biso   1.000  He
  Ar3      1.0000 0.99996  0.18650  0.25060  Biso   1.000  Ar
  Ne4      1.0000 1.00000  0.79566  0.75000  Biso   1.000  Ne
  He10     1.0000 0.93275  0.71934  0.83907  Biso   1.000  He
  He11     1.0000 0.00306  0.04600  0.73317  Biso   1.000  He
  He12     1.0000 0.11415  0.66956  0.69122  Biso   1.000  He
  Ar4      1.0000 0.00014  0.81357  0.74929  Biso   1.000  Ar
