data_image0
_cell_length_a       11.148
_cell_length_b       11.401
_cell_length_c       20.945
_cell_angle_alpha    103.3
_cell_angle_beta     95.84
_cell_angle_gamma    96.5

_symmetry_space_group_name_H-M    "P 1"
_symmetry_int_tables_number       1

loop_
  _symmetry_equiv_pos_as_xyz
  'x, y, z'

loop_
  _atom_site_label
  _atom_site_occupancy
  _atom_site_fract_x
  _atom_site_fract_y
  _atom_site_fract_z
  _atom_site_thermal_displace_type
  _atom_site_B_iso_or_equiv
  _atom_site_type_symbol
  C1       1.0000 0.59893  0.55081  0.41620  Biso   1.000  C
  N1       1.0000 0.52464  0.51986  0.35225  Biso   1.000  N
  H1       1.0000 0.56280  0.61113  0.44688  Biso   1.000  H
  H2       1.0000 0.59827  0.47780  0.43347  Biso   1.000  H
  N2       1.0000 0.72432  0.59942  0.41436  Biso   1.000  N
  C2       1.0000 0.50610  0.40176  0.30379  Biso   1.000  C
  C3       1.0000 0.46188  0.60420  0.33230  Biso   1.000  C
  C4       1.0000 0.76951  0.72042  0.43391  Biso   1.000  C
  C5       1.0000 0.81815  0.52284  0.40070  Biso   1.000  C
  C6       1.0000 0.41559  0.42477  0.24579  Biso   1.000  C
  C7       1.0000 0.45998  0.29823  0.33409  Biso   1.000  C
  N3       1.0000 0.61272  0.37452  0.27088  Biso   1.000  N
  N4       1.0000 0.40219  0.55310  0.26969  Biso   1.000  N
  O1       1.0000 0.45854  0.70677  0.36487  Biso   1.000  O
  N5       1.0000 0.89073  0.73262  0.42669  Biso   1.000  N
  O2       1.0000 0.71298  0.80495  0.45485  Biso   1.000  O
  N6       1.0000 0.81221  0.45490  0.33285  Biso   1.000  N
  H3       1.0000 0.82473  0.46958  0.43169  Biso   1.000  H
  C8       1.0000 0.93464  0.61667  0.41031  Biso   1.000  C
  C9       1.0000 0.29154  0.34356  0.22931  Biso   1.000  C
  N7       1.0000 0.48583  0.40510  0.18966  Biso   1.000  N
  H4       1.0000 0.44923  0.22164  0.30078  Biso   1.000  H
  H5       1.0000 0.51876  0.29499  0.37086  Biso   1.000  H
  H6       1.0000 0.38269  0.31222  0.34968  Biso   1.000  H
  C10      1.0000 0.59712  0.37311  0.20510  Biso   1.000  C
  C11      1.0000 0.72491  0.34726  0.30177  Biso   1.000  C
  C12      1.0000 0.32279  0.61961  0.23777  Biso   1.000  C
  C13      1.0000 0.96959  0.84745  0.44589  Biso   1.000  C
  C14      1.0000 0.91204  0.48638  0.30389  Biso   1.000  C
  N8       1.0000 0.97901  0.58797  0.34685  Biso   1.000  N
  H7       1.0000 0.99526  0.60764  0.44619  Biso   1.000  H
  H8       1.0000 0.24764  0.35864  0.26737  Biso   1.000  H
  H9       1.0000 0.24485  0.36205  0.19209  Biso   1.000  H
  H10      1.0000 0.30358  0.25879  0.21787  Biso   1.000  H
  C15      1.0000 0.44454  0.41348  0.12250  Biso   1.000  C
  O3       1.0000 0.67124  0.34518  0.16635  Biso   1.000  O
  H11      1.0000 0.70577  0.30314  0.33537  Biso   1.000  H
  H12      1.0000 0.76217  0.29356  0.26831  Biso   1.000  H
  H13      1.0000 0.25036  0.56338  0.21441  Biso   1.000  H
  H14      1.0000 0.29575  0.68156  0.27187  Biso   1.000  H
  N9       1.0000 0.37611  0.67894  0.19125  Biso   1.000  N
  H15      1.0000 0.93032  0.90626  0.47559  Biso   1.000  H
  N10      1.0000 0.99968  0.89730  0.39105  Biso   1.000  N
  H16      1.0000 0.04532  0.83675  0.47079  Biso   1.000  H
  O4       1.0000 0.93710  0.43414  0.25034  Biso   1.000  O
  C16      1.0000 0.09526  0.64168  0.33399  Biso   1.000  C
  H17      1.0000 0.35737  0.38277  0.11210  Biso   1.000  H
  H18      1.0000 0.48697  0.36009  0.09151  Biso   1.000  H
  N11      1.0000 0.46416  0.53480  0.11176  Biso   1.000  N
  C17      1.0000 0.42301  0.80059  0.20951  Biso   1.000  C
  C18      1.0000 0.37913  0.62279  0.12190  Biso   1.000  C
  C19      1.0000 0.93344  0.97957  0.37101  Biso   1.000  C
  C20      1.0000 0.10279  0.87516  0.35398  Biso   1.000  C
  H19      1.0000 0.15319  0.65975  0.37457  Biso   1.000  H
  H20      1.0000 0.12625  0.58208  0.30038  Biso   1.000  H
  N12      1.0000 0.09050  0.75235  0.31152  Biso   1.000  N
  C21      1.0000 0.56063  0.57104  0.08162  Biso   1.000  C
  N13      1.0000 0.46785  0.83170  0.15635  Biso   1.000  N
  O5       1.0000 0.42198  0.86952  0.26326  Biso   1.000  O
  C22      1.0000 0.44419  0.73183  0.09681  Biso   1.000  C
  C23      1.0000 0.24777  0.56572  0.08587  Biso   1.000  C
  N14      1.0000 0.98187  0.01507  0.32038  Biso   1.000  N
  O6       1.0000 0.84827  0.01922  0.39793  Biso   1.000  O
  C24      1.0000 0.08725  0.95533  0.30157  Biso   1.000  C
  C25      1.0000 0.22389  0.90727  0.40026  Biso   1.000  C
  C26      1.0000 0.06414  0.74774  0.24589  Biso   1.000  C
  N15      1.0000 0.55288  0.68589  0.07474  Biso   1.000  N
  O7       1.0000 0.63927  0.50852  0.06251  Biso   1.000  O
  C27      1.0000 0.52114  0.95565  0.16011  Biso   1.000  C
  C28      1.0000 0.36430  0.76893  0.04167  Biso   1.000  C
  H21      1.0000 0.25212  0.52925  0.03969  Biso   1.000  H
  H22      1.0000 0.21462  0.50376  0.10671  Biso   1.000  H
  H23      1.0000 0.19569  0.62887  0.08909  Biso   1.000  H
  C29      1.0000 0.92488  0.09658  0.28588  Biso   1.000  C
  N16      1.0000 0.05942  0.86382  0.23861  Biso   1.000  N
  C30      1.0000 0.19759  0.04793  0.30137  Biso   1.000  C
  H24      1.0000 0.29051  0.89223  0.37447  Biso   1.000  H
  H25      1.0000 0.23444  0.99243  0.42357  Biso   1.000  H
  H26      1.0000 0.22354  0.85726  0.43198  Biso   1.000  H
  O8       1.0000 0.05171  0.65585  0.20035  Biso   1.000  O
  C31      1.0000 0.64399  0.74866  0.04410  Biso   1.000  C
  H27      1.0000 0.49524  0.97614  0.11829  Biso   1.000  H
  N17      1.0000 0.65264  0.97644  0.17239  Biso   1.000  N
  H28      1.0000 0.48934  0.01089  0.19540  Biso   1.000  H
  H29      1.0000 0.34869  0.70222  0.00228  Biso   1.000  H
  H30      1.0000 0.28771  0.78748  0.05682  Biso   1.000  H
  H31      1.0000 0.40657  0.84018  0.03148  Biso   1.000  H
  N18      1.0000 0.83708  0.03750  0.23025  Biso   1.000  N
  H32      1.0000 0.98897  0.14617  0.27108  Biso   1.000  H
  H33      1.0000 0.88541  0.15203  0.31750  Biso   1.000  H
  C32      1.0000 0.04612  0.88693  0.17338  Biso   1.000  C
  H34      1.0000 0.21391  0.10739  0.34369  Biso   1.000  H
  H35      1.0000 0.26797  0.00617  0.29409  Biso   1.000  H
  H36      1.0000 0.18100  0.08883  0.26628  Biso   1.000  H
  H37      1.0000 0.60269  0.79424  0.01628  Biso   1.000  H
  H38      1.0000 0.68234  0.68768  0.01510  Biso   1.000  H
  N19      1.0000 0.73857  0.83203  0.09092  Biso   1.000  N
  C33      1.0000 0.73286  0.95966  0.12171  Biso   1.000  C
  C34      1.0000 0.71379  0.02613  0.23460  Biso   1.000  C
  C35      1.0000 0.86347  0.00421  0.16229  Biso   1.000  C
  N20      1.0000 0.92138  0.89509  0.14794  Biso   1.000  N
  H39      1.0000 0.09748  0.96336  0.17471  Biso   1.000  H
  H40      1.0000 0.07599  0.82167  0.14249  Biso   1.000  H
  C36      1.0000 0.84936  0.79832  0.10527  Biso   1.000  C
  C37      1.0000 0.69669  0.04141  0.07300  Biso   1.000  C
  O9       1.0000 0.66741  0.05858  0.28439  Biso   1.000  O
  C38      1.0000 0.93602  0.12306  0.14937  Biso   1.000  C
  O10      1.0000 0.87928  0.69896  0.08122  Biso   1.000  O
  H41      1.0000 0.74842  0.03217  0.03811  Biso   1.000  H
  H42      1.0000 0.61220  0.01605  0.05370  Biso   1.000  H
  H43      1.0000 0.70754  0.12605  0.09731  Biso   1.000  H
  H44      1.0000 0.95583  0.10574  0.10438  Biso   1.000  H
  H45      1.0000 0.88589  0.18801  0.15561  Biso   1.000  H
  H46      1.0000 0.01057  0.14813  0.18021  Biso   1.000  H
  C39      1.0000 0.40076  0.44906  0.58378  Biso   1.000  C
  N21      1.0000 0.27537  0.40045  0.58561  Biso   1.000  N
  H47      1.0000 0.43689  0.38874  0.55310  Biso   1.000  H
  H48      1.0000 0.40142  0.52205  0.56646  Biso   1.000  H
  N22      1.0000 0.47505  0.47999  0.64768  Biso   1.000  N
  C40      1.0000 0.23017  0.27944  0.56601  Biso   1.000  C
  C41      1.0000 0.18154  0.47704  0.59927  Biso   1.000  C
  C42      1.0000 0.53783  0.39576  0.66768  Biso   1.000  C
  C43      1.0000 0.49360  0.59811  0.69618  Biso   1.000  C
  O11      1.0000 0.28672  0.19492  0.54513  Biso   1.000  O
  N23      1.0000 0.10895  0.26723  0.57324  Biso   1.000  N
  C44      1.0000 0.06506  0.38321  0.58967  Biso   1.000  C
  H49      1.0000 0.17498  0.53038  0.56829  Biso   1.000  H
  N24      1.0000 0.18750  0.54506  0.66713  Biso   1.000  N
  N25      1.0000 0.59751  0.44686  0.73029  Biso   1.000  N
  O12      1.0000 0.54115  0.29317  0.63506  Biso   1.000  O
  N26      1.0000 0.38696  0.62533  0.72905  Biso   1.000  N
  C45      1.0000 0.58410  0.57511  0.75419  Biso   1.000  C
  C46      1.0000 0.53971  0.70164  0.66589  Biso   1.000  C
  C47      1.0000 0.03010  0.15242  0.55409  Biso   1.000  C
  H50      1.0000 0.00444  0.39223  0.55379  Biso   1.000  H
  N27      1.0000 0.02068  0.41191  0.65312  Biso   1.000  N
  C48      1.0000 0.08766  0.51350  0.69609  Biso   1.000  C
  C49      1.0000 0.27477  0.65259  0.69816  Biso   1.000  C
  C50      1.0000 0.67690  0.38024  0.76216  Biso   1.000  C
  C51      1.0000 0.40259  0.62685  0.79488  Biso   1.000  C
  C52      1.0000 0.70815  0.65632  0.77067  Biso   1.000  C
  N28      1.0000 0.51386  0.59484  0.81027  Biso   1.000  N
  H51      1.0000 0.55045  0.77821  0.69915  Biso   1.000  H
  H52      1.0000 0.48094  0.70495  0.62907  Biso   1.000  H
  H53      1.0000 0.61700  0.68764  0.65025  Biso   1.000  H
  H54      1.0000 0.06938  0.09370  0.52439  Biso   1.000  H
  N29      1.0000 0.00001  0.10257  0.60893  Biso   1.000  N
  H55      1.0000 0.95437  0.16313  0.52919  Biso   1.000  H
  C53      1.0000 0.90444  0.35828  0.66599  Biso   1.000  C
  O13      1.0000 0.06259  0.56573  0.74964  Biso   1.000  O
  H56      1.0000 0.29391  0.69671  0.66456  Biso   1.000  H
  H57      1.0000 0.23752  0.70632  0.73167  Biso   1.000  H
  H58      1.0000 0.74933  0.43649  0.78557  Biso   1.000  H
  H59      1.0000 0.70393  0.31829  0.72806  Biso   1.000  H
  N30      1.0000 0.62359  0.32093  0.80873  Biso   1.000  N
  O14      1.0000 0.32845  0.65469  0.83363  Biso   1.000  O
  H60      1.0000 0.75204  0.64121  0.73256  Biso   1.000  H
  H61      1.0000 0.75483  0.63780  0.80784  Biso   1.000  H
  H62      1.0000 0.69611  0.74115  0.78206  Biso   1.000  H
  C54      1.0000 0.55516  0.58639  0.87748  Biso   1.000  C
  C55      1.0000 0.06627  0.02039  0.62897  Biso   1.000  C
  C56      1.0000 0.89690  0.12477  0.64595  Biso   1.000  C
  H63      1.0000 0.84649  0.34010  0.62536  Biso   1.000  H
  H64      1.0000 0.87335  0.41786  0.69955  Biso   1.000  H
  N31      1.0000 0.90919  0.24753  0.68846  Biso   1.000  N
  C57      1.0000 0.57669  0.19937  0.79047  Biso   1.000  C
  C58      1.0000 0.62056  0.37708  0.87807  Biso   1.000  C
  H65      1.0000 0.64233  0.61711  0.88787  Biso   1.000  H
  H66      1.0000 0.51272  0.63978  0.90846  Biso   1.000  H
  N32      1.0000 0.53555  0.46516  0.88822  Biso   1.000  N
  N33      1.0000 0.01783  0.98480  0.67960  Biso   1.000  N
  O15      1.0000 0.15143  0.98065  0.60205  Biso   1.000  O
  C59      1.0000 0.91243  0.04452  0.69836  Biso   1.000  C
  C60      1.0000 0.77571  0.09267  0.59967  Biso   1.000  C
  C61      1.0000 0.93554  0.25211  0.75404  Biso   1.000  C
  N34      1.0000 0.53185  0.16827  0.84363  Biso   1.000  N
  O16      1.0000 0.57770  0.13034  0.73667  Biso   1.000  O
  C62      1.0000 0.55550  0.26804  0.90317  Biso   1.000  C
  C63      1.0000 0.75191  0.43413  0.91406  Biso   1.000  C
  C64      1.0000 0.43906  0.42883  0.91836  Biso   1.000  C
  C65      1.0000 0.07480  0.90327  0.71405  Biso   1.000  C
  C66      1.0000 0.80210  0.95201  0.69856  Biso   1.000  C
  N35      1.0000 0.94028  0.13605  0.76137  Biso   1.000  N
  H67      1.0000 0.70917  0.10762  0.62546  Biso   1.000  H
  H68      1.0000 0.76524  0.00742  0.57636  Biso   1.000  H
  H69      1.0000 0.77616  0.14270  0.56799  Biso   1.000  H
  O17      1.0000 0.94797  0.34400  0.79958  Biso   1.000  O
  C67      1.0000 0.47856  0.04422  0.83987  Biso   1.000  C
  N36      1.0000 0.44681  0.31398  0.92524  Biso   1.000  N
  C68      1.0000 0.63538  0.23092  0.95826  Biso   1.000  C
  H70      1.0000 0.74756  0.47061  0.96024  Biso   1.000  H
  H71      1.0000 0.78507  0.49612  0.89327  Biso   1.000  H
  H72      1.0000 0.80400  0.37098  0.91084  Biso   1.000  H
  O18      1.0000 0.36044  0.49144  0.93747  Biso   1.000  O
  H73      1.0000 0.01072  0.85368  0.72885  Biso   1.000  H
  H74      1.0000 0.11430  0.84793  0.68247  Biso   1.000  H
  N37      1.0000 0.16261  0.96235  0.76968  Biso   1.000  N
  H75      1.0000 0.78578  0.89248  0.65629  Biso   1.000  H
  H76      1.0000 0.73172  0.99370  0.70588  Biso   1.000  H
  H77      1.0000 0.81869  0.91111  0.73365  Biso   1.000  H
  C69      1.0000 0.95356  0.11292  0.82655  Biso   1.000  C
  N38      1.0000 0.34704  0.02341  0.82754  Biso   1.000  N
  H78      1.0000 0.50444  0.02372  0.88164  Biso   1.000  H
  H79      1.0000 0.51036  0.98898  0.80458  Biso   1.000  H
  C70      1.0000 0.35570  0.25122  0.95588  Biso   1.000  C
  H80      1.0000 0.65100  0.29763  0.99765  Biso   1.000  H
  H81      1.0000 0.71198  0.21239  0.94316  Biso   1.000  H
  H82      1.0000 0.59311  0.15967  0.96845  Biso   1.000  H
  C71      1.0000 0.28590  0.97375  0.76538  Biso   1.000  C
  C72      1.0000 0.13623  0.99566  0.83769  Biso   1.000  C
  N39      1.0000 0.07832  0.10485  0.85199  Biso   1.000  N
  H83      1.0000 0.90222  0.03651  0.82526  Biso   1.000  H
  H84      1.0000 0.92370  0.17820  0.85749  Biso   1.000  H
  C73      1.0000 0.26683  0.04021  0.87827  Biso   1.000  C
  N40      1.0000 0.26112  0.16784  0.90906  Biso   1.000  N
  H85      1.0000 0.39699  0.20561  0.98365  Biso   1.000  H
  H86      1.0000 0.31734  0.31217  0.98483  Biso   1.000  H
  O19      1.0000 0.33227  0.94128  0.71554  Biso   1.000  O
  C74      1.0000 0.06366  0.87679  0.85056  Biso   1.000  C
  C75      1.0000 0.15032  0.20153  0.89466  Biso   1.000  C
  C76      1.0000 0.30301  0.95847  0.92698  Biso   1.000  C
  H87      1.0000 0.98912  0.85174  0.81977  Biso   1.000  H
  H88      1.0000 0.04386  0.89419  0.89555  Biso   1.000  H
  H89      1.0000 0.11380  0.81186  0.84437  Biso   1.000  H
  O20      1.0000 0.12042  0.30091  0.91876  Biso   1.000  O
  H90      1.0000 0.25129  0.96780  0.96187  Biso   1.000  H
  H91      1.0000 0.38751  0.98392  0.94628  Biso   1.000  H
  H92      1.0000 0.29216  0.87392  0.90267  Biso   1.000  H
  Ne1      1.0000 0.72248  0.71720  0.24610  Biso   1.000  Ne
  He1      1.0000 0.61551  0.90024  0.35864  Biso   1.000  He
  He2      1.0000 0.83312  0.52602  0.15219  Biso   1.000  He
  Ar1      1.0000 0.72647  0.70859  0.25113  Biso   1.000  Ar
  Ne2      1.0000 0.27721  0.28269  0.75386  Biso   1.000  Ne
  He3      1.0000 0.15750  0.48802  0.85564  Biso   1.000  He
  He4      1.0000 0.37895  0.10750  0.64549  Biso   1.000  He
  Ar2      1.0000 0.27346  0.29158  0.74884  Biso   1.000  Ar
