data_image0
_cell_length_a       18.362
_cell_length_b       12.224
_cell_length_c       19.664
_cell_angle_alpha    90
_cell_angle_beta     95.73
_cell_angle_gamma    90

_symmetry_space_group_name_H-M    "P 1"
_symmetry_int_tables_number       1

loop_
  _symmetry_equiv_pos_as_xyz
  'x, y, z'

loop_
  _atom_site_label
  _atom_site_occupancy
  _atom_site_fract_x
  _atom_site_fract_y
  _atom_site_fract_z
  _atom_site_thermal_displace_type
  _atom_site_B_iso_or_equiv
  _atom_site_type_symbol
  C1       1.0000 0.54899  0.64332  0.57182  Biso   1.000  C
  O1       1.0000 0.59627  0.63408  0.63299  Biso   1.000  O
  H1       1.0000 0.49916  0.64504  0.58250  Biso   1.000  H
  H2       1.0000 0.55991  0.70959  0.54861  Biso   1.000  H
  H3       1.0000 0.55609  0.58172  0.54289  Biso   1.000  H
  C2       1.0000 0.59039  0.71302  0.68242  Biso   1.000  C
  C3       1.0000 0.63798  0.70231  0.74196  Biso   1.000  C
  C4       1.0000 0.54035  0.79867  0.67536  Biso   1.000  C
  C5       1.0000 0.63287  0.77822  0.79394  Biso   1.000  C
  C6       1.0000 0.69552  0.61297  0.74881  Biso   1.000  C
  C7       1.0000 0.53587  0.87451  0.72719  Biso   1.000  C
  H4       1.0000 0.50936  0.80530  0.63509  Biso   1.000  H
  C8       1.0000 0.58277  0.86404  0.78689  Biso   1.000  C
  H5       1.0000 0.66360  0.77160  0.83432  Biso   1.000  H
  C9       1.0000 0.76365  0.65003  0.71676  Biso   1.000  C
  H6       1.0000 0.70827  0.59637  0.79680  Biso   1.000  H
  H7       1.0000 0.67607  0.54720  0.72632  Biso   1.000  H
  C10      1.0000 0.48091  0.96769  0.71891  Biso   1.000  C
  O2       1.0000 0.57567  0.94159  0.83610  Biso   1.000  O
  C11      1.0000 0.81872  0.70951  0.75397  Biso   1.000  C
  C12      1.0000 0.77135  0.62901  0.64868  Biso   1.000  C
  H8       1.0000 0.46659  0.98822  0.76332  Biso   1.000  H
  H9       1.0000 0.43748  0.94388  0.69070  Biso   1.000  H
  C13      1.0000 0.51379  0.06569  0.68625  Biso   1.000  C
  C14      1.0000 0.62730  0.93955  0.89514  Biso   1.000  C
  O3       1.0000 0.80931  0.72701  0.82190  Biso   1.000  O
  C15      1.0000 0.87816  0.74771  0.72315  Biso   1.000  C
  C16      1.0000 0.83081  0.66721  0.61700  Biso   1.000  C
  H10      1.0000 0.73569  0.58802  0.62333  Biso   1.000  H
  C17      1.0000 0.55300  0.14120  0.72182  Biso   1.000  C
  C18      1.0000 0.50317  0.07379  0.61081  Biso   1.000  C
  H11      1.0000 0.61807  0.99967  0.92452  Biso   1.000  H
  H12      1.0000 0.62257  0.87189  0.91921  Biso   1.000  H
  H13      1.0000 0.67590  0.94544  0.88159  Biso   1.000  H
  C19      1.0000 0.86548  0.78550  0.86181  Biso   1.000  C
  C20      1.0000 0.88494  0.72873  0.65415  Biso   1.000  C
  H14      1.0000 0.91447  0.78698  0.74901  Biso   1.000  H
  O4       1.0000 0.83952  0.64831  0.54923  Biso   1.000  O
  C21      1.0000 0.58505  0.23617  0.68947  Biso   1.000  C
  H15      1.0000 0.56056  0.13400  0.76910  Biso   1.000  H
  O5       1.0000 0.47020  0.00254  0.57647  Biso   1.000  O
  C22      1.0000 0.53403  0.16942  0.57805  Biso   1.000  C
  H16      1.0000 0.85355  0.79049  0.90812  Biso   1.000  H
  H17      1.0000 0.91117  0.74771  0.86074  Biso   1.000  H
  H18      1.0000 0.86960  0.85774  0.84331  Biso   1.000  H
  C23      1.0000 0.95012  0.77487  0.62093  Biso   1.000  C
  C24      1.0000 0.78697  0.57731  0.51309  Biso   1.000  C
  O6       1.0000 0.62124  0.30440  0.72387  Biso   1.000  O
  C25      1.0000 0.57220  0.24763  0.61367  Biso   1.000  C
  H19      1.0000 0.52679  0.17572  0.53072  Biso   1.000  H
  C26      1.0000 0.94021  0.89521  0.60212  Biso   1.000  C
  H20      1.0000 0.95669  0.73323  0.57999  Biso   1.000  H
  H21      1.0000 0.99409  0.76652  0.65221  Biso   1.000  H
  H22      1.0000 0.78448  0.50990  0.53773  Biso   1.000  H
  H23      1.0000 0.73989  0.61191  0.50880  Biso   1.000  H
  H24      1.0000 0.80147  0.56258  0.46842  Biso   1.000  H
  C27      1.0000 0.60622  0.34498  0.58194  Biso   1.000  C
  C28      1.0000 0.95706  0.97718  0.65073  Biso   1.000  C
  C29      1.0000 0.91428  0.92547  0.53635  Biso   1.000  C
  C30      1.0000 0.68547  0.32273  0.57130  Biso   1.000  C
  H25      1.0000 0.57896  0.36158  0.53829  Biso   1.000  H
  H26      1.0000 0.60351  0.40813  0.61153  Biso   1.000  H
  O7       1.0000 0.98261  0.94241  0.71497  Biso   1.000  O
  C31      1.0000 0.94798  0.08680  0.63253  Biso   1.000  C
  H27      1.0000 0.90331  0.87173  0.50353  Biso   1.000  H
  C32      1.0000 0.90431  0.03477  0.51846  Biso   1.000  C
  C33      1.0000 0.70497  0.28501  0.50916  Biso   1.000  C
  C34      1.0000 0.73998  0.33581  0.62528  Biso   1.000  C
  C35      1.0000 0.99977  0.02233  0.76593  Biso   1.000  C
  C36      1.0000 0.92170  0.11706  0.56650  Biso   1.000  C
  H28      1.0000 0.95970  0.14071  0.66519  Biso   1.000  H
  O8       1.0000 0.87807  0.07011  0.45442  Biso   1.000  O
  O9       1.0000 0.64900  0.27192  0.45784  Biso   1.000  O
  C37      1.0000 0.77815  0.26129  0.50139  Biso   1.000  C
  H29      1.0000 0.72760  0.36314  0.66683  Biso   1.000  H
  C38      1.0000 0.81272  0.30890  0.61843  Biso   1.000  C
  H30      1.0000 0.95787  0.06790  0.76981  Biso   1.000  H
  H31      1.0000 0.01350  0.98691  0.80881  Biso   1.000  H
  H32      1.0000 0.03980  0.06643  0.75372  Biso   1.000  H
  C39      1.0000 0.91032  0.23667  0.54769  Biso   1.000  C
  C40      1.0000 0.85840  0.98945  0.40392  Biso   1.000  C
  C41      1.0000 0.66736  0.23159  0.39380  Biso   1.000  C
  C42      1.0000 0.83243  0.27127  0.55572  Biso   1.000  C
  H33      1.0000 0.79077  0.23838  0.45902  Biso   1.000  H
  O10      1.0000 0.86794  0.31716  0.67036  Biso   1.000  O
  H34      1.0000 0.92061  0.24804  0.50082  Biso   1.000  H
  H35      1.0000 0.94411  0.28141  0.57693  Biso   1.000  H
  H36      1.0000 0.82488  0.93840  0.42099  Biso   1.000  H
  H37      1.0000 0.90140  0.95141  0.39298  Biso   1.000  H
  H38      1.0000 0.83540  0.02397  0.36349  Biso   1.000  H
  H39      1.0000 0.68871  0.16018  0.39988  Biso   1.000  H
  H40      1.0000 0.62398  0.22734  0.36242  Biso   1.000  H
  H41      1.0000 0.70177  0.28019  0.37581  Biso   1.000  H
  C43      1.0000 0.84758  0.35087  0.73511  Biso   1.000  C
  H42      1.0000 0.88997  0.35070  0.76792  Biso   1.000  H
  H43      1.0000 0.82748  0.42343  0.73153  Biso   1.000  H
  H44      1.0000 0.81167  0.30137  0.74973  Biso   1.000  H
  C44      1.0000 0.45097  0.35668  0.42820  Biso   1.000  C
  O11      1.0000 0.40369  0.36592  0.36702  Biso   1.000  O
  H45      1.0000 0.50080  0.35504  0.41752  Biso   1.000  H
  H46      1.0000 0.44011  0.29041  0.45140  Biso   1.000  H
  H47      1.0000 0.44388  0.41828  0.45713  Biso   1.000  H
  C45      1.0000 0.40962  0.28698  0.31760  Biso   1.000  C
  C46      1.0000 0.36198  0.29769  0.25805  Biso   1.000  C
  C47      1.0000 0.45961  0.20133  0.32465  Biso   1.000  C
  C48      1.0000 0.30444  0.38703  0.25120  Biso   1.000  C
  C49      1.0000 0.36709  0.22178  0.20607  Biso   1.000  C
  C50      1.0000 0.46409  0.12549  0.27282  Biso   1.000  C
  H48      1.0000 0.49060  0.19470  0.36492  Biso   1.000  H
  C51      1.0000 0.23631  0.34997  0.28325  Biso   1.000  C
  H49      1.0000 0.29169  0.40363  0.20321  Biso   1.000  H
  H50      1.0000 0.32389  0.45280  0.27369  Biso   1.000  H
  C52      1.0000 0.41719  0.13596  0.21313  Biso   1.000  C
  H51      1.0000 0.33642  0.22840  0.16570  Biso   1.000  H
  C53      1.0000 0.51905  0.03231  0.28110  Biso   1.000  C
  C54      1.0000 0.18130  0.29049  0.24604  Biso   1.000  C
  C55      1.0000 0.22861  0.37099  0.35133  Biso   1.000  C
  O12      1.0000 0.42429  0.05841  0.16391  Biso   1.000  O
  H52      1.0000 0.53337  0.01178  0.23669  Biso   1.000  H
  H53      1.0000 0.56248  0.05612  0.30932  Biso   1.000  H
  C56      1.0000 0.48617  0.93431  0.31376  Biso   1.000  C
  O13      1.0000 0.19065  0.27299  0.17812  Biso   1.000  O
  C57      1.0000 0.12180  0.25229  0.27686  Biso   1.000  C
  C58      1.0000 0.16915  0.33279  0.38302  Biso   1.000  C
  H54      1.0000 0.26428  0.41198  0.37673  Biso   1.000  H
  C59      1.0000 0.37267  0.06054  0.10488  Biso   1.000  C
  C60      1.0000 0.44702  0.85880  0.27819  Biso   1.000  C
  C61      1.0000 0.49679  0.92621  0.38920  Biso   1.000  C
  C62      1.0000 0.13448  0.21450  0.13820  Biso   1.000  C
  C63      1.0000 0.11508  0.27127  0.34586  Biso   1.000  C
  H55      1.0000 0.08549  0.21302  0.25100  Biso   1.000  H
  O14      1.0000 0.16044  0.35169  0.45079  Biso   1.000  O
  H56      1.0000 0.38189  0.00033  0.07549  Biso   1.000  H
  H57      1.0000 0.37739  0.12811  0.08080  Biso   1.000  H
  H58      1.0000 0.32412  0.05456  0.11842  Biso   1.000  H
  C64      1.0000 0.41492  0.76383  0.31054  Biso   1.000  C
  H59      1.0000 0.43940  0.86600  0.23091  Biso   1.000  H
  O15      1.0000 0.52982  0.99755  0.42355  Biso   1.000  O
  C65      1.0000 0.46593  0.83058  0.42196  Biso   1.000  C
  H60      1.0000 0.14641  0.20951  0.09190  Biso   1.000  H
  H61      1.0000 0.08880  0.25229  0.13933  Biso   1.000  H
  H62      1.0000 0.13041  0.14226  0.15670  Biso   1.000  H
  C66      1.0000 0.04985  0.22513  0.37913  Biso   1.000  C
  C67      1.0000 0.21299  0.42269  0.48692  Biso   1.000  C
  O16      1.0000 0.37878  0.69560  0.27615  Biso   1.000  O
  C68      1.0000 0.42782  0.75237  0.38639  Biso   1.000  C
  H63      1.0000 0.47317  0.82428  0.46929  Biso   1.000  H
  C69      1.0000 0.05981  0.10479  0.39789  Biso   1.000  C
  H64      1.0000 0.04327  0.26677  0.42002  Biso   1.000  H
  H65      1.0000 0.00587  0.23348  0.34780  Biso   1.000  H
  H66      1.0000 0.21548  0.49010  0.46229  Biso   1.000  H
  H67      1.0000 0.26007  0.38809  0.49122  Biso   1.000  H
  H68      1.0000 0.19849  0.43742  0.53159  Biso   1.000  H
  C70      1.0000 0.39374  0.65502  0.41808  Biso   1.000  C
  C71      1.0000 0.04290  0.02282  0.34928  Biso   1.000  C
  C72      1.0000 0.08574  0.07453  0.46367  Biso   1.000  C
  C73      1.0000 0.31449  0.67727  0.42871  Biso   1.000  C
  H69      1.0000 0.42100  0.63842  0.46173  Biso   1.000  H
  H70      1.0000 0.39651  0.59187  0.38849  Biso   1.000  H
  O17      1.0000 0.01741  0.05759  0.28509  Biso   1.000  O
  C74      1.0000 0.05199  0.91320  0.36753  Biso   1.000  C
  H71      1.0000 0.09671  0.12827  0.49653  Biso   1.000  H
  C75      1.0000 0.09566  0.96523  0.48156  Biso   1.000  C
  C76      1.0000 0.26003  0.66419  0.37474  Biso   1.000  C
  C77      1.0000 0.29499  0.71499  0.49086  Biso   1.000  C
  C78      1.0000 0.00019  0.97775  0.23408  Biso   1.000  C
  C79      1.0000 0.07826  0.88294  0.43351  Biso   1.000  C
  H72      1.0000 0.04032  0.85929  0.33482  Biso   1.000  H
  O18      1.0000 0.12189  0.92989  0.54560  Biso   1.000  O
  C80      1.0000 0.18724  0.69110  0.38159  Biso   1.000  C
  H73      1.0000 0.27236  0.63694  0.33318  Biso   1.000  H
  C81      1.0000 0.22181  0.73871  0.49863  Biso   1.000  C
  O19      1.0000 0.35097  0.72808  0.54217  Biso   1.000  O
  H74      1.0000 0.96016  0.93357  0.24630  Biso   1.000  H
  H75      1.0000 0.98651  0.01309  0.19120  Biso   1.000  H
  H76      1.0000 0.04209  0.93210  0.23020  Biso   1.000  H
  C82      1.0000 0.08964  0.76333  0.45232  Biso   1.000  C
  C83      1.0000 0.14156  0.01063  0.59609  Biso   1.000  C
  C84      1.0000 0.16753  0.72873  0.44430  Biso   1.000  C
  O20      1.0000 0.13203  0.68284  0.32971  Biso   1.000  O
  H77      1.0000 0.20919  0.76162  0.54100  Biso   1.000  H
  C85      1.0000 0.33260  0.76841  0.60621  Biso   1.000  C
  H78      1.0000 0.07941  0.75205  0.49919  Biso   1.000  H
  H79      1.0000 0.05591  0.71859  0.42309  Biso   1.000  H
  H80      1.0000 0.17508  0.06160  0.57902  Biso   1.000  H
  H81      1.0000 0.09861  0.04859  0.60703  Biso   1.000  H
  H82      1.0000 0.16456  0.97603  0.63652  Biso   1.000  H
  C86      1.0000 0.15238  0.64913  0.26490  Biso   1.000  C
  H83      1.0000 0.31131  0.83982  0.60013  Biso   1.000  H
  H84      1.0000 0.37598  0.77274  0.63759  Biso   1.000  H
  H85      1.0000 0.29820  0.71981  0.62420  Biso   1.000  H
  H86      1.0000 0.10999  0.64930  0.23209  Biso   1.000  H
  H87      1.0000 0.17248  0.57657  0.26848  Biso   1.000  H
  H88      1.0000 0.18829  0.69863  0.25028  Biso   1.000  H
  C87      1.0000 0.62731  0.56054  0.39513  Biso   1.000  C
  O21      1.0000 0.57569  0.55841  0.33610  Biso   1.000  O
  H89      1.0000 0.61809  0.50033  0.42452  Biso   1.000  H
  H90      1.0000 0.62259  0.62811  0.41920  Biso   1.000  H
  H91      1.0000 0.67586  0.55456  0.38159  Biso   1.000  H
  C88      1.0000 0.58279  0.63604  0.28688  Biso   1.000  C
  C89      1.0000 0.53589  0.62549  0.22718  Biso   1.000  C
  C90      1.0000 0.63289  0.72178  0.29393  Biso   1.000  C
  C91      1.0000 0.48093  0.53231  0.21890  Biso   1.000  C
  C92      1.0000 0.54037  0.70133  0.17536  Biso   1.000  C
  C93      1.0000 0.63800  0.79769  0.24195  Biso   1.000  C
  H92      1.0000 0.66356  0.72840  0.33431  Biso   1.000  H
  C94      1.0000 0.51381  0.43431  0.18624  Biso   1.000  C
  H93      1.0000 0.46661  0.51178  0.26332  Biso   1.000  H
  H94      1.0000 0.43750  0.55612  0.19069  Biso   1.000  H
  C95      1.0000 0.59036  0.78698  0.18241  Biso   1.000  C
  H95      1.0000 0.50938  0.69470  0.13508  Biso   1.000  H
  C96      1.0000 0.69554  0.88703  0.24880  Biso   1.000  C
  C97      1.0000 0.55302  0.35880  0.22182  Biso   1.000  C
  C98      1.0000 0.50319  0.42621  0.11081  Biso   1.000  C
  O22      1.0000 0.59629  0.86592  0.13299  Biso   1.000  O
  C99      1.0000 0.76367  0.84997  0.21676  Biso   1.000  C
  H96      1.0000 0.70829  0.90363  0.29679  Biso   1.000  H
  H97      1.0000 0.67609  0.95280  0.22631  Biso   1.000  H
  C100     1.0000 0.58507  0.26383  0.18946  Biso   1.000  C
  H98      1.0000 0.56058  0.36600  0.26909  Biso   1.000  H
  O23      1.0000 0.47016  0.49746  0.07646  Biso   1.000  O
  C101     1.0000 0.53405  0.33058  0.07804  Biso   1.000  C
  C102     1.0000 0.54901  0.85668  0.07181  Biso   1.000  C
  C103     1.0000 0.81868  0.79049  0.25396  Biso   1.000  C
  C104     1.0000 0.77137  0.87099  0.14868  Biso   1.000  C
  O24      1.0000 0.62120  0.19560  0.22386  Biso   1.000  O
  C105     1.0000 0.57216  0.25237  0.11362  Biso   1.000  C
  H99      1.0000 0.52681  0.32428  0.03072  Biso   1.000  H
  H100     1.0000 0.49918  0.85504  0.08249  Biso   1.000  H
  H101     1.0000 0.55988  0.79041  0.04861  Biso   1.000  H
  H102     1.0000 0.55610  0.91828  0.04288  Biso   1.000  H
  O25      1.0000 0.80933  0.77299  0.32189  Biso   1.000  O
  C106     1.0000 0.87818  0.75229  0.22315  Biso   1.000  C
  C107     1.0000 0.83083  0.83279  0.11699  Biso   1.000  C
  H103     1.0000 0.73571  0.91198  0.12333  Biso   1.000  H
  C108     1.0000 0.60624  0.15502  0.08193  Biso   1.000  C
  C109     1.0000 0.86550  0.71450  0.36181  Biso   1.000  C
  C110     1.0000 0.88491  0.77127  0.15415  Biso   1.000  C
  H104     1.0000 0.91449  0.71302  0.24901  Biso   1.000  H
  O26      1.0000 0.83954  0.85169  0.04922  Biso   1.000  O
  C111     1.0000 0.68549  0.17727  0.07130  Biso   1.000  C
  H105     1.0000 0.57898  0.13842  0.03828  Biso   1.000  H
  H106     1.0000 0.60347  0.09187  0.11152  Biso   1.000  H
  H107     1.0000 0.85357  0.70951  0.40811  Biso   1.000  H
  H108     1.0000 0.91118  0.75229  0.36068  Biso   1.000  H
  H109     1.0000 0.86957  0.64234  0.34330  Biso   1.000  H
  C112     1.0000 0.95014  0.72513  0.12093  Biso   1.000  C
  C113     1.0000 0.78699  0.92269  0.01308  Biso   1.000  C
  C114     1.0000 0.70499  0.21499  0.00915  Biso   1.000  C
  C115     1.0000 0.73995  0.16419  0.12527  Biso   1.000  C
  C116     1.0000 0.94023  0.60479  0.10212  Biso   1.000  C
  H110     1.0000 0.95671  0.76677  0.07999  Biso   1.000  H
  H111     1.0000 0.99411  0.73348  0.15220  Biso   1.000  H
  H112     1.0000 0.78450  0.99010  0.03772  Biso   1.000  H
  H113     1.0000 0.73991  0.88809  0.00879  Biso   1.000  H
  H114     1.0000 0.80144  0.93742  0.96841  Biso   1.000  H
  C117     1.0000 0.77817  0.23871  0.00138  Biso   1.000  C
  O27      1.0000 0.64902  0.22808  0.95783  Biso   1.000  O
  H115     1.0000 0.72762  0.13686  0.16682  Biso   1.000  H
  C118     1.0000 0.81274  0.19110  0.11842  Biso   1.000  C
  C119     1.0000 0.95708  0.52282  0.15072  Biso   1.000  C
  C120     1.0000 0.91430  0.57453  0.03634  Biso   1.000  C
  C121     1.0000 0.83245  0.22873  0.05571  Biso   1.000  C
  H116     1.0000 0.79074  0.26162  0.95901  Biso   1.000  H
  C122     1.0000 0.66738  0.26841  0.89379  Biso   1.000  C
  O28      1.0000 0.86795  0.18284  0.17030  Biso   1.000  O
  C123     1.0000 0.94800  0.41320  0.13253  Biso   1.000  C
  O29      1.0000 0.98263  0.55759  0.21497  Biso   1.000  O
  C124     1.0000 0.90433  0.46523  0.01845  Biso   1.000  C
  H117     1.0000 0.90327  0.62827  0.00348  Biso   1.000  H
  C125     1.0000 0.91034  0.26333  0.04769  Biso   1.000  C
  H118     1.0000 0.68868  0.33982  0.89993  Biso   1.000  H
  H119     1.0000 0.62395  0.27274  0.86241  Biso   1.000  H
  H120     1.0000 0.70178  0.21981  0.87580  Biso   1.000  H
  C126     1.0000 0.84760  0.14913  0.23510  Biso   1.000  C
  C127     1.0000 0.92172  0.38294  0.06649  Biso   1.000  C
  H121     1.0000 0.95972  0.35929  0.16519  Biso   1.000  H
  C128     1.0000 0.99979  0.47767  0.26592  Biso   1.000  C
  O30      1.0000 0.87809  0.42989  0.95441  Biso   1.000  O
  H122     1.0000 0.92058  0.25196  0.00082  Biso   1.000  H
  H123     1.0000 0.94407  0.21859  0.07692  Biso   1.000  H
  H124     1.0000 0.88999  0.14930  0.26792  Biso   1.000  H
  H125     1.0000 0.82750  0.07657  0.23153  Biso   1.000  H
  H126     1.0000 0.81169  0.19863  0.24972  Biso   1.000  H
  H127     1.0000 0.95789  0.43210  0.26981  Biso   1.000  H
  H128     1.0000 0.01352  0.51309  0.30880  Biso   1.000  H
  H129     1.0000 0.03982  0.43357  0.25371  Biso   1.000  H
  C129     1.0000 0.85837  0.51063  0.90391  Biso   1.000  C
  H130     1.0000 0.82485  0.56160  0.92098  Biso   1.000  H
  H131     1.0000 0.83537  0.47603  0.86349  Biso   1.000  H
  H132     1.0000 0.90137  0.54859  0.89303  Biso   1.000  H
  C130     1.0000 0.37271  0.43946  0.60493  Biso   1.000  C
  O31      1.0000 0.42427  0.44159  0.66392  Biso   1.000  O
  H133     1.0000 0.38187  0.49967  0.57550  Biso   1.000  H
  H134     1.0000 0.37737  0.37189  0.58081  Biso   1.000  H
  H135     1.0000 0.32410  0.44544  0.61843  Biso   1.000  H
  C131     1.0000 0.41717  0.36404  0.71313  Biso   1.000  C
  C132     1.0000 0.46413  0.37451  0.77283  Biso   1.000  C
  C133     1.0000 0.36713  0.27822  0.70608  Biso   1.000  C
  C134     1.0000 0.45959  0.29867  0.82466  Biso   1.000  C
  C135     1.0000 0.51904  0.46769  0.78111  Biso   1.000  C
  C136     1.0000 0.36196  0.20231  0.75806  Biso   1.000  C
  H136     1.0000 0.33640  0.27160  0.66570  Biso   1.000  H
  C137     1.0000 0.40961  0.21302  0.81760  Biso   1.000  C
  H137     1.0000 0.49058  0.30530  0.86493  Biso   1.000  H
  C138     1.0000 0.48615  0.56569  0.81382  Biso   1.000  C
  H138     1.0000 0.53340  0.48822  0.73670  Biso   1.000  H
  H139     1.0000 0.56246  0.44388  0.80932  Biso   1.000  H
  C139     1.0000 0.30442  0.11297  0.75121  Biso   1.000  C
  O32      1.0000 0.40367  0.13408  0.86703  Biso   1.000  O
  C140     1.0000 0.44700  0.64120  0.77820  Biso   1.000  C
  C141     1.0000 0.49677  0.57379  0.88921  Biso   1.000  C
  C142     1.0000 0.23629  0.15003  0.78326  Biso   1.000  C
  H140     1.0000 0.29167  0.09637  0.70322  Biso   1.000  H
  H141     1.0000 0.32387  0.04720  0.77370  Biso   1.000  H
  C143     1.0000 0.45100  0.14332  0.92820  Biso   1.000  C
  C144     1.0000 0.41490  0.73617  0.81060  Biso   1.000  C
  H142     1.0000 0.43939  0.63400  0.73092  Biso   1.000  H
  O33      1.0000 0.52980  0.50254  0.92355  Biso   1.000  O
  C145     1.0000 0.46591  0.66942  0.92197  Biso   1.000  C
  C146     1.0000 0.18128  0.20951  0.74605  Biso   1.000  C
  C147     1.0000 0.22859  0.12901  0.85133  Biso   1.000  C
  H143     1.0000 0.50078  0.14496  0.91752  Biso   1.000  H
  H144     1.0000 0.44009  0.20959  0.95141  Biso   1.000  H
  H145     1.0000 0.44386  0.08172  0.95713  Biso   1.000  H
  O34      1.0000 0.37876  0.80440  0.77615  Biso   1.000  O
  C148     1.0000 0.42780  0.74763  0.88640  Biso   1.000  C
  H146     1.0000 0.47315  0.67572  0.96930  Biso   1.000  H
  O35      1.0000 0.19063  0.22701  0.67812  Biso   1.000  O
  C149     1.0000 0.12178  0.24771  0.77687  Biso   1.000  C
  C150     1.0000 0.16919  0.16721  0.88302  Biso   1.000  C
  H147     1.0000 0.26426  0.08802  0.87674  Biso   1.000  H
  C151     1.0000 0.39377  0.84498  0.91808  Biso   1.000  C
  C152     1.0000 0.13446  0.28550  0.63821  Biso   1.000  C
  C153     1.0000 0.11506  0.22873  0.84587  Biso   1.000  C
  H148     1.0000 0.08547  0.28698  0.75101  Biso   1.000  H
  O36      1.0000 0.16042  0.14831  0.95079  Biso   1.000  O
  C154     1.0000 0.31447  0.82273  0.92871  Biso   1.000  C
  H149     1.0000 0.42099  0.86158  0.96173  Biso   1.000  H
  H150     1.0000 0.39649  0.90813  0.88849  Biso   1.000  H
  H151     1.0000 0.14639  0.29049  0.59190  Biso   1.000  H
  H152     1.0000 0.08878  0.24771  0.63933  Biso   1.000  H
  H153     1.0000 0.13039  0.35774  0.65671  Biso   1.000  H
  C155     1.0000 0.04983  0.27487  0.87914  Biso   1.000  C
  C156     1.0000 0.21297  0.07731  0.98693  Biso   1.000  C
  C157     1.0000 0.29498  0.78501  0.99086  Biso   1.000  C
  C158     1.0000 0.26001  0.83581  0.87474  Biso   1.000  C
  C159     1.0000 0.05979  0.39521  0.89790  Biso   1.000  C
  H154     1.0000 0.04326  0.23323  0.92003  Biso   1.000  H
  H155     1.0000 0.00591  0.26652  0.84781  Biso   1.000  H
  H156     1.0000 0.21546  0.00990  0.96229  Biso   1.000  H
  H157     1.0000 0.26010  0.11191  0.99122  Biso   1.000  H
  H158     1.0000 0.19852  0.06258  0.03160  Biso   1.000  H
  C160     1.0000 0.22185  0.76129  0.99863  Biso   1.000  C
  O37      1.0000 0.35100  0.77192  0.04218  Biso   1.000  O
  H159     1.0000 0.27240  0.86314  0.83319  Biso   1.000  H
  C161     1.0000 0.18728  0.80890  0.88159  Biso   1.000  C
  C162     1.0000 0.04288  0.47718  0.84929  Biso   1.000  C
  C163     1.0000 0.08572  0.42547  0.96367  Biso   1.000  C
  C164     1.0000 0.16752  0.77127  0.94430  Biso   1.000  C
  H160     1.0000 0.20922  0.73838  0.04100  Biso   1.000  H
  C165     1.0000 0.33263  0.73159  0.10622  Biso   1.000  C
  O38      1.0000 0.13201  0.81724  0.82972  Biso   1.000  O
  O39      1.0000 0.01739  0.44241  0.78510  Biso   1.000  O
  C166     1.0000 0.05197  0.58680  0.86754  Biso   1.000  C
  C167     1.0000 0.09564  0.53477  0.98156  Biso   1.000  C
  H161     1.0000 0.09669  0.37173  0.99654  Biso   1.000  H
  C168     1.0000 0.08962  0.73667  0.95233  Biso   1.000  C
  H162     1.0000 0.31129  0.66018  0.10014  Biso   1.000  H
  H163     1.0000 0.37602  0.72734  0.13760  Biso   1.000  H
  H164     1.0000 0.29823  0.78019  0.12421  Biso   1.000  H
  C169     1.0000 0.15236  0.85087  0.76491  Biso   1.000  C
  C170     1.0000 0.00018  0.52233  0.73409  Biso   1.000  C
  C171     1.0000 0.07825  0.61706  0.93352  Biso   1.000  C
  H165     1.0000 0.04030  0.64071  0.83483  Biso   1.000  H
  O40      1.0000 0.12193  0.57011  0.04560  Biso   1.000  O
  H166     1.0000 0.07939  0.74804  0.99920  Biso   1.000  H
  H167     1.0000 0.05589  0.78141  0.92309  Biso   1.000  H
  H168     1.0000 0.10997  0.85070  0.73210  Biso   1.000  H
  H169     1.0000 0.17247  0.92343  0.76854  Biso   1.000  H
  H170     1.0000 0.18827  0.80137  0.75029  Biso   1.000  H
  H171     1.0000 0.04208  0.56790  0.73020  Biso   1.000  H
  H172     1.0000 0.98650  0.48691  0.69121  Biso   1.000  H
  H173     1.0000 0.96020  0.56643  0.74630  Biso   1.000  H
  C172     1.0000 0.14159  0.48937  0.09610  Biso   1.000  C
  H174     1.0000 0.17511  0.43840  0.07903  Biso   1.000  H
  H175     1.0000 0.16460  0.52397  0.13653  Biso   1.000  H
  H176     1.0000 0.09860  0.45141  0.10704  Biso   1.000  H
