data_image0
_cell_length_a       14.476
_cell_length_b       13.924
_cell_length_c       27.551
_cell_angle_alpha    90
_cell_angle_beta     90.38
_cell_angle_gamma    90

_symmetry_space_group_name_H-M    "P 1"
_symmetry_int_tables_number       1

loop_
  _symmetry_equiv_pos_as_xyz
  'x, y, z'

loop_
  _atom_site_label
  _atom_site_occupancy
  _atom_site_fract_x
  _atom_site_fract_y
  _atom_site_fract_z
  _atom_site_thermal_displace_type
  _atom_site_B_iso_or_equiv
  _atom_site_type_symbol
  C1       1.0000 0.53698  0.50517  0.56540  Biso   1.000  C
  C2       1.0000 0.61498  0.45059  0.55549  Biso   1.000  C
  H1       1.0000 0.48754  0.47817  0.58340  Biso   1.000  H
  C3       1.0000 0.53118  0.59947  0.54899  Biso   1.000  C
  C4       1.0000 0.64983  0.49361  0.54729  Biso   1.000  C
  C5       1.0000 0.58525  0.43457  0.56950  Biso   1.000  C
  C6       1.0000 0.47674  0.56557  0.57092  Biso   1.000  C
  C7       1.0000 0.54133  0.62460  0.54870  Biso   1.000  C
  C8       1.0000 0.68719  0.49016  0.52921  Biso   1.000  C
  H2       1.0000 0.61886  0.38617  0.56671  Biso   1.000  H
  H3       1.0000 0.60026  0.36958  0.57662  Biso   1.000  H
  C9       1.0000 0.60345  0.63897  0.52271  Biso   1.000  C
  C10      1.0000 0.44755  0.64321  0.55640  Biso   1.000  C
  C11      1.0000 0.62794  0.58855  0.53691  Biso   1.000  C
  H4       1.0000 0.52639  0.68946  0.54159  Biso   1.000  H
  C12      1.0000 0.68145  0.58439  0.51281  Biso   1.000  C
  H5       1.0000 0.70907  0.46897  0.53919  Biso   1.000  H
  C13      1.0000 0.49877  0.47048  0.58130  Biso   1.000  C
  C14      1.0000 0.38134  0.60098  0.58170  Biso   1.000  C
  H6       1.0000 0.74043  0.45282  0.52250  Biso   1.000  H
  H7       1.0000 0.59944  0.70339  0.51150  Biso   1.000  H
  C15      1.0000 0.69168  0.65147  0.51299  Biso   1.000  C
  H8       1.0000 0.45187  0.70885  0.54290  Biso   1.000  H
  H9       1.0000 0.40108  0.60830  0.53669  Biso   1.000  H
  N1       1.0000 0.40977  0.65211  0.60620  Biso   1.000  N
  H10      1.0000 0.36187  0.64436  0.55502  Biso   1.000  H
  C16      1.0000 0.75014  0.62956  0.48152  Biso   1.000  C
  H11      1.0000 0.72389  0.61556  0.48711  Biso   1.000  H
  H12      1.0000 0.45455  0.43019  0.59651  Biso   1.000  H
  H13      1.0000 0.39588  0.59157  0.61749  Biso   1.000  H
  H14      1.0000 0.33885  0.54539  0.58141  Biso   1.000  H
  N2       1.0000 0.37023  0.65075  0.62649  Biso   1.000  N
  N3       1.0000 0.76613  0.69456  0.54979  Biso   1.000  N
  H15      1.0000 0.65708  0.70475  0.49760  Biso   1.000  H
  H16      1.0000 0.45506  0.67696  0.62620  Biso   1.000  H
  C17      1.0000 0.32395  0.71467  0.61041  Biso   1.000  C
  H17      1.0000 0.42045  0.69018  0.63139  Biso   1.000  H
  N4       1.0000 0.83366  0.66116  0.50950  Biso   1.000  N
  H18      1.0000 0.76909  0.58345  0.45611  Biso   1.000  H
  H19      1.0000 0.72209  0.68601  0.46518  Biso   1.000  H
  H20      1.0000 0.36923  0.60665  0.65139  Biso   1.000  H
  C18      1.0000 0.28543  0.70928  0.62848  Biso   1.000  C
  C19      1.0000 0.82343  0.74641  0.53600  Biso   1.000  C
  H21      1.0000 0.77407  0.73858  0.56039  Biso   1.000  H
  C20      1.0000 0.82444  0.74598  0.53418  Biso   1.000  C
  H22      1.0000 0.79506  0.64385  0.56500  Biso   1.000  H
  H23      1.0000 0.73479  0.72810  0.57331  Biso   1.000  H
  H24      1.0000 0.27723  0.69255  0.58649  Biso   1.000  H
  H25      1.0000 0.34043  0.78174  0.60221  Biso   1.000  H
  C21      1.0000 0.28217  0.71237  0.66061  Biso   1.000  C
  H26      1.0000 0.29758  0.77104  0.61201  Biso   1.000  H
  H27      1.0000 0.88168  0.66906  0.48809  Biso   1.000  H
  H28      1.0000 0.85003  0.61297  0.53070  Biso   1.000  H
  H29      1.0000 0.84262  0.71854  0.50250  Biso   1.000  H
  H30      1.0000 0.21484  0.70188  0.65691  Biso   1.000  H
  H31      1.0000 0.23656  0.67567  0.60979  Biso   1.000  H
  C22      1.0000 0.24984  0.72996  0.67661  Biso   1.000  C
  C23      1.0000 0.91313  0.76939  0.56090  Biso   1.000  C
  H32      1.0000 0.80574  0.79948  0.51389  Biso   1.000  H
  H33      1.0000 0.79403  0.80810  0.52722  Biso   1.000  H
  H34      1.0000 0.30774  0.65606  0.67799  Biso   1.000  H
  N5       1.0000 0.29793  0.80695  0.69451  Biso   1.000  N
  H35      1.0000 0.25812  0.67359  0.69810  Biso   1.000  H
  H36      1.0000 0.18308  0.74519  0.67469  Biso   1.000  H
  N6       1.0000 0.90236  0.85019  0.59429  Biso   1.000  N
  H37      1.0000 0.96028  0.78555  0.53629  Biso   1.000  H
  H38      1.0000 0.93505  0.71237  0.57908  Biso   1.000  H
  C24      1.0000 0.24158  0.89148  0.67941  Biso   1.000  C
  C25      1.0000 0.28601  0.79137  0.74601  Biso   1.000  C
  C26      1.0000 0.90983  0.94039  0.56740  Biso   1.000  C
  C27      1.0000 0.97454  0.84616  0.63190  Biso   1.000  C
  C28      1.0000 0.28044  0.98635  0.69280  Biso   1.000  C
  H39      1.0000 0.17966  0.88559  0.69411  Biso   1.000  H
  H40      1.0000 0.23333  0.88947  0.64369  Biso   1.000  H
  C29      1.0000 0.36033  0.72508  0.76710  Biso   1.000  C
  H41      1.0000 0.28837  0.85399  0.76300  Biso   1.000  H
  H42      1.0000 0.22447  0.76264  0.75171  Biso   1.000  H
  H43      1.0000 0.97578  0.95246  0.56021  Biso   1.000  H
  H44      1.0000 0.87662  0.93357  0.53600  Biso   1.000  H
  C30      1.0000 0.87182  0.02499  0.59389  Biso   1.000  C
  H45      1.0000 0.98116  0.91044  0.64689  Biso   1.000  H
  C31      1.0000 0.95397  0.77384  0.67110  Biso   1.000  C
  H46      1.0000 0.03403  0.82957  0.61662  Biso   1.000  H
  H47      1.0000 0.29732  0.98635  0.72768  Biso   1.000  H
  N7       1.0000 0.36427  0.00891  0.66318  Biso   1.000  N
  H48      1.0000 0.23312  0.03670  0.68750  Biso   1.000  H
  N8       1.0000 0.45276  0.77406  0.76714  Biso   1.000  N
  H49      1.0000 0.36368  0.66554  0.74761  Biso   1.000  H
  H50      1.0000 0.34383  0.70727  0.80079  Biso   1.000  H
  H51      1.0000 0.89932  0.02729  0.62689  Biso   1.000  H
  H52      1.0000 0.88977  0.08453  0.57669  Biso   1.000  H
  N9       1.0000 0.76805  0.02147  0.59800  Biso   1.000  N
  H53      1.0000 0.94736  0.70935  0.65640  Biso   1.000  H
  N10      1.0000 0.86643  0.79898  0.69774  Biso   1.000  N
  H54      1.0000 0.00614  0.77169  0.69440  Biso   1.000  H
  H55      1.0000 0.41052  0.96646  0.67121  Biso   1.000  H
  C32      1.0000 0.39884  0.11010  0.67081  Biso   1.000  C
  H56      1.0000 0.35019  0.00043  0.63092  Biso   1.000  H
  C33      1.0000 0.52712  0.70411  0.78050  Biso   1.000  C
  H57      1.0000 0.45255  0.82397  0.78899  Biso   1.000  H
  H58      1.0000 0.46412  0.79898  0.73680  Biso   1.000  H
  H59      1.0000 0.75143  0.96955  0.61669  Biso   1.000  H
  H60      1.0000 0.74245  0.01357  0.56761  Biso   1.000  H
  C34      1.0000 0.73158  0.11110  0.62032  Biso   1.000  C
  H61      1.0000 0.81597  0.78318  0.67890  Biso   1.000  H
  H62      1.0000 0.86471  0.86405  0.70351  Biso   1.000  H
  C35      1.0000 0.86254  0.74540  0.74522  Biso   1.000  C
  C36      1.0000 0.47063  0.13078  0.63378  Biso   1.000  C
  H63      1.0000 0.42537  0.11692  0.70380  Biso   1.000  H
  H64      1.0000 0.34712  0.15621  0.66740  Biso   1.000  H
  C37      1.0000 0.61804  0.75244  0.79226  Biso   1.000  C
  H65      1.0000 0.50703  0.66640  0.80899  Biso   1.000  H
  H66      1.0000 0.53617  0.65886  0.75320  Biso   1.000  H
  H67      1.0000 0.74087  0.10801  0.65589  Biso   1.000  H
  H68      1.0000 0.76714  0.16662  0.60801  Biso   1.000  H
  C38      1.0000 0.63114  0.12676  0.60961  Biso   1.000  C
  H69      1.0000 0.91936  0.75926  0.76409  Biso   1.000  H
  H70      1.0000 0.86121  0.67560  0.73839  Biso   1.000  H
  C39      1.0000 0.78051  0.77104  0.77502  Biso   1.000  C
  C40      1.0000 0.44587  0.16059  0.58761  Biso   1.000  C
  C41      1.0000 0.56408  0.11390  0.64402  Biso   1.000  C
  C42      1.0000 0.62886  0.80868  0.83371  Biso   1.000  C
  C43      1.0000 0.69435  0.73427  0.76297  Biso   1.000  C
  C44      1.0000 0.60485  0.15570  0.56290  Biso   1.000  C
  C45      1.0000 0.78966  0.82785  0.81600  Biso   1.000  C
  C46      1.0000 0.51298  0.17057  0.55212  Biso   1.000  C
  H71      1.0000 0.38305  0.17430  0.58021  Biso   1.000  H
  H72      1.0000 0.58155  0.09300  0.67560  Biso   1.000  H
  C47      1.0000 0.71404  0.84638  0.84489  Biso   1.000  C
  H73      1.0000 0.57751  0.82088  0.85411  Biso   1.000  H
  H74      1.0000 0.68722  0.69628  0.73451  Biso   1.000  H
  H75      1.0000 0.65028  0.16497  0.53861  Biso   1.000  H
  H76      1.0000 0.84814  0.85428  0.82431  Biso   1.000  H
  H77      1.0000 0.49517  0.18788  0.51999  Biso   1.000  H
  H78      1.0000 0.72102  0.88559  0.87291  Biso   1.000  H
  C48      1.0000 0.46293  0.49476  0.43459  Biso   1.000  C
  C49      1.0000 0.46873  0.40046  0.45099  Biso   1.000  C
  C50      1.0000 0.52317  0.43436  0.42910  Biso   1.000  C
  C51      1.0000 0.45858  0.37540  0.45132  Biso   1.000  C
  C52      1.0000 0.35008  0.50639  0.45270  Biso   1.000  C
  H79      1.0000 0.51237  0.52176  0.41662  Biso   1.000  H
  C53      1.0000 0.38500  0.54941  0.44449  Biso   1.000  C
  C54      1.0000 0.41466  0.56535  0.43048  Biso   1.000  C
  C55      1.0000 0.55237  0.35679  0.44359  Biso   1.000  C
  C56      1.0000 0.39646  0.36096  0.47731  Biso   1.000  C
  C57      1.0000 0.37197  0.41138  0.46311  Biso   1.000  C
  H80      1.0000 0.47359  0.31047  0.45840  Biso   1.000  H
  C58      1.0000 0.61857  0.39895  0.41829  Biso   1.000  C
  C59      1.0000 0.50114  0.52945  0.41869  Biso   1.000  C
  C60      1.0000 0.31846  0.41561  0.48722  Biso   1.000  C
  H81      1.0000 0.29084  0.53095  0.46079  Biso   1.000  H
  C61      1.0000 0.31280  0.50977  0.47081  Biso   1.000  C
  H82      1.0000 0.38106  0.61376  0.43332  Biso   1.000  H
  H83      1.0000 0.39965  0.63035  0.42341  Biso   1.000  H
  N11      1.0000 0.59015  0.34789  0.39379  Biso   1.000  N
  H84      1.0000 0.54805  0.29108  0.45709  Biso   1.000  H
  H85      1.0000 0.59883  0.39170  0.46330  Biso   1.000  H
  H86      1.0000 0.63804  0.35557  0.44500  Biso   1.000  H
  C62      1.0000 0.30823  0.34846  0.48700  Biso   1.000  C
  H87      1.0000 0.40047  0.29661  0.48849  Biso   1.000  H
  N12      1.0000 0.62968  0.34918  0.37350  Biso   1.000  N
  H88      1.0000 0.60410  0.40836  0.38250  Biso   1.000  H
  H89      1.0000 0.66106  0.45461  0.41861  Biso   1.000  H
  H90      1.0000 0.54537  0.56981  0.40352  Biso   1.000  H
  C63      1.0000 0.24978  0.37037  0.51850  Biso   1.000  C
  H91      1.0000 0.27609  0.38437  0.51291  Biso   1.000  H
  H92      1.0000 0.25948  0.54718  0.47749  Biso   1.000  H
  C64      1.0000 0.67596  0.28526  0.38961  Biso   1.000  C
  H93      1.0000 0.54485  0.32297  0.37379  Biso   1.000  H
  H94      1.0000 0.57947  0.30982  0.36860  Biso   1.000  H
  N13      1.0000 0.23378  0.30537  0.45019  Biso   1.000  N
  H95      1.0000 0.34283  0.29517  0.50239  Biso   1.000  H
  C65      1.0000 0.71448  0.29072  0.37150  Biso   1.000  C
  H96      1.0000 0.63068  0.39328  0.34860  Biso   1.000  H
  N14      1.0000 0.16625  0.33877  0.49052  Biso   1.000  N
  H97      1.0000 0.23089  0.41648  0.54391  Biso   1.000  H
  H98      1.0000 0.27789  0.31399  0.53480  Biso   1.000  H
  C66      1.0000 0.71774  0.28756  0.33941  Biso   1.000  C
  H99      1.0000 0.72268  0.30738  0.41350  Biso   1.000  H
  H100     1.0000 0.65948  0.21818  0.39782  Biso   1.000  H
  H101     1.0000 0.70240  0.22889  0.38802  Biso   1.000  H
  C67      1.0000 0.17648  0.25359  0.46399  Biso   1.000  C
  C68      1.0000 0.17547  0.25402  0.46580  Biso   1.000  C
  H102     1.0000 0.22584  0.26142  0.43959  Biso   1.000  H
  H103     1.0000 0.20486  0.35608  0.43498  Biso   1.000  H
  H104     1.0000 0.26520  0.27190  0.42671  Biso   1.000  H
  C69      1.0000 0.75008  0.26997  0.32341  Biso   1.000  C
  H105     1.0000 0.78507  0.29812  0.34312  Biso   1.000  H
  H106     1.0000 0.76335  0.32426  0.39019  Biso   1.000  H
  H107     1.0000 0.15729  0.28138  0.49749  Biso   1.000  H
  H108     1.0000 0.11823  0.33087  0.51190  Biso   1.000  H
  H109     1.0000 0.14989  0.38696  0.46929  Biso   1.000  H
  N15      1.0000 0.70198  0.19298  0.30551  Biso   1.000  N
  H110     1.0000 0.69217  0.34387  0.32199  Biso   1.000  H
  H111     1.0000 0.74179  0.32641  0.30188  Biso   1.000  H
  C70      1.0000 0.08678  0.23061  0.43909  Biso   1.000  C
  H112     1.0000 0.19417  0.20052  0.48609  Biso   1.000  H
  H113     1.0000 0.20589  0.19190  0.47281  Biso   1.000  H
  H114     1.0000 0.81690  0.25481  0.32529  Biso   1.000  H
  C71      1.0000 0.71390  0.20856  0.25401  Biso   1.000  C
  C72      1.0000 0.75840  0.10852  0.32061  Biso   1.000  C
  N16      1.0000 0.09755  0.14981  0.40569  Biso   1.000  N
  H115     1.0000 0.03970  0.21438  0.46370  Biso   1.000  H
  H116     1.0000 0.06486  0.28756  0.42090  Biso   1.000  H
  C73      1.0000 0.63958  0.27492  0.23292  Biso   1.000  C
  H117     1.0000 0.71154  0.14601  0.23698  Biso   1.000  H
  H118     1.0000 0.77545  0.23729  0.24831  Biso   1.000  H
  C74      1.0000 0.71948  0.01357  0.30722  Biso   1.000  C
  H119     1.0000 0.82025  0.11441  0.30591  Biso   1.000  H
  H120     1.0000 0.76659  0.11053  0.35629  Biso   1.000  H
  C75      1.0000 0.02537  0.15376  0.36809  Biso   1.000  C
  C76      1.0000 0.09008  0.05961  0.43259  Biso   1.000  C
  N17      1.0000 0.54715  0.22587  0.23285  Biso   1.000  N
  H121     1.0000 0.63630  0.33439  0.25241  Biso   1.000  H
  H122     1.0000 0.65608  0.29266  0.19920  Biso   1.000  H
  H123     1.0000 0.70259  0.01357  0.27230  Biso   1.000  H
  N18      1.0000 0.63564  0.99109  0.33680  Biso   1.000  N
  H124     1.0000 0.76679  0.96330  0.31252  Biso   1.000  H
  C77      1.0000 0.04594  0.22608  0.32889  Biso   1.000  C
  H125     1.0000 0.01876  0.08949  0.35310  Biso   1.000  H
  H126     1.0000 0.96588  0.17043  0.38341  Biso   1.000  H
  H127     1.0000 0.02420  0.04747  0.43981  Biso   1.000  H
  H128     1.0000 0.12329  0.06643  0.46399  Biso   1.000  H
  C78      1.0000 0.12809  0.97494  0.40609  Biso   1.000  C
  C79      1.0000 0.47279  0.29589  0.21949  Biso   1.000  C
  H129     1.0000 0.54736  0.17603  0.21100  Biso   1.000  H
  H130     1.0000 0.53579  0.20102  0.26319  Biso   1.000  H
  H131     1.0000 0.58940  0.03347  0.32882  Biso   1.000  H
  C80      1.0000 0.60107  0.88990  0.32921  Biso   1.000  C
  H132     1.0000 0.64980  0.99957  0.36911  Biso   1.000  H
  N19      1.0000 0.13348  0.20102  0.30225  Biso   1.000  N
  H133     1.0000 0.05255  0.29058  0.34359  Biso   1.000  H
  H134     1.0000 0.99377  0.22831  0.30559  Biso   1.000  H
  H135     1.0000 0.10059  0.97264  0.37310  Biso   1.000  H
  H136     1.0000 0.11014  0.91547  0.42330  Biso   1.000  H
  N20      1.0000 0.23186  0.97845  0.40199  Biso   1.000  N
  C81      1.0000 0.38187  0.24749  0.20776  Biso   1.000  C
  H137     1.0000 0.49288  0.33360  0.19100  Biso   1.000  H
  H138     1.0000 0.46381  0.34107  0.24678  Biso   1.000  H
  C82      1.0000 0.52928  0.86915  0.36620  Biso   1.000  C
  H139     1.0000 0.57455  0.88308  0.29618  Biso   1.000  H
  H140     1.0000 0.65279  0.84379  0.33259  Biso   1.000  H
  C83      1.0000 0.13737  0.25460  0.25481  Biso   1.000  C
  H141     1.0000 0.18401  0.21682  0.32108  Biso   1.000  H
  H142     1.0000 0.13520  0.13588  0.29651  Biso   1.000  H
  H143     1.0000 0.24848  0.03038  0.38330  Biso   1.000  H
  H144     1.0000 0.25746  0.98635  0.43241  Biso   1.000  H
  C84      1.0000 0.26840  0.88890  0.37970  Biso   1.000  C
  C85      1.0000 0.30556  0.26566  0.23702  Biso   1.000  C
  C86      1.0000 0.37105  0.19132  0.16631  Biso   1.000  C
  C87      1.0000 0.43590  0.88610  0.35600  Biso   1.000  C
  C88      1.0000 0.55405  0.83934  0.41241  Biso   1.000  C
  C89      1.0000 0.21941  0.22889  0.22501  Biso   1.000  C
  H145     1.0000 0.08055  0.24066  0.23589  Biso   1.000  H
  H146     1.0000 0.13870  0.32440  0.26159  Biso   1.000  H
  H147     1.0000 0.25904  0.89199  0.34410  Biso   1.000  H
  H148     1.0000 0.23277  0.83338  0.39201  Biso   1.000  H
  C90      1.0000 0.36877  0.87317  0.39041  Biso   1.000  C
  H149     1.0000 0.31269  0.30372  0.26551  Biso   1.000  H
  C91      1.0000 0.28588  0.15362  0.15510  Biso   1.000  C
  H150     1.0000 0.42240  0.17912  0.14591  Biso   1.000  H
  H151     1.0000 0.41837  0.90700  0.32439  Biso   1.000  H
  C92      1.0000 0.48693  0.82936  0.44791  Biso   1.000  C
  H152     1.0000 0.61686  0.82570  0.41981  Biso   1.000  H
  C93      1.0000 0.21025  0.17208  0.18399  Biso   1.000  C
  C94      1.0000 0.39506  0.84430  0.43709  Biso   1.000  C
  H153     1.0000 0.27889  0.11441  0.12711  Biso   1.000  H
  H154     1.0000 0.50475  0.81205  0.47999  Biso   1.000  H
  H155     1.0000 0.15178  0.14572  0.17571  Biso   1.000  H
  H156     1.0000 0.34963  0.83496  0.46141  Biso   1.000  H
  C95      1.0000 0.78583  0.34638  0.65509  Biso   1.000  C
  C96      1.0000 0.71028  0.32792  0.68402  Biso   1.000  C
  H157     1.0000 0.77885  0.38559  0.62711  Biso   1.000  H
  C97      1.0000 0.87101  0.30868  0.66631  Biso   1.000  C
  C98      1.0000 0.71936  0.27111  0.72500  Biso   1.000  C
  H158     1.0000 0.65173  0.35428  0.67571  Biso   1.000  H
  H159     1.0000 0.92236  0.32088  0.64591  Biso   1.000  H
  C99      1.0000 0.88183  0.25251  0.70776  Biso   1.000  C
  C100     1.0000 0.63733  0.24540  0.75480  Biso   1.000  C
  C101     1.0000 0.80552  0.23427  0.73705  Biso   1.000  C
  C102     1.0000 0.97275  0.20411  0.71952  Biso   1.000  C
  N21      1.0000 0.63343  0.29898  0.80228  Biso   1.000  N
  H160     1.0000 0.58051  0.25926  0.73589  Biso   1.000  H
  H161     1.0000 0.63865  0.17560  0.76159  Biso   1.000  H
  H162     1.0000 0.81265  0.19628  0.76551  Biso   1.000  H
  H163     1.0000 0.99283  0.16640  0.69099  Biso   1.000  H
  H164     1.0000 0.96376  0.15886  0.74681  Biso   1.000  H
  N22      1.0000 0.04718  0.27406  0.73284  Biso   1.000  N
  C103     1.0000 0.54597  0.27392  0.82892  Biso   1.000  C
  H165     1.0000 0.68396  0.28318  0.82111  Biso   1.000  H
  H166     1.0000 0.63516  0.36412  0.79650  Biso   1.000  H
  H167     1.0000 0.04738  0.32397  0.71099  Biso   1.000  H
  H168     1.0000 0.03575  0.29898  0.76322  Biso   1.000  H
  C104     1.0000 0.13954  0.22508  0.73291  Biso   1.000  C
  C105     1.0000 0.52533  0.34616  0.86812  Biso   1.000  C
  H169     1.0000 0.55251  0.20942  0.84362  Biso   1.000  H
  H170     1.0000 0.49373  0.27169  0.80561  Biso   1.000  H
  H171     1.0000 0.13626  0.16561  0.75240  Biso   1.000  H
  H172     1.0000 0.15603  0.20727  0.69919  Biso   1.000  H
  C106     1.0000 0.21386  0.29137  0.75400  Biso   1.000  C
  N23      1.0000 0.59751  0.35019  0.90569  Biso   1.000  N
  H173     1.0000 0.46583  0.32957  0.88340  Biso   1.000  H
  H174     1.0000 0.51871  0.41051  0.85309  Biso   1.000  H
  H175     1.0000 0.21157  0.35399  0.73701  Biso   1.000  H
  H176     1.0000 0.27547  0.26271  0.74830  Biso   1.000  H
  N24      1.0000 0.20193  0.30702  0.80551  Biso   1.000  N
  C107     1.0000 0.59004  0.44039  0.93262  Biso   1.000  C
  C108     1.0000 0.58674  0.26939  0.93912  Biso   1.000  C
  C109     1.0000 0.25835  0.39148  0.82061  Biso   1.000  C
  C110     1.0000 0.21777  0.21237  0.83941  Biso   1.000  C
  C111     1.0000 0.25003  0.22996  0.82340  Biso   1.000  C
  H177     1.0000 0.52416  0.45246  0.93981  Biso   1.000  H
  H178     1.0000 0.62325  0.43357  0.96402  Biso   1.000  H
  C112     1.0000 0.62804  0.52499  0.90609  Biso   1.000  C
  H179     1.0000 0.53966  0.28562  0.96369  Biso   1.000  H
  H180     1.0000 0.56482  0.21237  0.92089  Biso   1.000  H
  C113     1.0000 0.67644  0.24641  0.96402  Biso   1.000  C
  C114     1.0000 0.67543  0.24598  0.96579  Biso   1.000  C
  C115     1.0000 0.21943  0.48635  0.80721  Biso   1.000  C
  H181     1.0000 0.32027  0.38559  0.80590  Biso   1.000  H
  H182     1.0000 0.26654  0.38947  0.85629  Biso   1.000  H
  C116     1.0000 0.17592  0.21467  0.88961  Biso   1.000  C
  H183     1.0000 0.28503  0.20188  0.84311  Biso   1.000  H
  H184     1.0000 0.19213  0.15606  0.82202  Biso   1.000  H
  H185     1.0000 0.24175  0.17359  0.80191  Biso   1.000  H
  C117     1.0000 0.21444  0.20928  0.87149  Biso   1.000  C
  H186     1.0000 0.31686  0.24519  0.82529  Biso   1.000  H
  H187     1.0000 0.60055  0.52729  0.87309  Biso   1.000  H
  H188     1.0000 0.61016  0.58446  0.92329  Biso   1.000  H
  N25      1.0000 0.73182  0.52147  0.90202  Biso   1.000  N
  H189     1.0000 0.69413  0.29948  0.98612  Biso   1.000  H
  N26      1.0000 0.66621  0.16116  0.99051  Biso   1.000  N
  H190     1.0000 0.72580  0.23858  0.93959  Biso   1.000  H
  H191     1.0000 0.65724  0.21862  0.99752  Biso   1.000  H
  H192     1.0000 0.70584  0.30810  0.97280  Biso   1.000  H
  N27      1.0000 0.73374  0.19463  0.95019  Biso   1.000  N
  N28      1.0000 0.13567  0.50891  0.83683  Biso   1.000  N
  H193     1.0000 0.26675  0.53670  0.81251  Biso   1.000  H
  H194     1.0000 0.20255  0.48635  0.77229  Biso   1.000  H
  N29      1.0000 0.09017  0.15211  0.89382  Biso   1.000  N
  H195     1.0000 0.22264  0.19262  0.91349  Biso   1.000  H
  H196     1.0000 0.15944  0.28182  0.89781  Biso   1.000  H
  N30      1.0000 0.12964  0.15082  0.87349  Biso   1.000  N
  H197     1.0000 0.20235  0.27111  0.88801  Biso   1.000  H
  H198     1.0000 0.26331  0.17567  0.89019  Biso   1.000  H
  H199     1.0000 0.74844  0.46955  0.88329  Biso   1.000  H
  H200     1.0000 0.75742  0.51357  0.93240  Biso   1.000  H
  C118     1.0000 0.76836  0.61110  0.87970  Biso   1.000  C
  H201     1.0000 0.64984  0.11297  0.96931  Biso   1.000  H
  H202     1.0000 0.61826  0.16906  0.01189  Biso   1.000  H
  C119     1.0000 0.74980  0.12956  0.01850  Biso   1.000  C
  H203     1.0000 0.70481  0.14392  0.93501  Biso   1.000  H
  H204     1.0000 0.76515  0.22810  0.92670  Biso   1.000  H
  C120     1.0000 0.80819  0.15147  0.98699  Biso   1.000  C
  C121     1.0000 0.10103  0.61010  0.82921  Biso   1.000  C
  H205     1.0000 0.08935  0.46646  0.82881  Biso   1.000  H
  H206     1.0000 0.14975  0.50036  0.86910  Biso   1.000  H
  C122     1.0000 0.05232  0.14321  0.94362  Biso   1.000  C
  H207     1.0000 0.10405  0.09157  0.88249  Biso   1.000  H
  H208     1.0000 0.04481  0.17696  0.87382  Biso   1.000  H
  C123     1.0000 0.11853  0.10098  0.91832  Biso   1.000  C
  H209     1.0000 0.07942  0.19018  0.86859  Biso   1.000  H
  H210     1.0000 0.13063  0.10672  0.84859  Biso   1.000  H
  H211     1.0000 0.75907  0.60794  0.84409  Biso   1.000  H
  H212     1.0000 0.73273  0.66655  0.89200  Biso   1.000  H
  C124     1.0000 0.86873  0.62676  0.89040  Biso   1.000  C
  C125     1.0000 0.81842  0.08439  0.98721  Biso   1.000  C
  H213     1.0000 0.73085  0.08352  0.04387  Biso   1.000  H
  H214     1.0000 0.77784  0.18601  0.03479  Biso   1.000  H
  C126     1.0000 0.89642  0.13897  0.97730  Biso   1.000  C
  C127     1.0000 0.87192  0.08862  0.96311  Biso   1.000  C
  H215     1.0000 0.77605  0.11563  0.01287  Biso   1.000  H
  H216     1.0000 0.84285  0.20483  0.00238  Biso   1.000  H
  C128     1.0000 0.02924  0.63078  0.86619  Biso   1.000  C
  H217     1.0000 0.07457  0.61685  0.79621  Biso   1.000  H
  H218     1.0000 0.15275  0.65621  0.83262  Biso   1.000  H
  C129     1.0000 0.96869  0.09947  0.95102  Biso   1.000  C
  C130     1.0000 0.95854  0.12460  0.95131  Biso   1.000  C
  H219     1.0000 0.04800  0.20892  0.95712  Biso   1.000  H
  H220     1.0000 0.09885  0.10830  0.96329  Biso   1.000  H
  C131     1.0000 0.02313  0.06557  0.92910  Biso   1.000  C
  H221     1.0000 0.13807  0.14443  0.94500  Biso   1.000  H
  H222     1.0000 0.16101  0.04539  0.91861  Biso   1.000  H
  C132     1.0000 0.89501  0.65570  0.93712  Biso   1.000  C
  C133     1.0000 0.93585  0.61390  0.85600  Biso   1.000  C
  C134     1.0000 0.81275  0.99016  0.97080  Biso   1.000  C
  C135     1.0000 0.85003  0.99354  0.95269  Biso   1.000  C
  H223     1.0000 0.90043  0.20339  0.98852  Biso   1.000  H
  C136     1.0000 0.05407  0.66059  0.91240  Biso   1.000  C
  C137     1.0000 0.96296  0.00517  0.93461  Biso   1.000  C
  H224     1.0000 0.97355  0.18953  0.95839  Biso   1.000  H
  H225     1.0000 0.01233  0.97817  0.91661  Biso   1.000  H
  C138     1.0000 0.00117  0.97048  0.91872  Biso   1.000  C
  H226     1.0000 0.84959  0.66497  0.96140  Biso   1.000  H
  C139     1.0000 0.98689  0.67057  0.94790  Biso   1.000  C
  H227     1.0000 0.91832  0.59300  0.82442  Biso   1.000  H
  H228     1.0000 0.75944  0.95274  0.97752  Biso   1.000  H
  C140     1.0000 0.88495  0.95059  0.94449  Biso   1.000  C
  H229     1.0000 0.79080  0.96897  0.96082  Biso   1.000  H
  C141     1.0000 0.91462  0.93457  0.93051  Biso   1.000  C
  H230     1.0000 0.11682  0.67430  0.91981  Biso   1.000  H
  H231     1.0000 0.04532  0.93019  0.90351  Biso   1.000  H
  H232     1.0000 0.00470  0.68788  0.97999  Biso   1.000  H
  H233     1.0000 0.88101  0.88617  0.93331  Biso   1.000  H
  H234     1.0000 0.89961  0.86958  0.92340  Biso   1.000  H
  C142     1.0000 0.21408  0.65355  0.34490  Biso   1.000  C
  C143     1.0000 0.28970  0.67208  0.31600  Biso   1.000  C
  H235     1.0000 0.22107  0.61441  0.37292  Biso   1.000  H
  C144     1.0000 0.12890  0.69125  0.33372  Biso   1.000  C
  C145     1.0000 0.28055  0.72889  0.27499  Biso   1.000  C
  H236     1.0000 0.34818  0.64565  0.32431  Biso   1.000  H
  C146     1.0000 0.11808  0.74749  0.29223  Biso   1.000  C
  H237     1.0000 0.07756  0.67904  0.35411  Biso   1.000  H
  C147     1.0000 0.36259  0.75460  0.24519  Biso   1.000  C
  C148     1.0000 0.19439  0.76566  0.26297  Biso   1.000  C
  C149     1.0000 0.02717  0.79589  0.28050  Biso   1.000  C
  N31      1.0000 0.36648  0.70095  0.19775  Biso   1.000  N
  H238     1.0000 0.41940  0.74066  0.26410  Biso   1.000  H
  H239     1.0000 0.36126  0.82440  0.23840  Biso   1.000  H
  H240     1.0000 0.18727  0.80365  0.23452  Biso   1.000  H
  N32      1.0000 0.95274  0.72587  0.26715  Biso   1.000  N
  H241     1.0000 0.00708  0.83360  0.30900  Biso   1.000  H
  H242     1.0000 0.03622  0.84107  0.25321  Biso   1.000  H
  C150     1.0000 0.45401  0.72608  0.17110  Biso   1.000  C
  H243     1.0000 0.31595  0.71675  0.17891  Biso   1.000  H
  H244     1.0000 0.36475  0.63588  0.20352  Biso   1.000  H
  C151     1.0000 0.86038  0.77485  0.26711  Biso   1.000  C
  H245     1.0000 0.95260  0.67596  0.28900  Biso   1.000  H
  H246     1.0000 0.96417  0.70095  0.23680  Biso   1.000  H
  C152     1.0000 0.47459  0.65376  0.13190  Biso   1.000  C
  H247     1.0000 0.44740  0.79058  0.15640  Biso   1.000  H
  H248     1.0000 0.50618  0.72824  0.19441  Biso   1.000  H
  C153     1.0000 0.78606  0.70856  0.24599  Biso   1.000  C
  H249     1.0000 0.86365  0.83439  0.24762  Biso   1.000  H
  H250     1.0000 0.84388  0.79266  0.30079  Biso   1.000  H
  N33      1.0000 0.40241  0.64974  0.09430  Biso   1.000  N
  H251     1.0000 0.53408  0.67035  0.11659  Biso   1.000  H
  H252     1.0000 0.48120  0.58949  0.14689  Biso   1.000  H
  N34      1.0000 0.79798  0.69298  0.19452  Biso   1.000  N
  H253     1.0000 0.78834  0.64601  0.26301  Biso   1.000  H
  H254     1.0000 0.72444  0.73729  0.25168  Biso   1.000  H
  C154     1.0000 0.40987  0.55961  0.06740  Biso   1.000  C
  C155     1.0000 0.41318  0.73061  0.06091  Biso   1.000  C
  C156     1.0000 0.74156  0.60845  0.17942  Biso   1.000  C
  C157     1.0000 0.78215  0.78756  0.16061  Biso   1.000  C
  C158     1.0000 0.74988  0.76997  0.17659  Biso   1.000  C
  C159     1.0000 0.37187  0.47501  0.09390  Biso   1.000  C
  H255     1.0000 0.47582  0.54747  0.06022  Biso   1.000  H
  H256     1.0000 0.37666  0.56636  0.03601  Biso   1.000  H
  H257     1.0000 0.46032  0.71438  0.03630  Biso   1.000  H
  H258     1.0000 0.43510  0.78756  0.07909  Biso   1.000  H
  C160     1.0000 0.32347  0.75359  0.03601  Biso   1.000  C
  C161     1.0000 0.32449  0.75395  0.03419  Biso   1.000  C
  C162     1.0000 0.78048  0.51357  0.19281  Biso   1.000  C
  H259     1.0000 0.67971  0.61441  0.19412  Biso   1.000  H
  H260     1.0000 0.73337  0.61046  0.14370  Biso   1.000  H
  C163     1.0000 0.82400  0.78526  0.11042  Biso   1.000  C
  H261     1.0000 0.71488  0.79805  0.15691  Biso   1.000  H
  H262     1.0000 0.80779  0.84387  0.17800  Biso   1.000  H
  H263     1.0000 0.75817  0.82634  0.19811  Biso   1.000  H
  C164     1.0000 0.78547  0.79065  0.12849  Biso   1.000  C
  H264     1.0000 0.68306  0.75474  0.17470  Biso   1.000  H
  N35      1.0000 0.26809  0.47845  0.09800  Biso   1.000  N
  H265     1.0000 0.39936  0.47271  0.12689  Biso   1.000  H
  H266     1.0000 0.38982  0.41547  0.07670  Biso   1.000  H
  H267     1.0000 0.30578  0.70045  0.01390  Biso   1.000  H
  N36      1.0000 0.33371  0.83877  0.00951  Biso   1.000  N
  H268     1.0000 0.27411  0.76135  0.06040  Biso   1.000  H
  H269     1.0000 0.34267  0.78138  0.00250  Biso   1.000  H
  H270     1.0000 0.29407  0.69190  0.02719  Biso   1.000  H
  N37      1.0000 0.26617  0.80537  0.04980  Biso   1.000  N
  N38      1.0000 0.86425  0.49109  0.16319  Biso   1.000  N
  H271     1.0000 0.73316  0.46330  0.18751  Biso   1.000  H
  H272     1.0000 0.79736  0.51357  0.22769  Biso   1.000  H
  N39      1.0000 0.90981  0.84789  0.10621  Biso   1.000  N
  H273     1.0000 0.77727  0.80738  0.08650  Biso   1.000  H
  H274     1.0000 0.84047  0.71818  0.10221  Biso   1.000  H
  N40      1.0000 0.87028  0.84918  0.12650  Biso   1.000  N
  H275     1.0000 0.79756  0.72889  0.11201  Biso   1.000  H
  H276     1.0000 0.73660  0.82426  0.10980  Biso   1.000  H
  C165     1.0000 0.23155  0.38890  0.12029  Biso   1.000  C
  H277     1.0000 0.25147  0.53038  0.11670  Biso   1.000  H
  H278     1.0000 0.24249  0.48635  0.06759  Biso   1.000  H
  H279     1.0000 0.35007  0.88696  0.03071  Biso   1.000  H
  H280     1.0000 0.38165  0.83087  0.98813  Biso   1.000  H
  C166     1.0000 0.25018  0.87037  0.98152  Biso   1.000  C
  H281     1.0000 0.29510  0.85608  0.06501  Biso   1.000  H
  H282     1.0000 0.23476  0.77190  0.07328  Biso   1.000  H
  C167     1.0000 0.19172  0.84846  0.01299  Biso   1.000  C
  C168     1.0000 0.89888  0.38990  0.17081  Biso   1.000  C
  H283     1.0000 0.91056  0.53347  0.17121  Biso   1.000  H
  H284     1.0000 0.85016  0.49957  0.13089  Biso   1.000  H
  C169     1.0000 0.94759  0.85679  0.05641  Biso   1.000  C
  C170     1.0000 0.88139  0.89895  0.08170  Biso   1.000  C
  H285     1.0000 0.89586  0.90836  0.11749  Biso   1.000  H
  H286     1.0000 0.95510  0.82297  0.12621  Biso   1.000  H
  H287     1.0000 0.92049  0.80975  0.13140  Biso   1.000  H
  H288     1.0000 0.86928  0.89328  0.15140  Biso   1.000  H
  H289     1.0000 0.24092  0.39199  0.15590  Biso   1.000  H
  H290     1.0000 0.26718  0.33338  0.10798  Biso   1.000  H
  C171     1.0000 0.13118  0.37317  0.10962  Biso   1.000  C
  C172     1.0000 0.18150  0.91554  0.01281  Biso   1.000  C
  H291     1.0000 0.26906  0.91648  0.95612  Biso   1.000  H
  H292     1.0000 0.22207  0.81399  0.96523  Biso   1.000  H
  C173     1.0000 0.10349  0.86096  0.02269  Biso   1.000  C
  C174     1.0000 0.12799  0.91138  0.03691  Biso   1.000  C
  H293     1.0000 0.22386  0.88437  0.98711  Biso   1.000  H
  H294     1.0000 0.15706  0.79517  0.99760  Biso   1.000  H
  C175     1.0000 0.97067  0.36922  0.13379  Biso   1.000  C
  H295     1.0000 0.92534  0.38308  0.20381  Biso   1.000  H
  H296     1.0000 0.84717  0.34379  0.16740  Biso   1.000  H
  C176     1.0000 0.03122  0.90046  0.04900  Biso   1.000  C
  C177     1.0000 0.04137  0.87540  0.04871  Biso   1.000  C
  C178     1.0000 0.97679  0.93436  0.07089  Biso   1.000  C
  H297     1.0000 0.95191  0.79108  0.04290  Biso   1.000  H
  H298     1.0000 0.90106  0.89170  0.03670  Biso   1.000  H
  H299     1.0000 0.86191  0.85557  0.05499  Biso   1.000  H
  H300     1.0000 0.83890  0.95454  0.08141  Biso   1.000  H
  C179     1.0000 0.10490  0.34430  0.06290  Biso   1.000  C
  C180     1.0000 0.06406  0.38610  0.14399  Biso   1.000  C
  C181     1.0000 0.18723  0.00977  0.02918  Biso   1.000  C
  C182     1.0000 0.14988  0.00639  0.04730  Biso   1.000  C
  H301     1.0000 0.09948  0.79654  0.01151  Biso   1.000  H
  C183     1.0000 0.94591  0.33941  0.08758  Biso   1.000  C
  C184     1.0000 0.03702  0.99476  0.06541  Biso   1.000  C
  H302     1.0000 0.02643  0.81047  0.04160  Biso   1.000  H
  H303     1.0000 0.98758  0.02183  0.08341  Biso   1.000  H
  C185     1.0000 0.99875  0.02952  0.08131  Biso   1.000  C
  H304     1.0000 0.15032  0.33496  0.03858  Biso   1.000  H
  C186     1.0000 0.01302  0.32936  0.05209  Biso   1.000  C
  H305     1.0000 0.08159  0.40700  0.17561  Biso   1.000  H
  H306     1.0000 0.24047  0.04718  0.02250  Biso   1.000  H
  C187     1.0000 0.11503  0.04941  0.05550  Biso   1.000  C
  H307     1.0000 0.20912  0.03103  0.03920  Biso   1.000  H
  C188     1.0000 0.08529  0.06543  0.06951  Biso   1.000  C
  H308     1.0000 0.88309  0.32570  0.08022  Biso   1.000  H
  H309     1.0000 0.95459  0.06981  0.09651  Biso   1.000  H
  H310     1.0000 0.99521  0.31212  0.02000  Biso   1.000  H
  H311     1.0000 0.11890  0.11376  0.06671  Biso   1.000  H
  H312     1.0000 0.10030  0.13042  0.07659  Biso   1.000  H
