data_image0
_cell_length_a       14.693
_cell_length_b       13.783
_cell_length_c       28.598
_cell_angle_alpha    90
_cell_angle_beta     91.14
_cell_angle_gamma    90

_symmetry_space_group_name_H-M    "P 1"
_symmetry_int_tables_number       1

loop_
  _symmetry_equiv_pos_as_xyz
  'x, y, z'

loop_
  _atom_site_label
  _atom_site_occupancy
  _atom_site_fract_x
  _atom_site_fract_y
  _atom_site_fract_z
  _atom_site_thermal_displace_type
  _atom_site_B_iso_or_equiv
  _atom_site_type_symbol
  C1       1.0000 0.49926  0.49198  0.43526  Biso   1.000  C
  C2       1.0000 0.51246  0.59189  0.44047  Biso   1.000  C
  H1       1.0000 0.54859  0.45208  0.42620  Biso   1.000  H
  C3       1.0000 0.41646  0.45143  0.44306  Biso   1.000  C
  C4       1.0000 0.60330  0.63869  0.43284  Biso   1.000  C
  C5       1.0000 0.44017  0.64892  0.45425  Biso   1.000  C
  C6       1.0000 0.34429  0.50860  0.45799  Biso   1.000  C
  H2       1.0000 0.40777  0.38381  0.43830  Biso   1.000  H
  N1       1.0000 0.63009  0.63789  0.38297  Biso   1.000  N
  H3       1.0000 0.60107  0.70667  0.44390  Biso   1.000  H
  H4       1.0000 0.65031  0.60430  0.45180  Biso   1.000  H
  C7       1.0000 0.35676  0.60741  0.46387  Biso   1.000  C
  H5       1.0000 0.44798  0.71712  0.45719  Biso   1.000  H
  H6       1.0000 0.28688  0.48001  0.46411  Biso   1.000  H
  C8       1.0000 0.71725  0.69027  0.37545  Biso   1.000  C
  H7       1.0000 0.58482  0.66640  0.36510  Biso   1.000  H
  H8       1.0000 0.63611  0.57469  0.37321  Biso   1.000  H
  C9       1.0000 0.28112  0.67003  0.48254  Biso   1.000  C
  C10      1.0000 0.74148  0.69462  0.32449  Biso   1.000  C
  H9       1.0000 0.76681  0.65719  0.39318  Biso   1.000  H
  H10      1.0000 0.71215  0.75716  0.38780  Biso   1.000  H
  N2       1.0000 0.21530  0.70202  0.44526  Biso   1.000  N
  H11      1.0000 0.24802  0.63303  0.50650  Biso   1.000  H
  H12      1.0000 0.30813  0.72793  0.49790  Biso   1.000  H
  N3       1.0000 0.70148  0.77951  0.30033  Biso   1.000  N
  H13      1.0000 0.80856  0.69687  0.32190  Biso   1.000  H
  H14      1.0000 0.71978  0.63469  0.30879  Biso   1.000  H
  C11      1.0000 0.13800  0.75477  0.46509  Biso   1.000  C
  H15      1.0000 0.24471  0.74149  0.42448  Biso   1.000  H
  H16      1.0000 0.19398  0.64863  0.42910  Biso   1.000  H
  C12      1.0000 0.70061  0.76021  0.24979  Biso   1.000  C
  C13      1.0000 0.75938  0.86433  0.31036  Biso   1.000  C
  C14      1.0000 0.06557  0.77929  0.42791  Biso   1.000  C
  H17      1.0000 0.16028  0.81557  0.47981  Biso   1.000  H
  H18      1.0000 0.11030  0.71472  0.48978  Biso   1.000  H
  C15      1.0000 0.62197  0.69557  0.23492  Biso   1.000  C
  H19      1.0000 0.75848  0.72858  0.24129  Biso   1.000  H
  H20      1.0000 0.69621  0.82239  0.23261  Biso   1.000  H
  H21      1.0000 0.81557  0.85888  0.29200  Biso   1.000  H
  H22      1.0000 0.77729  0.86353  0.34390  Biso   1.000  H
  C16      1.0000 0.71355  0.96089  0.29907  Biso   1.000  C
  N4       1.0000 0.09332  0.85613  0.39577  Biso   1.000  N
  H23      1.0000 0.05132  0.72002  0.40959  Biso   1.000  H
  H24      1.0000 0.00928  0.79983  0.44362  Biso   1.000  H
  N5       1.0000 0.53482  0.75042  0.22859  Biso   1.000  N
  H25      1.0000 0.63681  0.66321  0.20509  Biso   1.000  H
  H26      1.0000 0.61378  0.64456  0.25892  Biso   1.000  H
  H27      1.0000 0.68551  0.95770  0.26741  Biso   1.000  H
  N6       1.0000 0.64226  0.98600  0.33345  Biso   1.000  N
  H28      1.0000 0.76017  0.01277  0.29900  Biso   1.000  H
  C17      1.0000 0.02612  0.85961  0.35628  Biso   1.000  C
  C18      1.0000 0.08999  0.95066  0.42032  Biso   1.000  C
  C19      1.0000 0.45686  0.68338  0.21723  Biso   1.000  C
  H29      1.0000 0.54070  0.79467  0.20481  Biso   1.000  H
  H30      1.0000 0.52266  0.78386  0.25559  Biso   1.000  H
  H31      1.0000 0.59561  0.94181  0.33100  Biso   1.000  H
  H32      1.0000 0.66676  0.98201  0.36321  Biso   1.000  H
  C20      1.0000 0.60527  0.08547  0.32558  Biso   1.000  C
  C21      1.0000 0.03820  0.77937  0.32037  Biso   1.000  C
  H33      1.0000 0.03122  0.92317  0.34041  Biso   1.000  H
  H34      1.0000 0.96399  0.85511  0.36901  Biso   1.000  H
  H35      1.0000 0.11782  0.94312  0.45190  Biso   1.000  H
  H36      1.0000 0.02561  0.96938  0.42420  Biso   1.000  H
  C22      1.0000 0.13849  0.03127  0.39514  Biso   1.000  C
  C23      1.0000 0.36931  0.73547  0.20617  Biso   1.000  C
  H37      1.0000 0.44762  0.63963  0.24409  Biso   1.000  H
  H38      1.0000 0.47309  0.64282  0.19009  Biso   1.000  H
  H39      1.0000 0.57460  0.08837  0.29448  Biso   1.000  H
  H40      1.0000 0.65605  0.13270  0.32579  Biso   1.000  H
  C24      1.0000 0.53832  0.11297  0.36289  Biso   1.000  C
  N7       1.0000 0.12612  0.79018  0.29553  Biso   1.000  N
  H41      1.0000 0.03677  0.71559  0.33621  Biso   1.000  H
  H42      1.0000 0.98708  0.78140  0.29728  Biso   1.000  H
  N8       1.0000 0.24009  0.02648  0.40193  Biso   1.000  N
  H43      1.0000 0.12329  0.02743  0.36129  Biso   1.000  H
  H44      1.0000 0.11641  0.09446  0.40679  Biso   1.000  H
  C25      1.0000 0.29327  0.71922  0.23373  Biso   1.000  C
  C26      1.0000 0.36012  0.79576  0.16728  Biso   1.000  C
  C27      1.0000 0.56956  0.15730  0.40332  Biso   1.000  C
  C28      1.0000 0.44591  0.09722  0.35625  Biso   1.000  C
  C29      1.0000 0.12661  0.73598  0.25000  Biso   1.000  C
  H45      1.0000 0.17280  0.76768  0.31449  Biso   1.000  H
  H46      1.0000 0.13652  0.85497  0.28990  Biso   1.000  H
  H47      1.0000 0.26207  0.97156  0.38780  Biso   1.000  H
  C30      1.0000 0.28298  0.11478  0.38101  Biso   1.000  C
  H48      1.0000 0.25451  0.02329  0.43330  Biso   1.000  H
  C31      1.0000 0.20862  0.75941  0.22181  Biso   1.000  C
  H49      1.0000 0.29929  0.68019  0.26101  Biso   1.000  H
  H50      1.0000 0.41097  0.80752  0.14819  Biso   1.000  H
  C32      1.0000 0.27700  0.83886  0.15623  Biso   1.000  C
  H51      1.0000 0.63268  0.17021  0.40770  Biso   1.000  H
  C33      1.0000 0.50868  0.18291  0.43763  Biso   1.000  C
  C34      1.0000 0.38317  0.12349  0.38996  Biso   1.000  C
  H52      1.0000 0.42467  0.06776  0.32809  Biso   1.000  H
  H53      1.0000 0.12529  0.66553  0.25640  Biso   1.000  H
  H54      1.0000 0.07097  0.75267  0.23160  Biso   1.000  H
  H55      1.0000 0.27138  0.11391  0.34681  Biso   1.000  H
  H56      1.0000 0.25277  0.17311  0.39371  Biso   1.000  H
  C35      1.0000 0.20107  0.81927  0.18323  Biso   1.000  C
  H57      1.0000 0.27177  0.88181  0.13031  Biso   1.000  H
  C36      1.0000 0.41566  0.16687  0.43123  Biso   1.000  C
  H58      1.0000 0.53067  0.21156  0.46589  Biso   1.000  H
  H59      1.0000 0.14392  0.84720  0.17501  Biso   1.000  H
  H60      1.0000 0.37438  0.18537  0.45481  Biso   1.000  H
  C37      1.0000 0.50067  0.50802  0.56473  Biso   1.000  C
  C38      1.0000 0.48747  0.40811  0.55952  Biso   1.000  C
  H61      1.0000 0.45140  0.54792  0.57379  Biso   1.000  H
  C39      1.0000 0.58347  0.54857  0.55693  Biso   1.000  C
  C40      1.0000 0.39670  0.36131  0.56718  Biso   1.000  C
  C41      1.0000 0.55976  0.35108  0.54574  Biso   1.000  C
  H62      1.0000 0.59216  0.61619  0.56169  Biso   1.000  H
  C42      1.0000 0.65571  0.49140  0.54200  Biso   1.000  C
  N9       1.0000 0.36991  0.36211  0.61705  Biso   1.000  N
  H63      1.0000 0.39886  0.29333  0.55609  Biso   1.000  H
  H64      1.0000 0.34968  0.39570  0.54819  Biso   1.000  H
  C43      1.0000 0.64317  0.39259  0.53612  Biso   1.000  C
  H65      1.0000 0.55195  0.28288  0.54280  Biso   1.000  H
  H66      1.0000 0.71306  0.51999  0.53591  Biso   1.000  H
  C44      1.0000 0.28267  0.30973  0.62454  Biso   1.000  C
  H67      1.0000 0.41518  0.33360  0.63489  Biso   1.000  H
  H68      1.0000 0.36389  0.42531  0.62681  Biso   1.000  H
  C45      1.0000 0.71887  0.32997  0.51745  Biso   1.000  C
  C46      1.0000 0.25851  0.30538  0.67550  Biso   1.000  C
  H69      1.0000 0.23319  0.34281  0.60681  Biso   1.000  H
  H70      1.0000 0.28778  0.24276  0.61219  Biso   1.000  H
  H71      1.0000 0.75198  0.36697  0.49349  Biso   1.000  H
  H72      1.0000 0.69187  0.27207  0.50209  Biso   1.000  H
  N10      1.0000 0.78470  0.29798  0.55473  Biso   1.000  N
  N11      1.0000 0.29852  0.22049  0.69966  Biso   1.000  N
  H73      1.0000 0.19137  0.30313  0.67808  Biso   1.000  H
  H74      1.0000 0.28022  0.36531  0.69120  Biso   1.000  H
  H75      1.0000 0.75529  0.25851  0.57550  Biso   1.000  H
  H76      1.0000 0.80595  0.35137  0.57089  Biso   1.000  H
  C47      1.0000 0.86200  0.24523  0.53490  Biso   1.000  C
  C48      1.0000 0.24062  0.13567  0.68963  Biso   1.000  C
  C49      1.0000 0.29938  0.23979  0.75020  Biso   1.000  C
  H77      1.0000 0.83965  0.18443  0.52021  Biso   1.000  H
  H78      1.0000 0.88970  0.28528  0.51021  Biso   1.000  H
  C50      1.0000 0.93436  0.22071  0.57208  Biso   1.000  C
  H79      1.0000 0.18436  0.14112  0.70799  Biso   1.000  H
  H80      1.0000 0.22271  0.13647  0.65608  Biso   1.000  H
  C51      1.0000 0.28638  0.03911  0.70092  Biso   1.000  C
  H81      1.0000 0.24152  0.27142  0.75870  Biso   1.000  H
  H82      1.0000 0.30379  0.17761  0.76741  Biso   1.000  H
  C52      1.0000 0.37802  0.30443  0.76507  Biso   1.000  C
  H83      1.0000 0.94868  0.27998  0.59040  Biso   1.000  H
  H84      1.0000 0.99065  0.20017  0.55641  Biso   1.000  H
  N12      1.0000 0.90668  0.14387  0.60422  Biso   1.000  N
  H85      1.0000 0.31449  0.04230  0.73261  Biso   1.000  H
  N13      1.0000 0.35767  0.01400  0.66654  Biso   1.000  N
  H86      1.0000 0.23976  0.98723  0.70099  Biso   1.000  H
  H87      1.0000 0.36318  0.33679  0.79490  Biso   1.000  H
  H88      1.0000 0.38622  0.35537  0.74111  Biso   1.000  H
  N14      1.0000 0.46518  0.24958  0.77140  Biso   1.000  N
  C53      1.0000 0.90995  0.04926  0.57970  Biso   1.000  C
  C54      1.0000 0.97388  0.14039  0.64370  Biso   1.000  C
  H89      1.0000 0.40439  0.05819  0.66899  Biso   1.000  H
  H90      1.0000 0.33317  0.01799  0.63681  Biso   1.000  H
  C55      1.0000 0.39466  0.91453  0.67441  Biso   1.000  C
  H91      1.0000 0.45930  0.20533  0.79521  Biso   1.000  H
  H92      1.0000 0.47727  0.21606  0.74440  Biso   1.000  H
  C56      1.0000 0.54307  0.31662  0.78276  Biso   1.000  C
  H93      1.0000 0.88218  0.05688  0.54808  Biso   1.000  H
  H94      1.0000 0.97438  0.03062  0.57578  Biso   1.000  H
  C57      1.0000 0.86151  0.96873  0.60485  Biso   1.000  C
  C58      1.0000 0.96180  0.22063  0.67962  Biso   1.000  C
  H95      1.0000 0.96878  0.07683  0.65958  Biso   1.000  H
  H96      1.0000 0.03601  0.14489  0.63101  Biso   1.000  H
  H97      1.0000 0.42540  0.91163  0.70550  Biso   1.000  H
  H98      1.0000 0.34388  0.86730  0.67420  Biso   1.000  H
  C59      1.0000 0.46168  0.88703  0.63709  Biso   1.000  C
  H99      1.0000 0.55238  0.36037  0.75590  Biso   1.000  H
  H100     1.0000 0.52690  0.35718  0.80990  Biso   1.000  H
  C60      1.0000 0.63069  0.26453  0.79385  Biso   1.000  C
  N15      1.0000 0.75990  0.97352  0.59806  Biso   1.000  N
  H101     1.0000 0.87670  0.97257  0.63870  Biso   1.000  H
  H102     1.0000 0.88358  0.90554  0.59320  Biso   1.000  H
  N16      1.0000 0.87380  0.20982  0.70445  Biso   1.000  N
  H103     1.0000 0.96316  0.28441  0.66381  Biso   1.000  H
  H104     1.0000 0.01285  0.21860  0.70271  Biso   1.000  H
  C61      1.0000 0.43037  0.84270  0.59666  Biso   1.000  C
  C62      1.0000 0.55409  0.90278  0.64374  Biso   1.000  C
  C63      1.0000 0.63988  0.20416  0.83271  Biso   1.000  C
  C64      1.0000 0.70666  0.28078  0.76625  Biso   1.000  C
  C65      1.0000 0.71695  0.88522  0.61898  Biso   1.000  C
  H105     1.0000 0.73786  0.02837  0.61219  Biso   1.000  H
  H106     1.0000 0.74549  0.97671  0.56669  Biso   1.000  H
  C66      1.0000 0.87339  0.26402  0.74999  Biso   1.000  C
  H107     1.0000 0.82720  0.23232  0.68550  Biso   1.000  H
  H108     1.0000 0.86347  0.14503  0.71009  Biso   1.000  H
  H109     1.0000 0.36732  0.82979  0.59229  Biso   1.000  H
  C67      1.0000 0.49132  0.81709  0.56235  Biso   1.000  C
  C68      1.0000 0.61676  0.87651  0.61006  Biso   1.000  C
  H110     1.0000 0.57526  0.93224  0.67189  Biso   1.000  H
  H111     1.0000 0.58896  0.19248  0.85180  Biso   1.000  H
  C69      1.0000 0.72300  0.16107  0.84376  Biso   1.000  C
  C70      1.0000 0.79138  0.24059  0.77818  Biso   1.000  C
  H112     1.0000 0.70071  0.31981  0.73901  Biso   1.000  H
  H113     1.0000 0.72855  0.88609  0.65318  Biso   1.000  H
  H114     1.0000 0.74716  0.82689  0.60628  Biso   1.000  H
  H115     1.0000 0.87471  0.33447  0.74359  Biso   1.000  H
  H116     1.0000 0.92896  0.24733  0.76839  Biso   1.000  H
  H117     1.0000 0.46926  0.78844  0.53409  Biso   1.000  H
  C71      1.0000 0.58426  0.83313  0.56875  Biso   1.000  C
  H118     1.0000 0.72816  0.11819  0.86971  Biso   1.000  H
  C72      1.0000 0.79887  0.18073  0.81679  Biso   1.000  C
  H119     1.0000 0.62555  0.81463  0.54518  Biso   1.000  H
  H120     1.0000 0.85608  0.15280  0.82501  Biso   1.000  H
  C73      1.0000 0.22300  0.33890  0.34376  Biso   1.000  C
  C74      1.0000 0.29887  0.31931  0.31676  Biso   1.000  C
  C75      1.0000 0.13988  0.29580  0.33271  Biso   1.000  C
  H121     1.0000 0.22823  0.38177  0.36971  Biso   1.000  H
  C76      1.0000 0.29138  0.25938  0.27819  Biso   1.000  C
  H122     1.0000 0.35608  0.34717  0.32498  Biso   1.000  H
  C77      1.0000 0.13069  0.23551  0.29385  Biso   1.000  C
  H123     1.0000 0.08897  0.30748  0.35181  Biso   1.000  H
  C78      1.0000 0.20666  0.21918  0.26626  Biso   1.000  C
  C79      1.0000 0.37339  0.23602  0.25000  Biso   1.000  C
  C80      1.0000 0.04307  0.18341  0.28277  Biso   1.000  C
  H124     1.0000 0.20071  0.18022  0.23902  Biso   1.000  H
  H125     1.0000 0.37471  0.16549  0.24360  Biso   1.000  H
  H126     1.0000 0.42896  0.25270  0.26839  Biso   1.000  H
  N17      1.0000 0.37381  0.29021  0.20446  Biso   1.000  N
  H127     1.0000 0.05238  0.13959  0.25591  Biso   1.000  H
  H128     1.0000 0.02691  0.14278  0.30991  Biso   1.000  H
  N18      1.0000 0.96518  0.25038  0.27140  Biso   1.000  N
  H129     1.0000 0.32720  0.26772  0.18550  Biso   1.000  H
  H130     1.0000 0.36347  0.35500  0.21009  Biso   1.000  H
  C81      1.0000 0.46180  0.27940  0.17963  Biso   1.000  C
  C82      1.0000 0.87802  0.19560  0.26507  Biso   1.000  C
  H131     1.0000 0.95930  0.29471  0.29518  Biso   1.000  H
  H132     1.0000 0.97727  0.28390  0.24440  Biso   1.000  H
  H133     1.0000 0.46316  0.21563  0.16379  Biso   1.000  H
  H134     1.0000 0.51292  0.28143  0.20271  Biso   1.000  H
  C83      1.0000 0.47388  0.35957  0.14371  Biso   1.000  C
  C84      1.0000 0.79938  0.26018  0.25021  Biso   1.000  C
  H135     1.0000 0.86319  0.16317  0.29490  Biso   1.000  H
  H136     1.0000 0.88622  0.14460  0.24111  Biso   1.000  H
  N19      1.0000 0.40668  0.35609  0.10422  Biso   1.000  N
  H137     1.0000 0.46878  0.42320  0.15959  Biso   1.000  H
  H138     1.0000 0.53601  0.35508  0.13101  Biso   1.000  H
  N20      1.0000 0.79852  0.27947  0.19967  Biso   1.000  N
  H139     1.0000 0.74152  0.22861  0.25871  Biso   1.000  H
  H140     1.0000 0.80379  0.32243  0.26741  Biso   1.000  H
  C85      1.0000 0.43436  0.27933  0.07208  Biso   1.000  C
  C86      1.0000 0.41002  0.45070  0.07971  Biso   1.000  C
  C87      1.0000 0.75851  0.19459  0.17550  Biso   1.000  C
  C88      1.0000 0.74062  0.36429  0.18963  Biso   1.000  C
  C89      1.0000 0.36200  0.25481  0.03490  Biso   1.000  C
  H141     1.0000 0.44868  0.21998  0.09041  Biso   1.000  H
  H142     1.0000 0.49072  0.29979  0.05641  Biso   1.000  H
  C90      1.0000 0.36151  0.53131  0.10485  Biso   1.000  C
  H143     1.0000 0.38218  0.44308  0.04809  Biso   1.000  H
  H144     1.0000 0.47438  0.46942  0.07579  Biso   1.000  H
  H145     1.0000 0.69144  0.19691  0.17809  Biso   1.000  H
  H146     1.0000 0.78022  0.13473  0.19121  Biso   1.000  H
  C91      1.0000 0.78268  0.19031  0.12454  Biso   1.000  C
  H147     1.0000 0.68443  0.35892  0.20799  Biso   1.000  H
  H148     1.0000 0.72271  0.36349  0.15609  Biso   1.000  H
  C92      1.0000 0.78638  0.46093  0.20093  Biso   1.000  C
  N21      1.0000 0.28470  0.20199  0.05473  Biso   1.000  N
  H149     1.0000 0.33972  0.31561  0.02022  Biso   1.000  H
  H150     1.0000 0.38970  0.21468  0.01021  Biso   1.000  H
  N22      1.0000 0.25991  0.52652  0.09807  Biso   1.000  N
  H151     1.0000 0.37670  0.52739  0.13871  Biso   1.000  H
  H152     1.0000 0.38359  0.59450  0.09321  Biso   1.000  H
  H153     1.0000 0.73319  0.15722  0.10681  Biso   1.000  H
  H154     1.0000 0.78778  0.25720  0.11220  Biso   1.000  H
  N23      1.0000 0.86991  0.13792  0.11702  Biso   1.000  N
  H155     1.0000 0.73983  0.51281  0.20100  Biso   1.000  H
  H156     1.0000 0.81449  0.45767  0.23261  Biso   1.000  H
  N24      1.0000 0.85767  0.48596  0.16655  Biso   1.000  N
  C93      1.0000 0.21887  0.16999  0.01745  Biso   1.000  C
  H157     1.0000 0.25529  0.24153  0.07551  Biso   1.000  H
  H158     1.0000 0.30602  0.14859  0.07089  Biso   1.000  H
  C94      1.0000 0.21702  0.61482  0.11898  Biso   1.000  C
  H159     1.0000 0.24549  0.52333  0.06670  Biso   1.000  H
  H160     1.0000 0.23793  0.47160  0.11220  Biso   1.000  H
  H161     1.0000 0.91518  0.16636  0.13490  Biso   1.000  H
  H162     1.0000 0.86389  0.07473  0.12678  Biso   1.000  H
  C95      1.0000 0.89670  0.13872  0.06719  Biso   1.000  C
  H163     1.0000 0.90439  0.44178  0.16900  Biso   1.000  H
  H164     1.0000 0.83317  0.48197  0.13678  Biso   1.000  H
  C96      1.0000 0.89473  0.58550  0.17442  Biso   1.000  C
  C97      1.0000 0.14317  0.10738  0.03613  Biso   1.000  C
  H165     1.0000 0.19187  0.22789  0.00210  Biso   1.000  H
  H166     1.0000 0.25198  0.13299  0.99349  Biso   1.000  H
  C98      1.0000 0.11676  0.62352  0.11006  Biso   1.000  C
  H167     1.0000 0.22862  0.61387  0.15319  Biso   1.000  H
  H168     1.0000 0.24722  0.67308  0.10629  Biso   1.000  H
  H169     1.0000 0.89893  0.20670  0.05610  Biso   1.000  H
  H170     1.0000 0.84968  0.10433  0.04819  Biso   1.000  H
  C99      1.0000 0.98747  0.09192  0.05953  Biso   1.000  C
  H171     1.0000 0.92540  0.58841  0.20551  Biso   1.000  H
  H172     1.0000 0.84388  0.63266  0.17421  Biso   1.000  H
  C100     1.0000 0.96168  0.61300  0.13710  Biso   1.000  C
  C101     1.0000 0.15571  0.00863  0.04200  Biso   1.000  C
  C102     1.0000 0.05983  0.14888  0.04575  Biso   1.000  C
  C103     1.0000 0.08427  0.66691  0.06876  Biso   1.000  C
  C104     1.0000 0.05409  0.59718  0.14374  Biso   1.000  C
  C105     1.0000 0.00067  0.99202  0.06474  Biso   1.000  C
  C106     1.0000 0.93038  0.65733  0.09667  Biso   1.000  C
  C107     1.0000 0.08347  0.95139  0.05694  Biso   1.000  C
  H173     1.0000 0.21312  0.97998  0.03588  Biso   1.000  H
  H174     1.0000 0.05202  0.21708  0.04281  Biso   1.000  H
  H175     1.0000 0.12562  0.68541  0.04519  Biso   1.000  H
  C108     1.0000 0.99132  0.68287  0.06236  Biso   1.000  C
  H176     1.0000 0.07533  0.56780  0.17190  Biso   1.000  H
  H177     1.0000 0.95140  0.95211  0.07380  Biso   1.000  H
  H178     1.0000 0.86732  0.67017  0.09230  Biso   1.000  H
  H179     1.0000 0.09223  0.88377  0.06169  Biso   1.000  H
  H180     1.0000 0.96933  0.71160  0.03410  Biso   1.000  H
  C109     1.0000 0.77699  0.66110  0.65622  Biso   1.000  C
  C110     1.0000 0.86005  0.70420  0.66731  Biso   1.000  C
  H181     1.0000 0.77177  0.61823  0.63031  Biso   1.000  H
  C111     1.0000 0.70106  0.68069  0.68322  Biso   1.000  C
  C112     1.0000 0.86924  0.76449  0.70617  Biso   1.000  C
  H182     1.0000 0.91096  0.69252  0.64818  Biso   1.000  H
  H183     1.0000 0.64392  0.65276  0.67501  Biso   1.000  H
  C113     1.0000 0.70855  0.74062  0.72180  Biso   1.000  C
  C114     1.0000 0.95686  0.81659  0.71722  Biso   1.000  C
  C115     1.0000 0.79327  0.78082  0.73376  Biso   1.000  C
  C116     1.0000 0.62661  0.76398  0.74999  Biso   1.000  C
  H184     1.0000 0.94755  0.86041  0.74408  Biso   1.000  H
  H185     1.0000 0.97309  0.85722  0.69011  Biso   1.000  H
  N25      1.0000 0.03475  0.74962  0.72862  Biso   1.000  N
  H186     1.0000 0.79929  0.81978  0.76101  Biso   1.000  H
  H187     1.0000 0.62529  0.83451  0.75639  Biso   1.000  H
  H188     1.0000 0.57097  0.74730  0.73159  Biso   1.000  H
  N26      1.0000 0.62612  0.70979  0.79553  Biso   1.000  N
  C117     1.0000 0.12197  0.80440  0.73495  Biso   1.000  C
  H189     1.0000 0.04070  0.70529  0.70480  Biso   1.000  H
  H190     1.0000 0.02266  0.71610  0.75559  Biso   1.000  H
  H191     1.0000 0.67280  0.73228  0.81448  Biso   1.000  H
  H192     1.0000 0.63645  0.64500  0.78990  Biso   1.000  H
  C118     1.0000 0.53820  0.72060  0.82036  Biso   1.000  C
  C119     1.0000 0.20054  0.73982  0.74978  Biso   1.000  C
  H193     1.0000 0.13674  0.83683  0.70508  Biso   1.000  H
  H194     1.0000 0.11378  0.85540  0.75891  Biso   1.000  H
  H195     1.0000 0.53677  0.78437  0.83620  Biso   1.000  H
  H196     1.0000 0.48708  0.71857  0.79731  Biso   1.000  H
  C120     1.0000 0.52611  0.64043  0.85628  Biso   1.000  C
  N27      1.0000 0.20148  0.72053  0.80032  Biso   1.000  N
  H197     1.0000 0.25847  0.77139  0.74128  Biso   1.000  H
  H198     1.0000 0.19614  0.67757  0.73261  Biso   1.000  H
  N28      1.0000 0.59325  0.64391  0.89576  Biso   1.000  N
  H199     1.0000 0.53122  0.57680  0.84040  Biso   1.000  H
  H200     1.0000 0.46399  0.64492  0.86901  Biso   1.000  H
  C121     1.0000 0.24148  0.80541  0.82449  Biso   1.000  C
  C122     1.0000 0.25938  0.63571  0.81036  Biso   1.000  C
  C123     1.0000 0.56557  0.72067  0.92791  Biso   1.000  C
  C124     1.0000 0.58998  0.54930  0.92032  Biso   1.000  C
  H201     1.0000 0.30856  0.80309  0.82190  Biso   1.000  H
  H202     1.0000 0.21978  0.86527  0.80878  Biso   1.000  H
  C125     1.0000 0.21725  0.80969  0.87544  Biso   1.000  C
  H203     1.0000 0.31557  0.64108  0.79200  Biso   1.000  H
  H204     1.0000 0.27729  0.63651  0.84390  Biso   1.000  H
  C126     1.0000 0.21355  0.53907  0.79906  Biso   1.000  C
  C127     1.0000 0.63800  0.74519  0.96508  Biso   1.000  C
  H205     1.0000 0.55125  0.78002  0.90961  Biso   1.000  H
  H206     1.0000 0.50928  0.70021  0.94361  Biso   1.000  H
  C128     1.0000 0.63849  0.46869  0.89513  Biso   1.000  C
  H207     1.0000 0.61775  0.55692  0.95190  Biso   1.000  H
  H208     1.0000 0.52561  0.53058  0.92420  Biso   1.000  H
  H209     1.0000 0.26674  0.84278  0.89321  Biso   1.000  H
  H210     1.0000 0.21215  0.74280  0.88779  Biso   1.000  H
  N29      1.0000 0.13009  0.86208  0.88296  Biso   1.000  N
  H211     1.0000 0.26016  0.48719  0.79899  Biso   1.000  H
  H212     1.0000 0.18544  0.54226  0.76741  Biso   1.000  H
  N30      1.0000 0.14226  0.51397  0.83344  Biso   1.000  N
  N31      1.0000 0.71529  0.79801  0.94525  Biso   1.000  N
  H213     1.0000 0.66028  0.68439  0.97981  Biso   1.000  H
  H214     1.0000 0.61030  0.78532  0.98981  Biso   1.000  H
  N32      1.0000 0.74009  0.47348  0.90192  Biso   1.000  N
  H215     1.0000 0.62329  0.47261  0.86128  Biso   1.000  H
  H216     1.0000 0.61641  0.40550  0.90678  Biso   1.000  H
  H217     1.0000 0.08475  0.83356  0.86509  Biso   1.000  H
  H218     1.0000 0.13604  0.92527  0.87321  Biso   1.000  H
  C129     1.0000 0.10330  0.86128  0.93284  Biso   1.000  C
  H219     1.0000 0.09554  0.55822  0.83099  Biso   1.000  H
  H220     1.0000 0.16676  0.51803  0.86320  Biso   1.000  H
  C130     1.0000 0.10527  0.41450  0.82557  Biso   1.000  C
  C131     1.0000 0.78105  0.83001  0.98254  Biso   1.000  C
  H221     1.0000 0.74471  0.75847  0.92451  Biso   1.000  H
  H222     1.0000 0.69398  0.85141  0.92910  Biso   1.000  H
  C132     1.0000 0.78298  0.38518  0.88101  Biso   1.000  C
  H223     1.0000 0.75451  0.47667  0.93329  Biso   1.000  H
  H224     1.0000 0.76207  0.52840  0.88779  Biso   1.000  H
  H225     1.0000 0.10107  0.79330  0.94389  Biso   1.000  H
  H226     1.0000 0.15024  0.89567  0.95179  Biso   1.000  H
  C133     1.0000 0.01246  0.90808  0.94046  Biso   1.000  C
  H227     1.0000 0.07460  0.41159  0.79451  Biso   1.000  H
  H228     1.0000 0.15605  0.36726  0.82578  Biso   1.000  H
  C134     1.0000 0.03825  0.38700  0.86289  Biso   1.000  C
  C135     1.0000 0.85676  0.89262  0.96386  Biso   1.000  C
  H229     1.0000 0.80806  0.77211  0.99789  Biso   1.000  H
  H230     1.0000 0.74795  0.86701  0.00649  Biso   1.000  H
  C136     1.0000 0.88317  0.37648  0.88996  Biso   1.000  C
  H231     1.0000 0.77137  0.38613  0.84680  Biso   1.000  H
  H232     1.0000 0.75277  0.32692  0.89370  Biso   1.000  H
  C137     1.0000 0.94017  0.85112  0.95424  Biso   1.000  C
  C138     1.0000 0.99926  0.00798  0.93525  Biso   1.000  C
  C139     1.0000 0.94590  0.40282  0.85624  Biso   1.000  C
  C140     1.0000 0.06955  0.34267  0.90332  Biso   1.000  C
  C141     1.0000 0.84428  0.99137  0.95798  Biso   1.000  C
  C142     1.0000 0.91566  0.33309  0.93123  Biso   1.000  C
  H233     1.0000 0.94798  0.78292  0.95718  Biso   1.000  H
  C143     1.0000 0.91646  0.04861  0.94305  Biso   1.000  C
  H234     1.0000 0.04859  0.04789  0.92619  Biso   1.000  H
  H235     1.0000 0.92467  0.43220  0.82809  Biso   1.000  H
  H236     1.0000 0.13268  0.32983  0.90769  Biso   1.000  H
  C144     1.0000 0.00868  0.31713  0.93763  Biso   1.000  C
  H237     1.0000 0.78687  0.02002  0.96410  Biso   1.000  H
  H238     1.0000 0.87438  0.31459  0.95480  Biso   1.000  H
  H239     1.0000 0.90777  0.11616  0.93829  Biso   1.000  H
  H240     1.0000 0.03067  0.28840  0.96589  Biso   1.000  H
  Ne1      1.0000 0.10381  0.31999  0.15231  Biso   1.000  Ne
  He1      1.0000 0.18874  0.42320  0.20324  Biso   1.000  He
  He2      1.0000 0.27761  0.98136  0.17299  Biso   1.000  He
  He3      1.0000 0.00779  0.37896  0.09498  Biso   1.000  He
  Ar1      1.0000 0.09623  0.31461  0.15210  Biso   1.000  Ar
  Ne2      1.0000 0.39617  0.81999  0.34769  Biso   1.000  Ne
  He4      1.0000 0.49120  0.87836  0.40443  Biso   1.000  He
  He5      1.0000 0.38544  0.60567  0.34053  Biso   1.000  He
  He6      1.0000 0.28820  0.03953  0.24462  Biso   1.000  He
  Ar2      1.0000 0.40355  0.81469  0.34788  Biso   1.000  Ar
  Ne3      1.0000 0.60380  0.18001  0.65231  Biso   1.000  Ne
  He7      1.0000 0.68612  0.08170  0.69991  Biso   1.000  He
  He8      1.0000 0.59387  0.34236  0.66107  Biso   1.000  He
  He9      1.0000 0.50783  0.12102  0.59501  Biso   1.000  He
  Ar3      1.0000 0.59622  0.18539  0.65209  Biso   1.000  Ar
  Ne4      1.0000 0.89615  0.68000  0.84769  Biso   1.000  Ne
  He10     1.0000 0.98628  0.62483  0.90160  Biso   1.000  He
  He11     1.0000 0.90613  0.84450  0.83884  Biso   1.000  He
  He12     1.0000 0.82564  0.59205  0.80467  Biso   1.000  He
  Ar4      1.0000 0.90354  0.68530  0.84788  Biso   1.000  Ar
