data_image0
_cell_length_a       11.875
_cell_length_b       12.691
_cell_length_c       13.119
_cell_angle_alpha    116.9
_cell_angle_beta     90.93
_cell_angle_gamma    105.02

_symmetry_space_group_name_H-M    "P 1"
_symmetry_int_tables_number       1

loop_
  _symmetry_equiv_pos_as_xyz
  'x, y, z'

loop_
  _atom_site_label
  _atom_site_occupancy
  _atom_site_fract_x
  _atom_site_fract_y
  _atom_site_fract_z
  _atom_site_thermal_displace_type
  _atom_site_B_iso_or_equiv
  _atom_site_type_symbol
  O1       1.0000 0.69596  0.33418  0.44791  Biso   1.000  O
  C1       1.0000 0.76894  0.28033  0.44194  Biso   1.000  C
  N1       1.0000 0.79835  0.19816  0.34114  Biso   1.000  N
  N2       1.0000 0.84124  0.29558  0.53365  Biso   1.000  N
  C2       1.0000 0.74214  0.16850  0.22867  Biso   1.000  C
  C3       1.0000 0.89383  0.15511  0.36200  Biso   1.000  C
  C4       1.0000 0.92243  0.22094  0.49852  Biso   1.000  C
  C5       1.0000 0.83766  0.38331  0.65028  Biso   1.000  C
  N3       1.0000 0.64461  0.05455  0.17520  Biso   1.000  N
  H1       1.0000 0.71325  0.23637  0.23672  Biso   1.000  H
  H2       1.0000 0.80091  0.16208  0.17745  Biso   1.000  H
  N4       1.0000 0.85666  0.02354  0.33059  Biso   1.000  N
  C6       1.0000 0.00142  0.18831  0.30749  Biso   1.000  C
  N5       1.0000 0.88906  0.11558  0.52344  Biso   1.000  N
  C7       1.0000 0.05155  0.29660  0.54325  Biso   1.000  C
  H3       1.0000 0.91796  0.43086  0.68895  Biso   1.000  H
  H4       1.0000 0.79840  0.44029  0.64760  Biso   1.000  H
  N6       1.0000 0.77765  0.32850  0.71915  Biso   1.000  N
  C8       1.0000 0.52899  0.05376  0.16863  Biso   1.000  C
  C9       1.0000 0.65841  0.93342  0.10140  Biso   1.000  C
  C10      1.0000 0.83129  0.92169  0.21171  Biso   1.000  C
  C11      1.0000 0.85380  0.00463  0.42576  Biso   1.000  C
  H5       1.0000 0.97741  0.15561  0.22530  Biso   1.000  H
  H6       1.0000 0.05889  0.15013  0.31701  Biso   1.000  H
  C12      1.0000 0.05766  0.32732  0.36260  Biso   1.000  C
  C13      1.0000 0.92117  0.12281  0.63367  Biso   1.000  C
  C14      1.0000 0.08956  0.38916  0.49610  Biso   1.000  C
  H7       1.0000 0.06353  0.34110  0.62700  Biso   1.000  H
  H8       1.0000 0.10026  0.24138  0.51989  Biso   1.000  H
  C15      1.0000 0.68103  0.35667  0.76595  Biso   1.000  C
  C16      1.0000 0.83975  0.28530  0.78291  Biso   1.000  C
  N7       1.0000 0.46002  0.93230  0.10062  Biso   1.000  N
  O2       1.0000 0.49236  0.14414  0.20972  Biso   1.000  O
  C17      1.0000 0.52915  0.84726  0.05624  Biso   1.000  C
  H9       1.0000 0.70035  0.93330  0.03764  Biso   1.000  H
  N8       1.0000 0.70884  0.87997  0.16101  Biso   1.000  N
  H10      1.0000 0.85226  0.85271  0.21163  Biso   1.000  H
  H11      1.0000 0.88016  0.94857  0.16439  Biso   1.000  H
  O3       1.0000 0.82597  0.90163  0.42213  Biso   1.000  O
  H12      1.0000 0.12883  0.34435  0.33016  Biso   1.000  H
  H13      1.0000 0.00377  0.36382  0.34348  Biso   1.000  H
  H14      1.0000 0.99892  0.18180  0.66801  Biso   1.000  H
  H15      1.0000 0.92631  0.04255  0.62000  Biso   1.000  H
  N9       1.0000 0.84096  0.15872  0.71543  Biso   1.000  N
  H16      1.0000 0.05152  0.45353  0.53140  Biso   1.000  H
  H17      1.0000 0.17416  0.42805  0.51782  Biso   1.000  H
  N10      1.0000 0.66710  0.32622  0.85394  Biso   1.000  N
  O4       1.0000 0.61745  0.40303  0.73567  Biso   1.000  O
  C18      1.0000 0.76005  0.27932  0.87315  Biso   1.000  C
  H18      1.0000 0.91930  0.34181  0.81977  Biso   1.000  H
  C19      1.0000 0.33231  0.89717  0.08150  Biso   1.000  C
  N11      1.0000 0.52124  0.76497  0.10659  Biso   1.000  N
  H19      1.0000 0.51389  0.80130  0.97154  Biso   1.000  H
  C20      1.0000 0.62992  0.77748  0.15582  Biso   1.000  C
  C21      1.0000 0.77595  0.08078  0.75471  Biso   1.000  C
  C22      1.0000 0.57657  0.34739  0.92593  Biso   1.000  C
  N12      1.0000 0.72237  0.14889  0.84287  Biso   1.000  N
  H20      1.0000 0.80345  0.33059  0.95206  Biso   1.000  H
  N13      1.0000 0.27776  0.85128  0.15721  Biso   1.000  N
  H21      1.0000 0.30360  0.83364  0.00190  Biso   1.000  H
  H22      1.0000 0.30821  0.96848  0.09249  Biso   1.000  H
  C23      1.0000 0.42356  0.65277  0.07415  Biso   1.000  C
  O5       1.0000 0.65245  0.70661  0.18714  Biso   1.000  O
  O6       1.0000 0.77036  0.97231  0.71915  Biso   1.000  O
  N14      1.0000 0.47889  0.23520  0.89348  Biso   1.000  N
  H23      1.0000 0.54625  0.40914  0.92074  Biso   1.000  H
  H24      1.0000 0.61099  0.38017  0.00570  Biso   1.000  H
  C24      1.0000 0.66774  0.10300  0.91857  Biso   1.000  C
  C25      1.0000 0.22416  0.91935  0.24528  Biso   1.000  C
  C26      1.0000 0.24008  0.72084  0.12692  Biso   1.000  C
  N15      1.0000 0.33303  0.67394  0.14613  Biso   1.000  N
  H25      1.0000 0.38911  0.61991  0.99438  Biso   1.000  H
  H26      1.0000 0.45379  0.59103  0.07934  Biso   1.000  H
  C27      1.0000 0.37012  0.22269  0.84425  Biso   1.000  C
  C28      1.0000 0.47098  0.15291  0.94384  Biso   1.000  C
  N16      1.0000 0.54004  0.06795  0.89945  Biso   1.000  N
  H27      1.0000 0.69644  0.16653  0.99817  Biso   1.000  H
  H28      1.0000 0.69185  0.03177  0.90758  Biso   1.000  H
  O7       1.0000 0.22976  0.02786  0.28093  Biso   1.000  O
  N17      1.0000 0.15919  0.84153  0.28465  Biso   1.000  N
  C29      1.0000 0.16036  0.71482  0.21708  Biso   1.000  C
  H29      1.0000 0.19667  0.66957  0.04802  Biso   1.000  H
  C30      1.0000 0.31902  0.64349  0.23412  Biso   1.000  C
  N18      1.0000 0.29128  0.12020  0.83906  Biso   1.000  N
  O8       1.0000 0.34767  0.29356  0.81293  Biso   1.000  O
  C31      1.0000 0.34172  0.06674  0.89867  Biso   1.000  C
  H30      1.0000 0.48620  0.19874  0.02845  Biso   1.000  H
  C32      1.0000 0.47106  0.94641  0.83145  Biso   1.000  C
  C33      1.0000 0.07896  0.87735  0.36641  Biso   1.000  C
  H31      1.0000 0.08082  0.65836  0.18031  Biso   1.000  H
  N19      1.0000 0.22248  0.67167  0.28093  Biso   1.000  N
  O9       1.0000 0.38259  0.59714  0.26440  Biso   1.000  O
  C34      1.0000 0.16884  0.07847  0.78836  Biso   1.000  C
  N20      1.0000 0.35554  0.94569  0.82487  Biso   1.000  N
  H32      1.0000 0.29980  0.06695  0.96244  Biso   1.000  H
  O10      1.0000 0.50777  0.85602  0.79035  Biso   1.000  O
  H33      1.0000 0.00112  0.81837  0.33206  Biso   1.000  H
  H34      1.0000 0.07371  0.95757  0.37999  Biso   1.000  H
  N21      1.0000 0.11107  0.88459  0.47663  Biso   1.000  N
  C35      1.0000 0.16247  0.61686  0.34980  Biso   1.000  C
  N22      1.0000 0.14345  0.97659  0.66940  Biso   1.000  N
  H35      1.0000 0.14788  0.14754  0.78845  Biso   1.000  H
  H36      1.0000 0.11997  0.05159  0.83569  Biso   1.000  H
  C36      1.0000 0.25798  0.83163  0.77132  Biso   1.000  C
  C37      1.0000 0.14624  0.99553  0.57431  Biso   1.000  C
  C38      1.0000 0.07770  0.77923  0.50155  Biso   1.000  C
  N23      1.0000 0.15888  0.70459  0.46642  Biso   1.000  N
  H37      1.0000 0.08216  0.56930  0.31112  Biso   1.000  H
  H38      1.0000 0.20171  0.55984  0.35239  Biso   1.000  H
  C39      1.0000 0.10629  0.84505  0.63808  Biso   1.000  C
  N24      1.0000 0.20178  0.80200  0.65893  Biso   1.000  N
  H39      1.0000 0.28690  0.76388  0.76336  Biso   1.000  H
  H40      1.0000 0.19923  0.83817  0.82262  Biso   1.000  H
  O11      1.0000 0.17418  0.09862  0.57795  Biso   1.000  O
  C40      1.0000 0.94857  0.70356  0.45682  Biso   1.000  C
  C41      1.0000 0.23119  0.71983  0.55813  Biso   1.000  C
  C42      1.0000 0.99870  0.81181  0.69250  Biso   1.000  C
  C43      1.0000 0.91055  0.61096  0.50389  Biso   1.000  C
  H41      1.0000 0.93652  0.65910  0.37298  Biso   1.000  H
  H42      1.0000 0.89985  0.75874  0.48009  Biso   1.000  H
  O12      1.0000 0.30417  0.66599  0.55216  Biso   1.000  O
  C44      1.0000 0.94246  0.67285  0.63747  Biso   1.000  C
  H43      1.0000 0.94115  0.85003  0.68307  Biso   1.000  H
  H44      1.0000 0.02271  0.84455  0.77478  Biso   1.000  H
  H45      1.0000 0.94859  0.54660  0.46859  Biso   1.000  H
  H46      1.0000 0.82597  0.57212  0.48226  Biso   1.000  H
  H47      1.0000 0.87130  0.65582  0.66992  Biso   1.000  H
  H48      1.0000 0.99635  0.63630  0.65651  Biso   1.000  H
