data_image0
_cell_length_a       12.834
_cell_length_b       17.447
_cell_length_c       21.204
_cell_angle_alpha    68.88
_cell_angle_beta     74.37
_cell_angle_gamma    85.72

_symmetry_space_group_name_H-M    "P 1"
_symmetry_int_tables_number       1

loop_
  _symmetry_equiv_pos_as_xyz
  'x, y, z'

loop_
  _atom_site_label
  _atom_site_occupancy
  _atom_site_fract_x
  _atom_site_fract_y
  _atom_site_fract_z
  _atom_site_thermal_displace_type
  _atom_site_B_iso_or_equiv
  _atom_site_type_symbol
  C1       1.0000 0.64897  0.48162  0.43691  Biso   1.000  C
  C2       1.0000 0.66596  0.56669  0.43869  Biso   1.000  C
  H1       1.0000 0.65129  0.48710  0.38931  Biso   1.000  H
  H2       1.0000 0.57765  0.46019  0.46618  Biso   1.000  H
  C3       1.0000 0.73268  0.42078  0.46157  Biso   1.000  C
  C4       1.0000 0.75594  0.56980  0.47268  Biso   1.000  C
  H3       1.0000 0.59886  0.58301  0.46440  Biso   1.000  H
  H4       1.0000 0.68348  0.60621  0.39119  Biso   1.000  H
  C5       1.0000 0.73707  0.41220  0.53489  Biso   1.000  C
  H5       1.0000 0.71548  0.36762  0.46157  Biso   1.000  H
  H6       1.0000 0.80314  0.43890  0.42921  Biso   1.000  H
  C6       1.0000 0.74383  0.49799  0.54269  Biso   1.000  C
  H7       1.0000 0.82576  0.56731  0.44120  Biso   1.000  H
  H8       1.0000 0.75354  0.62145  0.48048  Biso   1.000  H
  N1       1.0000 0.83479  0.37299  0.55149  Biso   1.000  N
  N2       1.0000 0.63726  0.37552  0.58841  Biso   1.000  N
  N3       1.0000 0.84002  0.48948  0.56992  Biso   1.000  N
  N4       1.0000 0.64413  0.49980  0.59417  Biso   1.000  N
  C7       1.0000 0.89194  0.41819  0.57176  Biso   1.000  C
  C8       1.0000 0.87379  0.29534  0.54390  Biso   1.000  C
  C9       1.0000 0.58426  0.42689  0.62119  Biso   1.000  C
  C10      1.0000 0.59018  0.29590  0.60239  Biso   1.000  C
  C11      1.0000 0.89348  0.55671  0.57453  Biso   1.000  C
  C12      1.0000 0.60580  0.56949  0.61470  Biso   1.000  C
  O1       1.0000 0.97844  0.39838  0.58762  Biso   1.000  O
  H9       1.0000 0.95228  0.29652  0.53290  Biso   1.000  H
  H10      1.0000 0.85343  0.29052  0.50462  Biso   1.000  H
  N5       1.0000 0.83333  0.22351  0.60496  Biso   1.000  N
  O2       1.0000 0.49757  0.41251  0.66518  Biso   1.000  O
  H11      1.0000 0.59756  0.28891  0.55798  Biso   1.000  H
  H12      1.0000 0.51338  0.29590  0.62439  Biso   1.000  H
  N6       1.0000 0.63678  0.22660  0.64617  Biso   1.000  N
  H13      1.0000 0.88866  0.60614  0.53541  Biso   1.000  H
  H14      1.0000 0.96957  0.54461  0.57018  Biso   1.000  H
  N7       1.0000 0.84935  0.57263  0.63853  Biso   1.000  N
  H15      1.0000 0.62057  0.61892  0.57322  Biso   1.000  H
  H16      1.0000 0.52785  0.56359  0.63360  Biso   1.000  H
  N8       1.0000 0.65283  0.58064  0.66612  Biso   1.000  N
  C13      1.0000 0.89432  0.18209  0.64858  Biso   1.000  C
  C14      1.0000 0.72982  0.18310  0.62072  Biso   1.000  C
  C15      1.0000 0.57862  0.18174  0.71441  Biso   1.000  C
  C16      1.0000 0.90959  0.56639  0.68492  Biso   1.000  C
  C17      1.0000 0.75527  0.62214  0.64884  Biso   1.000  C
  C18      1.0000 0.59144  0.57551  0.73169  Biso   1.000  C
  N9       1.0000 0.83546  0.11564  0.69932  Biso   1.000  N
  O3       1.0000 0.98780  0.19929  0.64329  Biso   1.000  O
  H17      1.0000 0.72223  0.16839  0.58160  Biso   1.000  H
  C19      1.0000 0.73256  0.10498  0.68681  Biso   1.000  C
  N10      1.0000 0.63818  0.11350  0.73918  Biso   1.000  N
  O4       1.0000 0.49253  0.19961  0.74551  Biso   1.000  O
  N11      1.0000 0.85242  0.59959  0.73279  Biso   1.000  N
  O5       1.0000 0.99853  0.53630  0.68278  Biso   1.000  O
  C20      1.0000 0.75486  0.63728  0.71582  Biso   1.000  C
  H18      1.0000 0.76125  0.67390  0.60909  Biso   1.000  H
  N12      1.0000 0.65516  0.59814  0.76421  Biso   1.000  N
  O6       1.0000 0.49602  0.55291  0.75604  Biso   1.000  O
  C21      1.0000 0.88324  0.05298  0.74981  Biso   1.000  C
  H19      1.0000 0.72915  0.05403  0.67791  Biso   1.000  H
  C22      1.0000 0.59746  0.04974  0.80668  Biso   1.000  C
  C23      1.0000 0.89476  0.61031  0.78594  Biso   1.000  C
  H20      1.0000 0.75576  0.69624  0.70770  Biso   1.000  H
  C24      1.0000 0.61389  0.60342  0.83349  Biso   1.000  C
  H21      1.0000 0.96115  0.06142  0.73478  Biso   1.000  H
  N13      1.0000 0.84404  0.05343  0.82061  Biso   1.000  N
  H22      1.0000 0.86760  0.99931  0.74991  Biso   1.000  H
  H23      1.0000 0.51982  0.05532  0.82229  Biso   1.000  H
  N14      1.0000 0.64661  0.05123  0.86046  Biso   1.000  N
  H24      1.0000 0.60968  0.99675  0.80129  Biso   1.000  H
  H25      1.0000 0.87728  0.66482  0.78741  Biso   1.000  H
  H26      1.0000 0.97301  0.60724  0.77259  Biso   1.000  H
  N15      1.0000 0.85401  0.55092  0.85496  Biso   1.000  N
  H27      1.0000 0.53562  0.59632  0.84711  Biso   1.000  H
  H28      1.0000 0.63007  0.65814  0.83072  Biso   1.000  H
  N16      1.0000 0.65601  0.54454  0.88759  Biso   1.000  N
  C25      1.0000 0.90271  0.09031  0.84721  Biso   1.000  C
  C26      1.0000 0.74692  0.01109  0.87198  Biso   1.000  C
  C27      1.0000 0.59132  0.07520  0.91409  Biso   1.000  C
  C28      1.0000 0.91298  0.48221  0.88047  Biso   1.000  C
  C29      1.0000 0.75403  0.55550  0.90628  Biso   1.000  C
  C30      1.0000 0.59999  0.47291  0.93158  Biso   1.000  C
  N17      1.0000 0.85096  0.07832  0.91545  Biso   1.000  N
  O7       1.0000 0.98924  0.12735  0.81522  Biso   1.000  O
  C31      1.0000 0.75384  0.02412  0.94100  Biso   1.000  C
  C32      1.0000 0.74191  0.91892  0.88272  Biso   1.000  C
  N18      1.0000 0.65340  0.06382  0.95944  Biso   1.000  N
  O8       1.0000 0.49923  0.10185  0.92147  Biso   1.000  O
  N19      1.0000 0.85476  0.43643  0.94729  Biso   1.000  N
  O9       1.0000 0.00137  0.46646  0.85020  Biso   1.000  O
  C33      1.0000 0.75495  0.47529  0.97133  Biso   1.000  C
  C34      1.0000 0.74943  0.63281  0.92508  Biso   1.000  C
  N20      1.0000 0.65697  0.43092  0.97908  Biso   1.000  N
  O10      1.0000 0.51298  0.45155  0.92974  Biso   1.000  O
  C35      1.0000 0.90291  0.09911  0.96012  Biso   1.000  C
  C36      1.0000 0.76674  0.94214  0.99898  Biso   1.000  C
  H29      1.0000 0.74225  0.91334  0.83878  Biso   1.000  H
  H30      1.0000 0.67485  0.89443  0.91660  Biso   1.000  H
  C37      1.0000 0.83672  0.87325  0.90822  Biso   1.000  C
  C38      1.0000 0.61579  0.08237  0.02291  Biso   1.000  C
  C39      1.0000 0.90042  0.36490  0.98897  Biso   1.000  C
  C40      1.0000 0.75208  0.49339  0.03631  Biso   1.000  C
  C41      1.0000 0.84026  0.63345  0.96017  Biso   1.000  C
  H31      1.0000 0.75732  0.68135  0.88298  Biso   1.000  H
  H32      1.0000 0.67964  0.63462  0.95682  Biso   1.000  H
  C42      1.0000 0.61490  0.35561  0.03579  Biso   1.000  C
  H33      1.0000 0.97881  0.11152  0.93608  Biso   1.000  H
  N21      1.0000 0.85735  0.16735  0.97986  Biso   1.000  N
  H34      1.0000 0.89901  0.05139  0.00233  Biso   1.000  H
  C43      1.0000 0.85654  0.89156  0.96981  Biso   1.000  C
  H35      1.0000 0.69897  0.91083  0.01814  Biso   1.000  H
  H36      1.0000 0.78413  0.95344  0.03663  Biso   1.000  H
  H37      1.0000 0.82345  0.81466  0.92252  Biso   1.000  H
  H38      1.0000 0.90158  0.88817  0.86957  Biso   1.000  H
  H39      1.0000 0.63432  0.03768  0.06114  Biso   1.000  H
  H40      1.0000 0.53759  0.08552  0.03401  Biso   1.000  H
  N22      1.0000 0.66061  0.15829  0.01851  Biso   1.000  N
  H41      1.0000 0.97821  0.36743  0.96907  Biso   1.000  H
  N23      1.0000 0.85817  0.28671  0.99442  Biso   1.000  N
  H42      1.0000 0.88759  0.36639  0.03584  Biso   1.000  H
  H43      1.0000 0.68238  0.51540  0.05223  Biso   1.000  H
  H44      1.0000 0.76099  0.44288  0.07334  Biso   1.000  H
  C44      1.0000 0.84220  0.55551  0.02170  Biso   1.000  C
  H45      1.0000 0.83085  0.67981  0.97599  Biso   1.000  H
  H46      1.0000 0.90946  0.64094  0.92571  Biso   1.000  H
  H47      1.0000 0.53721  0.35282  0.04291  Biso   1.000  H
  H48      1.0000 0.62799  0.35718  0.07831  Biso   1.000  H
  N24      1.0000 0.66099  0.28232  0.02474  Biso   1.000  N
  C45      1.0000 0.91806  0.23870  0.95991  Biso   1.000  C
  C46      1.0000 0.76090  0.16175  0.03589  Biso   1.000  C
  H49      1.0000 0.92513  0.92124  0.95441  Biso   1.000  H
  H50      1.0000 0.86177  0.83991  0.00694  Biso   1.000  H
  C47      1.0000 0.60170  0.22707  0.01579  Biso   1.000  C
  C48      1.0000 0.75990  0.24719  0.04302  Biso   1.000  C
  H51      1.0000 0.91176  0.53019  0.01264  Biso   1.000  H
  H52      1.0000 0.83442  0.56949  0.06313  Biso   1.000  H
  O11      1.0000 0.00798  0.25466  0.91985  Biso   1.000  O
  H53      1.0000 0.76467  0.11722  0.07941  Biso   1.000  H
  O12      1.0000 0.50982  0.23776  0.00709  Biso   1.000  O
  H54      1.0000 0.75807  0.24208  0.09083  Biso   1.000  H
  C49      1.0000 0.35094  0.51840  0.56312  Biso   1.000  C
  C50      1.0000 0.26724  0.57918  0.53845  Biso   1.000  C
  C51      1.0000 0.33398  0.43330  0.56128  Biso   1.000  C
  H55      1.0000 0.34862  0.51292  0.61072  Biso   1.000  H
  H56      1.0000 0.42229  0.53979  0.53379  Biso   1.000  H
  C52      1.0000 0.26287  0.58779  0.46508  Biso   1.000  C
  H57      1.0000 0.28446  0.63243  0.53840  Biso   1.000  H
  H58      1.0000 0.19677  0.56113  0.57081  Biso   1.000  H
  C53      1.0000 0.24397  0.43022  0.52735  Biso   1.000  C
  H59      1.0000 0.40105  0.41701  0.53562  Biso   1.000  H
  H60      1.0000 0.31645  0.39383  0.60878  Biso   1.000  H
  C54      1.0000 0.25609  0.50204  0.45733  Biso   1.000  C
  N25      1.0000 0.16520  0.62703  0.44853  Biso   1.000  N
  N26      1.0000 0.36266  0.62450  0.41161  Biso   1.000  N
  H61      1.0000 0.17416  0.43271  0.55882  Biso   1.000  H
  H62      1.0000 0.24640  0.37860  0.51949  Biso   1.000  H
  N27      1.0000 0.15990  0.51049  0.43010  Biso   1.000  N
  N28      1.0000 0.35578  0.50022  0.40585  Biso   1.000  N
  C55      1.0000 0.10798  0.58183  0.42827  Biso   1.000  C
  C56      1.0000 0.12622  0.70471  0.45607  Biso   1.000  C
  C57      1.0000 0.41566  0.57313  0.37883  Biso   1.000  C
  C58      1.0000 0.40976  0.70414  0.39758  Biso   1.000  C
  C59      1.0000 0.10646  0.44334  0.42544  Biso   1.000  C
  C60      1.0000 0.39422  0.43049  0.38527  Biso   1.000  C
  O13      1.0000 0.02148  0.60165  0.41240  Biso   1.000  O
  H63      1.0000 0.04774  0.70352  0.46707  Biso   1.000  H
  H64      1.0000 0.14649  0.70950  0.49540  Biso   1.000  H
  N29      1.0000 0.16659  0.77651  0.39507  Biso   1.000  N
  O14      1.0000 0.50235  0.58751  0.33484  Biso   1.000  O
  H65      1.0000 0.40237  0.71114  0.44199  Biso   1.000  H
  H66      1.0000 0.48656  0.70415  0.37558  Biso   1.000  H
  N30      1.0000 0.36323  0.77344  0.35380  Biso   1.000  N
  N31      1.0000 0.15056  0.42739  0.36150  Biso   1.000  N
  H67      1.0000 0.11126  0.39389  0.46461  Biso   1.000  H
  H68      1.0000 0.03036  0.45544  0.42979  Biso   1.000  H
  N32      1.0000 0.34710  0.41940  0.33385  Biso   1.000  N
  H69      1.0000 0.37935  0.38110  0.42680  Biso   1.000  H
  H70      1.0000 0.47207  0.43638  0.36642  Biso   1.000  H
  C61      1.0000 0.10562  0.81789  0.35139  Biso   1.000  C
  C62      1.0000 0.27009  0.81692  0.37930  Biso   1.000  C
  C63      1.0000 0.42129  0.81829  0.28562  Biso   1.000  C
  C64      1.0000 0.24466  0.37790  0.35113  Biso   1.000  C
  C65      1.0000 0.09041  0.43358  0.31510  Biso   1.000  C
  C66      1.0000 0.40849  0.42454  0.26828  Biso   1.000  C
  N33      1.0000 0.16448  0.88440  0.30065  Biso   1.000  N
  O15      1.0000 0.01211  0.80073  0.35673  Biso   1.000  O
  H71      1.0000 0.27769  0.83158  0.41842  Biso   1.000  H
  C67      1.0000 0.26736  0.89498  0.31321  Biso   1.000  C
  N34      1.0000 0.36183  0.88654  0.26079  Biso   1.000  N
  O16      1.0000 0.50739  0.80041  0.25451  Biso   1.000  O
  C68      1.0000 0.24506  0.36268  0.28420  Biso   1.000  C
  H72      1.0000 0.23869  0.32614  0.39088  Biso   1.000  H
  N35      1.0000 0.14752  0.40039  0.26718  Biso   1.000  N
  O17      1.0000 0.00139  0.46372  0.31725  Biso   1.000  O
  N36      1.0000 0.34475  0.40188  0.23581  Biso   1.000  N
  O18      1.0000 0.50389  0.44711  0.24398  Biso   1.000  O
  C69      1.0000 0.11668  0.94698  0.25022  Biso   1.000  C
  H73      1.0000 0.27077  0.94600  0.32212  Biso   1.000  H
  C70      1.0000 0.40248  0.95030  0.19329  Biso   1.000  C
  H74      1.0000 0.24415  0.30378  0.29232  Biso   1.000  H
  C71      1.0000 0.10518  0.38973  0.21403  Biso   1.000  C
  C72      1.0000 0.38612  0.39663  0.16648  Biso   1.000  C
  H75      1.0000 0.03879  0.93863  0.26519  Biso   1.000  H
  N37      1.0000 0.15587  0.94659  0.17941  Biso   1.000  N
  H76      1.0000 0.13240  0.00065  0.25011  Biso   1.000  H
  H77      1.0000 0.48012  0.94472  0.17769  Biso   1.000  H
  N38      1.0000 0.35332  0.94881  0.13951  Biso   1.000  N
  H78      1.0000 0.39026  0.00330  0.19868  Biso   1.000  H
  H79      1.0000 0.12271  0.33520  0.21261  Biso   1.000  H
  H80      1.0000 0.02692  0.39280  0.22738  Biso   1.000  H
  N39      1.0000 0.14592  0.44912  0.14501  Biso   1.000  N
  H81      1.0000 0.46429  0.40370  0.15292  Biso   1.000  H
  H82      1.0000 0.36992  0.34188  0.16931  Biso   1.000  H
  N40      1.0000 0.34390  0.45548  0.11243  Biso   1.000  N
  C73      1.0000 0.09720  0.90972  0.15281  Biso   1.000  C
  C74      1.0000 0.25302  0.98889  0.12799  Biso   1.000  C
  C75      1.0000 0.40861  0.92484  0.08588  Biso   1.000  C
  C76      1.0000 0.08704  0.51784  0.11950  Biso   1.000  C
  C77      1.0000 0.24591  0.44454  0.09369  Biso   1.000  C
  C78      1.0000 0.40002  0.52713  0.06839  Biso   1.000  C
  N41      1.0000 0.14905  0.92173  0.08452  Biso   1.000  N
  O19      1.0000 0.01069  0.87270  0.18475  Biso   1.000  O
  C79      1.0000 0.24608  0.97590  0.05902  Biso   1.000  C
  C80      1.0000 0.25800  0.08110  0.11730  Biso   1.000  C
  N42      1.0000 0.34653  0.93623  0.04053  Biso   1.000  N
  O20      1.0000 0.50070  0.89820  0.07850  Biso   1.000  O
  N43      1.0000 0.14517  0.56361  0.05268  Biso   1.000  N
  O21      1.0000 0.99854  0.53357  0.14983  Biso   1.000  O
  C81      1.0000 0.24504  0.52473  0.02870  Biso   1.000  C
  C82      1.0000 0.25051  0.36723  0.07489  Biso   1.000  C
  N44      1.0000 0.34304  0.56913  0.02089  Biso   1.000  N
  O22      1.0000 0.48704  0.54850  0.07023  Biso   1.000  O
  C83      1.0000 0.09701  0.90091  0.03990  Biso   1.000  C
  C84      1.0000 0.23320  0.05791  0.00099  Biso   1.000  C
  H83      1.0000 0.25769  0.08671  0.16119  Biso   1.000  H
  H84      1.0000 0.32506  0.10559  0.08342  Biso   1.000  H
  C85      1.0000 0.16319  0.12677  0.09180  Biso   1.000  C
  C86      1.0000 0.38415  0.91767  0.97706  Biso   1.000  C
  C87      1.0000 0.09952  0.63509  0.01100  Biso   1.000  C
  C88      1.0000 0.24785  0.50665  0.96366  Biso   1.000  C
  C89      1.0000 0.15968  0.36659  0.03980  Biso   1.000  C
  H85      1.0000 0.24261  0.31869  0.11699  Biso   1.000  H
  H86      1.0000 0.32027  0.36541  0.04320  Biso   1.000  H
  C90      1.0000 0.38503  0.64444  0.96418  Biso   1.000  C
  N45      1.0000 0.14266  0.83270  0.02011  Biso   1.000  N
  H87      1.0000 0.02112  0.88852  0.06389  Biso   1.000  H
  H88      1.0000 0.10098  0.94863  0.99770  Biso   1.000  H
  H89      1.0000 0.30094  0.08919  0.98188  Biso   1.000  H
  H90      1.0000 0.21586  0.04658  0.96339  Biso   1.000  H
  C91      1.0000 0.14337  0.10846  0.03022  Biso   1.000  C
  H91      1.0000 0.17647  0.18536  0.07750  Biso   1.000  H
  H92      1.0000 0.09836  0.11187  0.13040  Biso   1.000  H
  N46      1.0000 0.33938  0.84173  0.98151  Biso   1.000  N
  H93      1.0000 0.36568  0.96234  0.93889  Biso   1.000  H
  H94      1.0000 0.46234  0.91453  0.96596  Biso   1.000  H
  H95      1.0000 0.02172  0.63262  0.03090  Biso   1.000  H
  N47      1.0000 0.14185  0.71333  0.00555  Biso   1.000  N
  H96      1.0000 0.11233  0.63363  0.96418  Biso   1.000  H
  H97      1.0000 0.31754  0.48463  0.94779  Biso   1.000  H
  H98      1.0000 0.23893  0.55714  0.92668  Biso   1.000  H
  C92      1.0000 0.15773  0.44454  0.97827  Biso   1.000  C
  H99      1.0000 0.16908  0.32023  0.02398  Biso   1.000  H
  H100     1.0000 0.09053  0.35908  0.07431  Biso   1.000  H
  H101     1.0000 0.46272  0.64723  0.95706  Biso   1.000  H
  H102     1.0000 0.37194  0.64286  0.92166  Biso   1.000  H
  N48      1.0000 0.33894  0.71772  0.97523  Biso   1.000  N
  C93      1.0000 0.08193  0.76133  0.04011  Biso   1.000  C
  C94      1.0000 0.23909  0.83821  0.96413  Biso   1.000  C
  H103     1.0000 0.13814  0.16011  0.99309  Biso   1.000  H
  H104     1.0000 0.07478  0.07878  0.04561  Biso   1.000  H
  C95      1.0000 0.39821  0.77295  0.98424  Biso   1.000  C
  C96      1.0000 0.24002  0.75283  0.95701  Biso   1.000  C
  H105     1.0000 0.08815  0.46983  0.98738  Biso   1.000  H
  H106     1.0000 0.16557  0.43053  0.93690  Biso   1.000  H
  O23      1.0000 0.99203  0.74538  0.08012  Biso   1.000  O
  H107     1.0000 0.23526  0.88283  0.92056  Biso   1.000  H
  O24      1.0000 0.49019  0.76229  0.99288  Biso   1.000  O
  H108     1.0000 0.24185  0.75794  0.90919  Biso   1.000  H
  Ne1      1.0000 0.24905  0.67149  0.20673  Biso   1.000  Ne
  He1      1.0000 0.99371  0.66795  0.24835  Biso   1.000  He
  He2      1.0000 0.52152  0.67041  0.15896  Biso   1.000  He
  Ar1      1.0000 0.24970  0.67190  0.20571  Biso   1.000  Ar
  Ne2      1.0000 0.75090  0.32854  0.79326  Biso   1.000  Ne
  He3      1.0000 0.49127  0.32976  0.83868  Biso   1.000  He
  He4      1.0000 0.00885  0.33210  0.75111  Biso   1.000  He
  Ar2      1.0000 0.75023  0.32811  0.79432  Biso   1.000  Ar
