data_image0
_cell_length_a       10.697
_cell_length_b       12.361
_cell_length_c       17.412
_cell_angle_alpha    77.69
_cell_angle_beta     77.99
_cell_angle_gamma    88.46

_symmetry_space_group_name_H-M    "P 1"
_symmetry_int_tables_number       1

loop_
  _symmetry_equiv_pos_as_xyz
  'x, y, z'

loop_
  _atom_site_label
  _atom_site_occupancy
  _atom_site_fract_x
  _atom_site_fract_y
  _atom_site_fract_z
  _atom_site_thermal_displace_type
  _atom_site_B_iso_or_equiv
  _atom_site_type_symbol
  C1       1.0000 0.52396  0.71005  0.31419  Biso   1.000  C
  O1       1.0000 0.56818  0.65696  0.24894  Biso   1.000  O
  H1       1.0000 0.58529  0.76945  0.31257  Biso   1.000  H
  H2       1.0000 0.51773  0.65581  0.36569  Biso   1.000  H
  C2       1.0000 0.39472  0.75858  0.30849  Biso   1.000  C
  C3       1.0000 0.69927  0.62762  0.24245  Biso   1.000  C
  O2       1.0000 0.30657  0.67517  0.30867  Biso   1.000  O
  H3       1.0000 0.36323  0.79422  0.35457  Biso   1.000  H
  H4       1.0000 0.40229  0.81611  0.25849  Biso   1.000  H
  C4       1.0000 0.72866  0.54438  0.18981  Biso   1.000  C
  H5       1.0000 0.71611  0.59548  0.29641  Biso   1.000  H
  H6       1.0000 0.75463  0.69432  0.21890  Biso   1.000  H
  C5       1.0000 0.18109  0.71840  0.31167  Biso   1.000  C
  O3       1.0000 0.66759  0.44142  0.23548  Biso   1.000  O
  H7       1.0000 0.69535  0.56928  0.14012  Biso   1.000  H
  H8       1.0000 0.82213  0.53513  0.17467  Biso   1.000  H
  C6       1.0000 0.09335  0.62895  0.30650  Biso   1.000  C
  H9       1.0000 0.18175  0.78242  0.26631  Biso   1.000  H
  H10      1.0000 0.15103  0.74375  0.36250  Biso   1.000  H
  C7       1.0000 0.66567  0.35587  0.19709  Biso   1.000  C
  O4       1.0000 0.12487  0.61037  0.22647  Biso   1.000  O
  H11      1.0000 0.10415  0.56016  0.34550  Biso   1.000  H
  H12      1.0000 0.00339  0.65188  0.31912  Biso   1.000  H
  C8       1.0000 0.60987  0.25752  0.24582  Biso   1.000  C
  C9       1.0000 0.71296  0.36371  0.11555  Biso   1.000  C
  C10      1.0000 0.07578  0.51687  0.21217  Biso   1.000  C
  C11      1.0000 0.59476  0.16821  0.21169  Biso   1.000  C
  H13      1.0000 0.58239  0.25157  0.30212  Biso   1.000  H
  C12      1.0000 0.69864  0.27236  0.08256  Biso   1.000  C
  H14      1.0000 0.75430  0.42982  0.08292  Biso   1.000  H
  C13      1.0000 0.00101  0.43742  0.27129  Biso   1.000  C
  C14      1.0000 0.10949  0.50340  0.13375  Biso   1.000  C
  C15      1.0000 0.53498  0.06158  0.26300  Biso   1.000  C
  C16      1.0000 0.63830  0.17497  0.12943  Biso   1.000  C
  O5       1.0000 0.74353  0.28955  0.00144  Biso   1.000  O
  C17      1.0000 0.96611  0.34141  0.25008  Biso   1.000  C
  H15      1.0000 0.97417  0.44809  0.32471  Biso   1.000  H
  C18      1.0000 0.07260  0.40779  0.11314  Biso   1.000  C
  H16      1.0000 0.15798  0.55966  0.09362  Biso   1.000  H
  O6       1.0000 0.42681  0.08664  0.32201  Biso   1.000  O
  H17      1.0000 0.50607  0.01647  0.22911  Biso   1.000  H
  H18      1.0000 0.59848  0.01871  0.29058  Biso   1.000  H
  H19      1.0000 0.62704  0.11428  0.10587  Biso   1.000  H
  C19      1.0000 0.77047  0.19622  0.96305  Biso   1.000  C
  C20      1.0000 0.89779  0.24899  0.31564  Biso   1.000  C
  C21      1.0000 0.00028  0.32535  0.17221  Biso   1.000  C
  O7       1.0000 0.11392  0.40275  0.03467  Biso   1.000  O
  C22      1.0000 0.40203  0.01591  0.39225  Biso   1.000  C
  H20      1.0000 0.77076  0.12781  0.00463  Biso   1.000  H
  H21      1.0000 0.85648  0.20644  0.92760  Biso   1.000  H
  C23      1.0000 0.67348  0.18401  0.91462  Biso   1.000  C
  O8       1.0000 0.99507  0.19010  0.35620  Biso   1.000  O
  H22      1.0000 0.83262  0.27952  0.35427  Biso   1.000  H
  H23      1.0000 0.85455  0.19786  0.29232  Biso   1.000  H
  H24      1.0000 0.97516  0.25959  0.15911  Biso   1.000  H
  C24      1.0000 0.07111  0.31043  0.00805  Biso   1.000  C
  C25      1.0000 0.28472  0.04514  0.44777  Biso   1.000  C
  O9       1.0000 0.46595  0.93630  0.41178  Biso   1.000  O
  O10      1.0000 0.54949  0.16489  0.96503  Biso   1.000  O
  H25      1.0000 0.67342  0.25213  0.87268  Biso   1.000  H
  H26      1.0000 0.69618  0.12119  0.88758  Biso   1.000  H
  C26      1.0000 0.98278  0.18544  0.43377  Biso   1.000  C
  C27      1.0000 0.14542  0.20722  0.02584  Biso   1.000  C
  H27      1.0000 0.98005  0.29430  0.03413  Biso   1.000  H
  H28      1.0000 0.07648  0.33172  0.94941  Biso   1.000  H
  N1       1.0000 0.19265  0.10085  0.41532  Biso   1.000  N
  C28      1.0000 0.27833  0.01231  0.52955  Biso   1.000  C
  C29      1.0000 0.46026  0.12989  0.92423  Biso   1.000  C
  C30      1.0000 0.09003  0.12643  0.46700  Biso   1.000  C
  O11      1.0000 0.89521  0.22249  0.47475  Biso   1.000  O
  O12      1.0000 0.27228  0.22134  0.97789  Biso   1.000  O
  H29      1.0000 0.14915  0.18945  0.08352  Biso   1.000  H
  H30      1.0000 0.10186  0.14460  0.01418  Biso   1.000  H
  C31      1.0000 0.17434  0.04166  0.58134  Biso   1.000  C
  H31      1.0000 0.34468  0.97013  0.54950  Biso   1.000  H
  H32      1.0000 0.48743  0.05883  0.90903  Biso   1.000  H
  H33      1.0000 0.45782  0.18566  0.87442  Biso   1.000  H
  C32      1.0000 0.33020  0.11593  0.97747  Biso   1.000  C
  C33      1.0000 0.07866  0.10057  0.54956  Biso   1.000  C
  H34      1.0000 0.16816  0.02181  0.63782  Biso   1.000  H
  H35      1.0000 0.33681  0.07926  0.03281  Biso   1.000  H
  H36      1.0000 0.27624  0.06833  0.95788  Biso   1.000  H
  H37      1.0000 0.00603  0.12305  0.58393  Biso   1.000  H
  C34      1.0000 0.47601  0.28988  0.68583  Biso   1.000  C
  O13      1.0000 0.43180  0.34299  0.75103  Biso   1.000  O
  H38      1.0000 0.41469  0.23042  0.68740  Biso   1.000  H
  H39      1.0000 0.48225  0.34414  0.63428  Biso   1.000  H
  C35      1.0000 0.60526  0.24137  0.69148  Biso   1.000  C
  C36      1.0000 0.30071  0.37233  0.75752  Biso   1.000  C
  O14      1.0000 0.69339  0.32476  0.69136  Biso   1.000  O
  H40      1.0000 0.63675  0.20573  0.64539  Biso   1.000  H
  H41      1.0000 0.59778  0.18385  0.74147  Biso   1.000  H
  C37      1.0000 0.27133  0.45558  0.81015  Biso   1.000  C
  H42      1.0000 0.28394  0.40445  0.70362  Biso   1.000  H
  H43      1.0000 0.24533  0.30561  0.78113  Biso   1.000  H
  C38      1.0000 0.81887  0.28153  0.68836  Biso   1.000  C
  O15      1.0000 0.33240  0.55845  0.76449  Biso   1.000  O
  H44      1.0000 0.30461  0.43066  0.85991  Biso   1.000  H
  H45      1.0000 0.17785  0.46482  0.82530  Biso   1.000  H
  H46      1.0000 0.81821  0.21751  0.73372  Biso   1.000  H
  H47      1.0000 0.84894  0.25611  0.63752  Biso   1.000  H
  C39      1.0000 0.90661  0.37090  0.69352  Biso   1.000  C
  C40      1.0000 0.33429  0.64406  0.80294  Biso   1.000  C
  O16      1.0000 0.87509  0.38956  0.77356  Biso   1.000  O
  H48      1.0000 0.89581  0.43978  0.65453  Biso   1.000  H
  H49      1.0000 0.99658  0.34805  0.68091  Biso   1.000  H
  C41      1.0000 0.28702  0.63624  0.88442  Biso   1.000  C
  C42      1.0000 0.39009  0.74241  0.75421  Biso   1.000  C
  C43      1.0000 0.92420  0.48308  0.78780  Biso   1.000  C
  C44      1.0000 0.30132  0.72757  0.91747  Biso   1.000  C
  H50      1.0000 0.24566  0.57011  0.91711  Biso   1.000  H
  H51      1.0000 0.41757  0.74837  0.69791  Biso   1.000  H
  C45      1.0000 0.40520  0.83172  0.78834  Biso   1.000  C
  C46      1.0000 0.89050  0.49655  0.86621  Biso   1.000  C
  C47      1.0000 0.99896  0.56252  0.72874  Biso   1.000  C
  O17      1.0000 0.25645  0.71040  0.99853  Biso   1.000  O
  C48      1.0000 0.36166  0.82497  0.87060  Biso   1.000  C
  C49      1.0000 0.46498  0.93835  0.73703  Biso   1.000  C
  C50      1.0000 0.92738  0.59216  0.88682  Biso   1.000  C
  H52      1.0000 0.84199  0.44019  0.90641  Biso   1.000  H
  H53      1.0000 0.02579  0.55185  0.67532  Biso   1.000  H
  C51      1.0000 0.03387  0.65854  0.74989  Biso   1.000  C
  C52      1.0000 0.22949  0.80371  0.03698  Biso   1.000  C
  H54      1.0000 0.37294  0.88567  0.89409  Biso   1.000  H
  O18      1.0000 0.57316  0.91329  0.67802  Biso   1.000  O
  H55      1.0000 0.49389  0.98347  0.77092  Biso   1.000  H
  H56      1.0000 0.40150  0.98124  0.70939  Biso   1.000  H
  O19      1.0000 0.88606  0.59720  0.96530  Biso   1.000  O
  C53      1.0000 0.99969  0.67450  0.82782  Biso   1.000  C
  C54      1.0000 0.10217  0.75095  0.68439  Biso   1.000  C
  H57      1.0000 0.22921  0.87212  0.99540  Biso   1.000  H
  H58      1.0000 0.14348  0.79350  0.07243  Biso   1.000  H
  C55      1.0000 0.32648  0.81592  0.08541  Biso   1.000  C
  C56      1.0000 0.59795  0.98404  0.60772  Biso   1.000  C
  C57      1.0000 0.92887  0.68952  0.99192  Biso   1.000  C
  H59      1.0000 0.02480  0.74034  0.84092  Biso   1.000  H
  O20      1.0000 0.00489  0.80984  0.64383  Biso   1.000  O
  H60      1.0000 0.16736  0.72043  0.64570  Biso   1.000  H
  H61      1.0000 0.14541  0.80207  0.70770  Biso   1.000  H
  O21      1.0000 0.45047  0.83504  0.03500  Biso   1.000  O
  H62      1.0000 0.32666  0.74782  0.12729  Biso   1.000  H
  H63      1.0000 0.30380  0.87868  0.11239  Biso   1.000  H
  C58      1.0000 0.71526  0.95473  0.55220  Biso   1.000  C
  O22      1.0000 0.53403  0.06365  0.58819  Biso   1.000  O
  C59      1.0000 0.85464  0.79271  0.97419  Biso   1.000  C
  H64      1.0000 0.92348  0.66821  0.05062  Biso   1.000  H
  H65      1.0000 0.01991  0.70563  0.96590  Biso   1.000  H
  C60      1.0000 0.01720  0.81443  0.56620  Biso   1.000  C
  C61      1.0000 0.53971  0.86996  0.07580  Biso   1.000  C
  N2       1.0000 0.80732  0.89909  0.58471  Biso   1.000  N
  C62      1.0000 0.72165  0.98764  0.47042  Biso   1.000  C
  H66      1.0000 0.85081  0.81040  0.91651  Biso   1.000  H
  H67      1.0000 0.89812  0.85535  0.98579  Biso   1.000  H
  O23      1.0000 0.72770  0.77853  0.02208  Biso   1.000  O
  C63      1.0000 0.90996  0.87344  0.53297  Biso   1.000  C
  O24      1.0000 0.10478  0.77746  0.52522  Biso   1.000  O
  H68      1.0000 0.51253  0.94110  0.09100  Biso   1.000  H
  H69      1.0000 0.54214  0.81427  0.12561  Biso   1.000  H
  C64      1.0000 0.66976  0.88400  0.02256  Biso   1.000  C
  C65      1.0000 0.82562  0.95827  0.41869  Biso   1.000  C
  H70      1.0000 0.65531  0.02974  0.45047  Biso   1.000  H
  C66      1.0000 0.92132  0.89938  0.45041  Biso   1.000  C
  H71      1.0000 0.66316  0.92059  0.96722  Biso   1.000  H
  H72      1.0000 0.72384  0.93162  0.04209  Biso   1.000  H
  H73      1.0000 0.83180  0.97804  0.36220  Biso   1.000  H
  H74      1.0000 0.99393  0.87689  0.41610  Biso   1.000  H
