data_image0
_cell_length_a       18.035
_cell_length_b       28.636
_cell_length_c       21.362
_cell_angle_alpha    90
_cell_angle_beta     90
_cell_angle_gamma    90

_symmetry_space_group_name_H-M    "P 1"
_symmetry_int_tables_number       1

loop_
  _symmetry_equiv_pos_as_xyz
  'x, y, z'

loop_
  _atom_site_label
  _atom_site_occupancy
  _atom_site_fract_x
  _atom_site_fract_y
  _atom_site_fract_z
  _atom_site_thermal_displace_type
  _atom_site_B_iso_or_equiv
  _atom_site_type_symbol
  C1       1.0000 0.50003  0.50698  0.58080  Biso   1.000  C
  C2       1.0000 0.50003  0.45579  0.58333  Biso   1.000  C
  C3       1.0000 0.43421  0.53174  0.58131  Biso   1.000  C
  C4       1.0000 0.56579  0.53174  0.58131  Biso   1.000  C
  C5       1.0000 0.43371  0.42970  0.58440  Biso   1.000  C
  C6       1.0000 0.56629  0.42970  0.58440  Biso   1.000  C
  H1       1.0000 0.38863  0.51509  0.58052  Biso   1.000  H
  C7       1.0000 0.43310  0.58123  0.58300  Biso   1.000  C
  H2       1.0000 0.61142  0.51509  0.58052  Biso   1.000  H
  C8       1.0000 0.56690  0.58123  0.58300  Biso   1.000  C
  C9       1.0000 0.43532  0.38280  0.59222  Biso   1.000  C
  H3       1.0000 0.38752  0.44521  0.57963  Biso   1.000  H
  C10      1.0000 0.56474  0.38280  0.59222  Biso   1.000  C
  H4       1.0000 0.61253  0.44521  0.57963  Biso   1.000  H
  C11      1.0000 0.50003  0.60431  0.58431  Biso   1.000  C
  C12      1.0000 0.36241  0.60693  0.58553  Biso   1.000  C
  C13      1.0000 0.63759  0.60693  0.58553  Biso   1.000  C
  N1       1.0000 0.50003  0.35920  0.59671  Biso   1.000  N
  H5       1.0000 0.38991  0.36611  0.59451  Biso   1.000  H
  H6       1.0000 0.61009  0.36611  0.59451  Biso   1.000  H
  H7       1.0000 0.50003  0.63741  0.58623  Biso   1.000  H
  C14      1.0000 0.35692  0.65411  0.57041  Biso   1.000  C
  C15      1.0000 0.29642  0.58650  0.60570  Biso   1.000  C
  C16      1.0000 0.64314  0.65411  0.57041  Biso   1.000  C
  C17      1.0000 0.70363  0.58650  0.60570  Biso   1.000  C
  C18      1.0000 0.50003  0.30961  0.61432  Biso   1.000  C
  H8       1.0000 0.39922  0.66961  0.55411  Biso   1.000  H
  C19      1.0000 0.29293  0.67880  0.57822  Biso   1.000  C
  C20      1.0000 0.23260  0.61231  0.61240  Biso   1.000  C
  H9       1.0000 0.29543  0.55399  0.61502  Biso   1.000  H
  H10      1.0000 0.60083  0.66961  0.55411  Biso   1.000  H
  C21      1.0000 0.70713  0.67880  0.57822  Biso   1.000  C
  C22      1.0000 0.76740  0.61231  0.61240  Biso   1.000  C
  H11      1.0000 0.70463  0.55399  0.61502  Biso   1.000  H
  C23      1.0000 0.50003  0.30462  0.68542  Biso   1.000  C
  H12      1.0000 0.45561  0.29411  0.59671  Biso   1.000  H
  H13      1.0000 0.54439  0.29411  0.59671  Biso   1.000  H
  N2       1.0000 0.23310  0.65830  0.59943  Biso   1.000  N
  H14      1.0000 0.29182  0.71110  0.56830  Biso   1.000  H
  H15      1.0000 0.18819  0.59771  0.62630  Biso   1.000  H
  N3       1.0000 0.76690  0.65830  0.59943  Biso   1.000  N
  H16      1.0000 0.70823  0.71110  0.56830  Biso   1.000  H
  H17      1.0000 0.81181  0.59771  0.62630  Biso   1.000  H
  C24      1.0000 0.43260  0.30420  0.71740  Biso   1.000  C
  C25      1.0000 0.56740  0.30420  0.71740  Biso   1.000  C
  C26      1.0000 0.16490  0.68690  0.61403  Biso   1.000  C
  C27      1.0000 0.83510  0.68690  0.61403  Biso   1.000  C
  C28      1.0000 0.43260  0.30420  0.78260  Biso   1.000  C
  H18      1.0000 0.38708  0.30399  0.69493  Biso   1.000  H
  C29      1.0000 0.56740  0.30420  0.78260  Biso   1.000  C
  H19      1.0000 0.61292  0.30399  0.69493  Biso   1.000  H
  H20      1.0000 0.12010  0.67171  0.59662  Biso   1.000  H
  H21      1.0000 0.16928  0.71850  0.59559  Biso   1.000  H
  C30      1.0000 0.15952  0.69001  0.68421  Biso   1.000  C
  H22      1.0000 0.87990  0.67171  0.59662  Biso   1.000  H
  H23      1.0000 0.83072  0.71850  0.59559  Biso   1.000  H
  C31      1.0000 0.84053  0.69001  0.68421  Biso   1.000  C
  H24      1.0000 0.38708  0.30399  0.80512  Biso   1.000  H
  C32      1.0000 0.50003  0.30462  0.81462  Biso   1.000  C
  H25      1.0000 0.61292  0.30399  0.80512  Biso   1.000  H
  C33      1.0000 0.21048  0.71578  0.71871  Biso   1.000  C
  C34      1.0000 0.10701  0.66801  0.71852  Biso   1.000  C
  C35      1.0000 0.78952  0.71578  0.71871  Biso   1.000  C
  C36      1.0000 0.89304  0.66801  0.71852  Biso   1.000  C
  C37      1.0000 0.50003  0.30961  0.88573  Biso   1.000  C
  C38      1.0000 0.21048  0.71578  0.78129  Biso   1.000  C
  H26      1.0000 0.24652  0.73390  0.69722  Biso   1.000  H
  C39      1.0000 0.10701  0.66801  0.78153  Biso   1.000  C
  H27      1.0000 0.06848  0.65180  0.69722  Biso   1.000  H
  C40      1.0000 0.78952  0.71578  0.78129  Biso   1.000  C
  H28      1.0000 0.75353  0.73390  0.69722  Biso   1.000  H
  C41      1.0000 0.89304  0.66801  0.78153  Biso   1.000  C
  H29      1.0000 0.93152  0.65180  0.69722  Biso   1.000  H
  N4       1.0000 0.50003  0.35920  0.90333  Biso   1.000  N
  H30      1.0000 0.45561  0.29411  0.90333  Biso   1.000  H
  H31      1.0000 0.54439  0.29411  0.90333  Biso   1.000  H
  C42      1.0000 0.15952  0.69001  0.81579  Biso   1.000  C
  H32      1.0000 0.24652  0.73390  0.80283  Biso   1.000  H
  H33      1.0000 0.06848  0.65180  0.80283  Biso   1.000  H
  C43      1.0000 0.84053  0.69001  0.81579  Biso   1.000  C
  H34      1.0000 0.75353  0.73390  0.80283  Biso   1.000  H
  H35      1.0000 0.93152  0.65180  0.80283  Biso   1.000  H
  C44      1.0000 0.43532  0.38280  0.90783  Biso   1.000  C
  C45      1.0000 0.56474  0.38280  0.90783  Biso   1.000  C
  C46      1.0000 0.16490  0.68690  0.88601  Biso   1.000  C
  C47      1.0000 0.83510  0.68690  0.88601  Biso   1.000  C
  H36      1.0000 0.38991  0.36611  0.90553  Biso   1.000  H
  C48      1.0000 0.43371  0.42970  0.91560  Biso   1.000  C
  H37      1.0000 0.61009  0.36611  0.90553  Biso   1.000  H
  C49      1.0000 0.56629  0.42970  0.91560  Biso   1.000  C
  N5       1.0000 0.23310  0.65830  0.90062  Biso   1.000  N
  H38      1.0000 0.12010  0.67171  0.90343  Biso   1.000  H
  H39      1.0000 0.16928  0.71850  0.90441  Biso   1.000  H
  N6       1.0000 0.76690  0.65830  0.90062  Biso   1.000  N
  H40      1.0000 0.87990  0.67171  0.90343  Biso   1.000  H
  H41      1.0000 0.83072  0.71850  0.90441  Biso   1.000  H
  H42      1.0000 0.38752  0.44521  0.92042  Biso   1.000  H
  C50      1.0000 0.50003  0.45579  0.91672  Biso   1.000  C
  H43      1.0000 0.61253  0.44521  0.92042  Biso   1.000  H
  C51      1.0000 0.29293  0.67880  0.92182  Biso   1.000  C
  C52      1.0000 0.23260  0.61231  0.88760  Biso   1.000  C
  C53      1.0000 0.70713  0.67880  0.92182  Biso   1.000  C
  C54      1.0000 0.76740  0.61231  0.88760  Biso   1.000  C
  C55      1.0000 0.50003  0.50698  0.91920  Biso   1.000  C
  C56      1.0000 0.35692  0.65411  0.92959  Biso   1.000  C
  H44      1.0000 0.29182  0.71110  0.93170  Biso   1.000  H
  C57      1.0000 0.29642  0.58650  0.89430  Biso   1.000  C
  H45      1.0000 0.18819  0.59771  0.87370  Biso   1.000  H
  C58      1.0000 0.64314  0.65411  0.92959  Biso   1.000  C
  H46      1.0000 0.70823  0.71110  0.93170  Biso   1.000  H
  C59      1.0000 0.70363  0.58650  0.89430  Biso   1.000  C
  H47      1.0000 0.81181  0.59771  0.87370  Biso   1.000  H
  C60      1.0000 0.43421  0.53174  0.91873  Biso   1.000  C
  C61      1.0000 0.56579  0.53174  0.91873  Biso   1.000  C
  C62      1.0000 0.36241  0.60693  0.91452  Biso   1.000  C
  H48      1.0000 0.39922  0.66961  0.94593  Biso   1.000  H
  H49      1.0000 0.29543  0.55399  0.88503  Biso   1.000  H
  C63      1.0000 0.63759  0.60693  0.91452  Biso   1.000  C
  H50      1.0000 0.60083  0.66961  0.94593  Biso   1.000  H
  H51      1.0000 0.70463  0.55399  0.88503  Biso   1.000  H
  H52      1.0000 0.38863  0.51509  0.91953  Biso   1.000  H
  C64      1.0000 0.43310  0.58123  0.91700  Biso   1.000  C
  H53      1.0000 0.61142  0.51509  0.91953  Biso   1.000  H
  C65      1.0000 0.56690  0.58123  0.91700  Biso   1.000  C
  C66      1.0000 0.50003  0.60431  0.91574  Biso   1.000  C
  H54      1.0000 0.50003  0.63741  0.91382  Biso   1.000  H
  C67      1.0000 0.50003  0.49302  0.41920  Biso   1.000  C
  C68      1.0000 0.43421  0.46826  0.41869  Biso   1.000  C
  C69      1.0000 0.56579  0.46826  0.41869  Biso   1.000  C
  C70      1.0000 0.50003  0.54421  0.41672  Biso   1.000  C
  C71      1.0000 0.43310  0.41877  0.41700  Biso   1.000  C
  H55      1.0000 0.38863  0.48491  0.41953  Biso   1.000  H
  C72      1.0000 0.56690  0.41877  0.41700  Biso   1.000  C
  H56      1.0000 0.61142  0.48491  0.41953  Biso   1.000  H
  C73      1.0000 0.56629  0.57030  0.41560  Biso   1.000  C
  C74      1.0000 0.43371  0.57030  0.41560  Biso   1.000  C
  C75      1.0000 0.36241  0.39307  0.41452  Biso   1.000  C
  C76      1.0000 0.50003  0.39569  0.41569  Biso   1.000  C
  C77      1.0000 0.63759  0.39307  0.41452  Biso   1.000  C
  C78      1.0000 0.56474  0.61720  0.40783  Biso   1.000  C
  H57      1.0000 0.61253  0.55479  0.42042  Biso   1.000  H
  C79      1.0000 0.43532  0.61720  0.40783  Biso   1.000  C
  H58      1.0000 0.38752  0.55479  0.42042  Biso   1.000  H
  C80      1.0000 0.35692  0.34589  0.42959  Biso   1.000  C
  C81      1.0000 0.29642  0.41350  0.39430  Biso   1.000  C
  H59      1.0000 0.50003  0.36259  0.41382  Biso   1.000  H
  C82      1.0000 0.64314  0.34589  0.42959  Biso   1.000  C
  C83      1.0000 0.70363  0.41350  0.39430  Biso   1.000  C
  N7       1.0000 0.50003  0.64080  0.40329  Biso   1.000  N
  H60      1.0000 0.61009  0.63389  0.40549  Biso   1.000  H
  H61      1.0000 0.38991  0.63389  0.40549  Biso   1.000  H
  C84      1.0000 0.29293  0.32120  0.42182  Biso   1.000  C
  H62      1.0000 0.39922  0.33039  0.44589  Biso   1.000  H
  C85      1.0000 0.23260  0.38769  0.38760  Biso   1.000  C
  H63      1.0000 0.29543  0.44601  0.38503  Biso   1.000  H
  H64      1.0000 0.60083  0.33039  0.44589  Biso   1.000  H
  C86      1.0000 0.70713  0.32120  0.42182  Biso   1.000  C
  C87      1.0000 0.76740  0.38769  0.38760  Biso   1.000  C
  H65      1.0000 0.70463  0.44601  0.38503  Biso   1.000  H
  C88      1.0000 0.50003  0.69039  0.38568  Biso   1.000  C
  N8       1.0000 0.23310  0.34170  0.40062  Biso   1.000  N
  H66      1.0000 0.29182  0.28890  0.43170  Biso   1.000  H
  H67      1.0000 0.18819  0.40229  0.37370  Biso   1.000  H
  N9       1.0000 0.76690  0.34170  0.40062  Biso   1.000  N
  H68      1.0000 0.70823  0.28890  0.43170  Biso   1.000  H
  H69      1.0000 0.81181  0.40229  0.37370  Biso   1.000  H
  C89      1.0000 0.50003  0.69538  0.31462  Biso   1.000  C
  H70      1.0000 0.54439  0.70589  0.40329  Biso   1.000  H
  H71      1.0000 0.45561  0.70589  0.40329  Biso   1.000  H
  C90      1.0000 0.16490  0.31310  0.38601  Biso   1.000  C
  C91      1.0000 0.83510  0.31310  0.38601  Biso   1.000  C
  C92      1.0000 0.56740  0.69580  0.28260  Biso   1.000  C
  C93      1.0000 0.43260  0.69580  0.28260  Biso   1.000  C
  C94      1.0000 0.15952  0.30999  0.31579  Biso   1.000  C
  H72      1.0000 0.12010  0.32829  0.40343  Biso   1.000  H
  H73      1.0000 0.16928  0.28150  0.40441  Biso   1.000  H
  H74      1.0000 0.87990  0.32829  0.40343  Biso   1.000  H
  H75      1.0000 0.83072  0.28150  0.40441  Biso   1.000  H
  C95      1.0000 0.84053  0.30999  0.31579  Biso   1.000  C
  C96      1.0000 0.56740  0.69580  0.21740  Biso   1.000  C
  H76      1.0000 0.61292  0.69601  0.30512  Biso   1.000  H
  C97      1.0000 0.43260  0.69580  0.21740  Biso   1.000  C
  H77      1.0000 0.38708  0.69601  0.30512  Biso   1.000  H
  C98      1.0000 0.21048  0.28422  0.28129  Biso   1.000  C
  C99      1.0000 0.10701  0.33199  0.28153  Biso   1.000  C
  C100     1.0000 0.78952  0.28422  0.28129  Biso   1.000  C
  C101     1.0000 0.89304  0.33199  0.28153  Biso   1.000  C
  C102     1.0000 0.50003  0.69538  0.18542  Biso   1.000  C
  H78      1.0000 0.61292  0.69601  0.19493  Biso   1.000  H
  H79      1.0000 0.38708  0.69601  0.19493  Biso   1.000  H
  C103     1.0000 0.21048  0.28422  0.21871  Biso   1.000  C
  H80      1.0000 0.24652  0.26610  0.30283  Biso   1.000  H
  C104     1.0000 0.10701  0.33199  0.21852  Biso   1.000  C
  H81      1.0000 0.06848  0.34820  0.30283  Biso   1.000  H
  C105     1.0000 0.78952  0.28422  0.21871  Biso   1.000  C
  H82      1.0000 0.75353  0.26610  0.30283  Biso   1.000  H
  C106     1.0000 0.89304  0.33199  0.21852  Biso   1.000  C
  H83      1.0000 0.93152  0.34820  0.30283  Biso   1.000  H
  C107     1.0000 0.50003  0.69039  0.11432  Biso   1.000  C
  C108     1.0000 0.15952  0.30999  0.18421  Biso   1.000  C
  H84      1.0000 0.24652  0.26610  0.19722  Biso   1.000  H
  H85      1.0000 0.06848  0.34820  0.19722  Biso   1.000  H
  C109     1.0000 0.84053  0.30999  0.18421  Biso   1.000  C
  H86      1.0000 0.75353  0.26610  0.19722  Biso   1.000  H
  H87      1.0000 0.93152  0.34820  0.19722  Biso   1.000  H
  N10      1.0000 0.50003  0.64080  0.09671  Biso   1.000  N
  H88      1.0000 0.54439  0.70589  0.09671  Biso   1.000  H
  H89      1.0000 0.45561  0.70589  0.09671  Biso   1.000  H
  C110     1.0000 0.16490  0.31310  0.11399  Biso   1.000  C
  C111     1.0000 0.83510  0.31310  0.11399  Biso   1.000  C
  C112     1.0000 0.56474  0.61720  0.09222  Biso   1.000  C
  C113     1.0000 0.43532  0.61720  0.09222  Biso   1.000  C
  N11      1.0000 0.23310  0.34170  0.09938  Biso   1.000  N
  H90      1.0000 0.12010  0.32829  0.09662  Biso   1.000  H
  H91      1.0000 0.16928  0.28150  0.09559  Biso   1.000  H
  N12      1.0000 0.76690  0.34170  0.09938  Biso   1.000  N
  H92      1.0000 0.87990  0.32829  0.09662  Biso   1.000  H
  H93      1.0000 0.83072  0.28150  0.09559  Biso   1.000  H
  C114     1.0000 0.56629  0.57030  0.08440  Biso   1.000  C
  H94      1.0000 0.61009  0.63389  0.09451  Biso   1.000  H
  C115     1.0000 0.43371  0.57030  0.08440  Biso   1.000  C
  H95      1.0000 0.38991  0.63389  0.09451  Biso   1.000  H
  C116     1.0000 0.29293  0.32120  0.07822  Biso   1.000  C
  C117     1.0000 0.23260  0.38769  0.11240  Biso   1.000  C
  C118     1.0000 0.70713  0.32120  0.07822  Biso   1.000  C
  C119     1.0000 0.76740  0.38769  0.11240  Biso   1.000  C
  C120     1.0000 0.50003  0.54421  0.08328  Biso   1.000  C
  H96      1.0000 0.61253  0.55479  0.07958  Biso   1.000  H
  H97      1.0000 0.38752  0.55479  0.07958  Biso   1.000  H
  C121     1.0000 0.35692  0.34589  0.07041  Biso   1.000  C
  H98      1.0000 0.29182  0.28890  0.06830  Biso   1.000  H
  H99      1.0000 0.18819  0.40229  0.12630  Biso   1.000  H
  C122     1.0000 0.29642  0.41350  0.10570  Biso   1.000  C
  C123     1.0000 0.64314  0.34589  0.07041  Biso   1.000  C
  H100     1.0000 0.70823  0.28890  0.06830  Biso   1.000  H
  C124     1.0000 0.70363  0.41350  0.10570  Biso   1.000  C
  H101     1.0000 0.81181  0.40229  0.12630  Biso   1.000  H
  C125     1.0000 0.50003  0.49302  0.08080  Biso   1.000  C
  C126     1.0000 0.36241  0.39307  0.08548  Biso   1.000  C
  H102     1.0000 0.39922  0.33039  0.05411  Biso   1.000  H
  H103     1.0000 0.29543  0.44601  0.11502  Biso   1.000  H
  C127     1.0000 0.63759  0.39307  0.08548  Biso   1.000  C
  H104     1.0000 0.60083  0.33039  0.05411  Biso   1.000  H
  H105     1.0000 0.70463  0.44601  0.11502  Biso   1.000  H
  C128     1.0000 0.43421  0.46826  0.08131  Biso   1.000  C
  C129     1.0000 0.56579  0.46826  0.08131  Biso   1.000  C
  C130     1.0000 0.43310  0.41877  0.08300  Biso   1.000  C
  C131     1.0000 0.56690  0.41877  0.08300  Biso   1.000  C
  H106     1.0000 0.38863  0.48491  0.08052  Biso   1.000  H
  H107     1.0000 0.61142  0.48491  0.08052  Biso   1.000  H
  C132     1.0000 0.50003  0.39569  0.08431  Biso   1.000  C
  H108     1.0000 0.50003  0.36259  0.08618  Biso   1.000  H
  C133     1.0000 0.66487  0.81310  0.38601  Biso   1.000  C
  C134     1.0000 0.65950  0.80999  0.31579  Biso   1.000  C
  H109     1.0000 0.66931  0.78150  0.40441  Biso   1.000  H
  N13      1.0000 0.73313  0.84170  0.40062  Biso   1.000  N
  H110     1.0000 0.62013  0.82829  0.40343  Biso   1.000  H
  C135     1.0000 0.71051  0.78422  0.28129  Biso   1.000  C
  C136     1.0000 0.60699  0.83199  0.28153  Biso   1.000  C
  C137     1.0000 0.66493  0.81310  0.38601  Biso   1.000  C
  C138     1.0000 0.79290  0.82120  0.42182  Biso   1.000  C
  C139     1.0000 0.73263  0.88769  0.38760  Biso   1.000  C
  H111     1.0000 0.74649  0.76610  0.30283  Biso   1.000  H
  C140     1.0000 0.71051  0.78422  0.21871  Biso   1.000  C
  H112     1.0000 0.56851  0.84820  0.30283  Biso   1.000  H
  C141     1.0000 0.60699  0.83199  0.21852  Biso   1.000  C
  C142     1.0000 0.85689  0.84589  0.42959  Biso   1.000  C
  H113     1.0000 0.79179  0.78890  0.43170  Biso   1.000  H
  H114     1.0000 0.68822  0.90229  0.37370  Biso   1.000  H
  C143     1.0000 0.79640  0.91350  0.39430  Biso   1.000  C
  C144     1.0000 0.65950  0.80999  0.18421  Biso   1.000  C
  H115     1.0000 0.74649  0.76610  0.19722  Biso   1.000  H
  H116     1.0000 0.56851  0.84820  0.19722  Biso   1.000  H
  H117     1.0000 0.89920  0.83039  0.44589  Biso   1.000  H
  C145     1.0000 0.86243  0.89307  0.41452  Biso   1.000  C
  H118     1.0000 0.79540  0.94601  0.38503  Biso   1.000  H
  C146     1.0000 0.66487  0.81310  0.11399  Biso   1.000  C
  C147     1.0000 0.66493  0.81310  0.11399  Biso   1.000  C
  C148     1.0000 0.93307  0.91877  0.41700  Biso   1.000  C
  C149     1.0000 0.93313  0.91877  0.41700  Biso   1.000  C
  H119     1.0000 0.66931  0.78150  0.09559  Biso   1.000  H
  N14      1.0000 0.73313  0.84170  0.09938  Biso   1.000  N
  H120     1.0000 0.62013  0.82829  0.09662  Biso   1.000  H
  C150     1.0000 0.93418  0.96826  0.41869  Biso   1.000  C
  C151     1.0000 0.00000  0.89569  0.41569  Biso   1.000  C
  C152     1.0000 0.93424  0.96826  0.41869  Biso   1.000  C
  C153     1.0000 0.79290  0.82120  0.07822  Biso   1.000  C
  C154     1.0000 0.73263  0.88769  0.11240  Biso   1.000  C
  H121     1.0000 0.88861  0.98491  0.41953  Biso   1.000  H
  C155     1.0000 0.00000  0.99302  0.41920  Biso   1.000  C
  H122     1.0000 0.00000  0.86259  0.41382  Biso   1.000  H
  C156     1.0000 0.06693  0.91877  0.41700  Biso   1.000  C
  C157     1.0000 0.85689  0.84589  0.07041  Biso   1.000  C
  H123     1.0000 0.79179  0.78890  0.06830  Biso   1.000  H
  H124     1.0000 0.68822  0.90229  0.12630  Biso   1.000  H
  C158     1.0000 0.79640  0.91350  0.10570  Biso   1.000  C
  C159     1.0000 0.00000  0.04421  0.41672  Biso   1.000  C
  C160     1.0000 0.06582  0.96826  0.41869  Biso   1.000  C
  C161     1.0000 0.13762  0.89307  0.41452  Biso   1.000  C
  H125     1.0000 0.89920  0.83039  0.05411  Biso   1.000  H
  C162     1.0000 0.86243  0.89307  0.08548  Biso   1.000  C
  H126     1.0000 0.79540  0.94601  0.11502  Biso   1.000  H
  C163     1.0000 0.93368  0.07030  0.41560  Biso   1.000  C
  C164     1.0000 0.93374  0.07030  0.41560  Biso   1.000  C
  C165     1.0000 0.06632  0.07030  0.41560  Biso   1.000  C
  H127     1.0000 0.11139  0.98491  0.41953  Biso   1.000  H
  C166     1.0000 0.14311  0.84589  0.42959  Biso   1.000  C
  C167     1.0000 0.20360  0.91350  0.39430  Biso   1.000  C
  C168     1.0000 0.93307  0.91877  0.08300  Biso   1.000  C
  C169     1.0000 0.93313  0.91877  0.08300  Biso   1.000  C
  C170     1.0000 0.93529  0.11720  0.40783  Biso   1.000  C
  H128     1.0000 0.88750  0.05479  0.42042  Biso   1.000  H
  C171     1.0000 0.06471  0.11720  0.40783  Biso   1.000  C
  H129     1.0000 0.11250  0.05479  0.42042  Biso   1.000  H
  H130     1.0000 0.10080  0.83039  0.44589  Biso   1.000  H
  C172     1.0000 0.20710  0.82120  0.42182  Biso   1.000  C
  C173     1.0000 0.26742  0.88769  0.38760  Biso   1.000  C
  H131     1.0000 0.20460  0.94601  0.38503  Biso   1.000  H
  C174     1.0000 0.93418  0.96826  0.08131  Biso   1.000  C
  C175     1.0000 0.00000  0.89569  0.08431  Biso   1.000  C
  C176     1.0000 0.93424  0.96826  0.08131  Biso   1.000  C
  H132     1.0000 0.88988  0.13389  0.40549  Biso   1.000  H
  N15      1.0000 0.00000  0.14080  0.40329  Biso   1.000  N
  H133     1.0000 0.88994  0.13389  0.40549  Biso   1.000  H
  H134     1.0000 0.11012  0.13389  0.40549  Biso   1.000  H
  N16      1.0000 0.26693  0.84170  0.40062  Biso   1.000  N
  H135     1.0000 0.20821  0.78890  0.43170  Biso   1.000  H
  H136     1.0000 0.31184  0.90229  0.37370  Biso   1.000  H
  H137     1.0000 0.88861  0.98491  0.08052  Biso   1.000  H
  C177     1.0000 0.00000  0.99302  0.08080  Biso   1.000  C
  H138     1.0000 0.00000  0.86259  0.08618  Biso   1.000  H
  C178     1.0000 0.06693  0.91877  0.08300  Biso   1.000  C
  C179     1.0000 0.00000  0.19039  0.38568  Biso   1.000  C
  C180     1.0000 0.33513  0.81310  0.38601  Biso   1.000  C
  C181     1.0000 0.00000  0.04421  0.08328  Biso   1.000  C
  C182     1.0000 0.06582  0.96826  0.08131  Biso   1.000  C
  C183     1.0000 0.13762  0.89307  0.08548  Biso   1.000  C
  C184     1.0000 0.00000  0.19538  0.31462  Biso   1.000  C
  H139     1.0000 0.95564  0.20589  0.40329  Biso   1.000  H
  H140     1.0000 0.04441  0.20589  0.40329  Biso   1.000  H
  H141     1.0000 0.37993  0.82829  0.40343  Biso   1.000  H
  H142     1.0000 0.33069  0.78150  0.40441  Biso   1.000  H
  C185     1.0000 0.34050  0.80999  0.31579  Biso   1.000  C
  H143     1.0000 0.33075  0.78150  0.40441  Biso   1.000  H
  C186     1.0000 0.93368  0.07030  0.08440  Biso   1.000  C
  C187     1.0000 0.93374  0.07030  0.08440  Biso   1.000  C
  C188     1.0000 0.06632  0.07030  0.08440  Biso   1.000  C
  H144     1.0000 0.11139  0.98491  0.08052  Biso   1.000  H
  C189     1.0000 0.14311  0.84589  0.07041  Biso   1.000  C
  C190     1.0000 0.20360  0.91350  0.10570  Biso   1.000  C
  C191     1.0000 0.93258  0.19580  0.28260  Biso   1.000  C
  C192     1.0000 0.93263  0.19580  0.28260  Biso   1.000  C
  C193     1.0000 0.06742  0.19580  0.28260  Biso   1.000  C
  C194     1.0000 0.28949  0.78422  0.28129  Biso   1.000  C
  C195     1.0000 0.39301  0.83199  0.28153  Biso   1.000  C
  C196     1.0000 0.28955  0.78422  0.28129  Biso   1.000  C
  C197     1.0000 0.93529  0.11720  0.09222  Biso   1.000  C
  H145     1.0000 0.88750  0.05479  0.07958  Biso   1.000  H
  C198     1.0000 0.06471  0.11720  0.09222  Biso   1.000  C
  H146     1.0000 0.11250  0.05479  0.07958  Biso   1.000  H
  H147     1.0000 0.10080  0.83039  0.05411  Biso   1.000  H
  C199     1.0000 0.20710  0.82120  0.07822  Biso   1.000  C
  C200     1.0000 0.26742  0.88769  0.11240  Biso   1.000  C
  H148     1.0000 0.20460  0.94601  0.11502  Biso   1.000  H
  H149     1.0000 0.88711  0.19601  0.30512  Biso   1.000  H
  C201     1.0000 0.93258  0.19580  0.21740  Biso   1.000  C
  C202     1.0000 0.93263  0.19580  0.21740  Biso   1.000  C
  H150     1.0000 0.11289  0.19601  0.30512  Biso   1.000  H
  C203     1.0000 0.06742  0.19580  0.21740  Biso   1.000  C
  H151     1.0000 0.25351  0.76610  0.30283  Biso   1.000  H
  C204     1.0000 0.28949  0.78422  0.21871  Biso   1.000  C
  C205     1.0000 0.28955  0.78422  0.21871  Biso   1.000  C
  H152     1.0000 0.43149  0.84820  0.30283  Biso   1.000  H
  C206     1.0000 0.39301  0.83199  0.21852  Biso   1.000  C
  H153     1.0000 0.43155  0.84820  0.30283  Biso   1.000  H
  H154     1.0000 0.88988  0.13389  0.09451  Biso   1.000  H
  N17      1.0000 0.00000  0.14080  0.09671  Biso   1.000  N
  H155     1.0000 0.88994  0.13389  0.09451  Biso   1.000  H
  H156     1.0000 0.11012  0.13389  0.09451  Biso   1.000  H
  N18      1.0000 0.26693  0.84170  0.09938  Biso   1.000  N
  H157     1.0000 0.20821  0.78890  0.06830  Biso   1.000  H
  H158     1.0000 0.31184  0.90229  0.12630  Biso   1.000  H
  C207     1.0000 0.00000  0.19538  0.18542  Biso   1.000  C
  H159     1.0000 0.88711  0.19601  0.19493  Biso   1.000  H
  H160     1.0000 0.11289  0.19601  0.19493  Biso   1.000  H
  C208     1.0000 0.34050  0.80999  0.18421  Biso   1.000  C
  H161     1.0000 0.25351  0.76610  0.19722  Biso   1.000  H
  H162     1.0000 0.43149  0.84820  0.19722  Biso   1.000  H
  H163     1.0000 0.43155  0.84820  0.19722  Biso   1.000  H
  C209     1.0000 0.00000  0.19039  0.11432  Biso   1.000  C
  C210     1.0000 0.33513  0.81310  0.11399  Biso   1.000  C
  H164     1.0000 0.95564  0.20589  0.09671  Biso   1.000  H
  H165     1.0000 0.04441  0.20589  0.09671  Biso   1.000  H
  H166     1.0000 0.37993  0.82829  0.09662  Biso   1.000  H
  H167     1.0000 0.33069  0.78150  0.09559  Biso   1.000  H
  H168     1.0000 0.33075  0.78150  0.09559  Biso   1.000  H
  C211     1.0000 0.66487  0.18690  0.61403  Biso   1.000  C
  C212     1.0000 0.65950  0.19001  0.68421  Biso   1.000  C
  H169     1.0000 0.66931  0.21850  0.59559  Biso   1.000  H
  N19      1.0000 0.73313  0.15830  0.59943  Biso   1.000  N
  H170     1.0000 0.62013  0.17171  0.59662  Biso   1.000  H
  C213     1.0000 0.71051  0.21578  0.71871  Biso   1.000  C
  C214     1.0000 0.60699  0.16801  0.71852  Biso   1.000  C
  C215     1.0000 0.66493  0.18690  0.61403  Biso   1.000  C
  C216     1.0000 0.79290  0.17880  0.57822  Biso   1.000  C
  C217     1.0000 0.73263  0.11231  0.61240  Biso   1.000  C
  C218     1.0000 0.71051  0.21578  0.78129  Biso   1.000  C
  H171     1.0000 0.74649  0.23390  0.69722  Biso   1.000  H
  C219     1.0000 0.60699  0.16801  0.78153  Biso   1.000  C
  H172     1.0000 0.56851  0.15180  0.69722  Biso   1.000  H
  C220     1.0000 0.85689  0.15411  0.57041  Biso   1.000  C
  H173     1.0000 0.79179  0.21110  0.56830  Biso   1.000  H
  H174     1.0000 0.68822  0.09771  0.62630  Biso   1.000  H
  C221     1.0000 0.79640  0.08650  0.60570  Biso   1.000  C
  C222     1.0000 0.65950  0.19001  0.81579  Biso   1.000  C
  H175     1.0000 0.74649  0.23390  0.80283  Biso   1.000  H
  H176     1.0000 0.56851  0.15180  0.80283  Biso   1.000  H
  H177     1.0000 0.89920  0.16961  0.55411  Biso   1.000  H
  C223     1.0000 0.86243  0.10693  0.58553  Biso   1.000  C
  H178     1.0000 0.79540  0.05399  0.61502  Biso   1.000  H
  C224     1.0000 0.66487  0.18690  0.88601  Biso   1.000  C
  C225     1.0000 0.66493  0.18690  0.88601  Biso   1.000  C
  C226     1.0000 0.93307  0.08123  0.58300  Biso   1.000  C
  C227     1.0000 0.93313  0.08123  0.58300  Biso   1.000  C
  H179     1.0000 0.66931  0.21850  0.90441  Biso   1.000  H
  N20      1.0000 0.73313  0.15830  0.90062  Biso   1.000  N
  H180     1.0000 0.62013  0.17171  0.90343  Biso   1.000  H
  C228     1.0000 0.93418  0.03174  0.58131  Biso   1.000  C
  C229     1.0000 0.93424  0.03174  0.58131  Biso   1.000  C
  C230     1.0000 0.00000  0.10431  0.58431  Biso   1.000  C
  C231     1.0000 0.79290  0.17880  0.92182  Biso   1.000  C
  C232     1.0000 0.73263  0.11231  0.88760  Biso   1.000  C
  H181     1.0000 0.88861  0.01509  0.58052  Biso   1.000  H
  C233     1.0000 0.00000  0.00698  0.58080  Biso   1.000  C
  H182     1.0000 0.00000  0.13741  0.58623  Biso   1.000  H
  C234     1.0000 0.06693  0.08123  0.58300  Biso   1.000  C
  C235     1.0000 0.85689  0.15411  0.92959  Biso   1.000  C
  H183     1.0000 0.79179  0.21110  0.93170  Biso   1.000  H
  H184     1.0000 0.68822  0.09771  0.87370  Biso   1.000  H
  C236     1.0000 0.79640  0.08650  0.89430  Biso   1.000  C
  C237     1.0000 0.00000  0.95579  0.58333  Biso   1.000  C
  C238     1.0000 0.06582  0.03174  0.58131  Biso   1.000  C
  C239     1.0000 0.13762  0.10693  0.58553  Biso   1.000  C
  H185     1.0000 0.89920  0.16961  0.94593  Biso   1.000  H
  C240     1.0000 0.86243  0.10693  0.91452  Biso   1.000  C
  H186     1.0000 0.79540  0.05399  0.88503  Biso   1.000  H
  C241     1.0000 0.93368  0.92970  0.58440  Biso   1.000  C
  C242     1.0000 0.93374  0.92970  0.58440  Biso   1.000  C
  C243     1.0000 0.06632  0.92970  0.58440  Biso   1.000  C
  H187     1.0000 0.11139  0.01509  0.58052  Biso   1.000  H
  C244     1.0000 0.14311  0.15411  0.57041  Biso   1.000  C
  C245     1.0000 0.20360  0.08650  0.60570  Biso   1.000  C
  C246     1.0000 0.93307  0.08123  0.91700  Biso   1.000  C
  C247     1.0000 0.93313  0.08123  0.91700  Biso   1.000  C
  C248     1.0000 0.93529  0.88280  0.59222  Biso   1.000  C
  H188     1.0000 0.88750  0.94521  0.57963  Biso   1.000  H
  C249     1.0000 0.06471  0.88280  0.59222  Biso   1.000  C
  H189     1.0000 0.11250  0.94521  0.57963  Biso   1.000  H
  H190     1.0000 0.10080  0.16961  0.55411  Biso   1.000  H
  C250     1.0000 0.20710  0.17880  0.57822  Biso   1.000  C
  C251     1.0000 0.26742  0.11231  0.61240  Biso   1.000  C
  H191     1.0000 0.20460  0.05399  0.61502  Biso   1.000  H
  C252     1.0000 0.93418  0.03174  0.91873  Biso   1.000  C
  C253     1.0000 0.93424  0.03174  0.91873  Biso   1.000  C
  C254     1.0000 0.00000  0.10431  0.91574  Biso   1.000  C
  H192     1.0000 0.88988  0.86611  0.59451  Biso   1.000  H
  N21      1.0000 0.00000  0.85920  0.59671  Biso   1.000  N
  H193     1.0000 0.88994  0.86611  0.59451  Biso   1.000  H
  H194     1.0000 0.11012  0.86611  0.59451  Biso   1.000  H
  N22      1.0000 0.26693  0.15830  0.59943  Biso   1.000  N
  H195     1.0000 0.20821  0.21110  0.56830  Biso   1.000  H
  H196     1.0000 0.31184  0.09771  0.62630  Biso   1.000  H
  H197     1.0000 0.88861  0.01509  0.91953  Biso   1.000  H
  C255     1.0000 0.00000  0.00698  0.91920  Biso   1.000  C
  H198     1.0000 0.00000  0.13741  0.91382  Biso   1.000  H
  C256     1.0000 0.06693  0.08123  0.91700  Biso   1.000  C
  C257     1.0000 0.00000  0.80961  0.61432  Biso   1.000  C
  C258     1.0000 0.33513  0.18690  0.61403  Biso   1.000  C
  C259     1.0000 0.00000  0.95579  0.91672  Biso   1.000  C
  C260     1.0000 0.06582  0.03174  0.91873  Biso   1.000  C
  C261     1.0000 0.13762  0.10693  0.91452  Biso   1.000  C
  C262     1.0000 0.00000  0.80462  0.68542  Biso   1.000  C
  H199     1.0000 0.95564  0.79411  0.59671  Biso   1.000  H
  H200     1.0000 0.04441  0.79411  0.59671  Biso   1.000  H
  H201     1.0000 0.37993  0.17171  0.59662  Biso   1.000  H
  H202     1.0000 0.33069  0.21850  0.59559  Biso   1.000  H
  C263     1.0000 0.34050  0.19001  0.68421  Biso   1.000  C
  H203     1.0000 0.33075  0.21850  0.59559  Biso   1.000  H
  C264     1.0000 0.93368  0.92970  0.91560  Biso   1.000  C
  C265     1.0000 0.93374  0.92970  0.91560  Biso   1.000  C
  C266     1.0000 0.06632  0.92970  0.91560  Biso   1.000  C
  H204     1.0000 0.11139  0.01509  0.91953  Biso   1.000  H
  C267     1.0000 0.14311  0.15411  0.92959  Biso   1.000  C
  C268     1.0000 0.20360  0.08650  0.89430  Biso   1.000  C
  C269     1.0000 0.93258  0.80420  0.71740  Biso   1.000  C
  C270     1.0000 0.93263  0.80420  0.71740  Biso   1.000  C
  C271     1.0000 0.06742  0.80420  0.71740  Biso   1.000  C
  C272     1.0000 0.28949  0.21578  0.71871  Biso   1.000  C
  C273     1.0000 0.39301  0.16801  0.71852  Biso   1.000  C
  C274     1.0000 0.28955  0.21578  0.71871  Biso   1.000  C
  C275     1.0000 0.93529  0.88280  0.90783  Biso   1.000  C
  H205     1.0000 0.88750  0.94521  0.92042  Biso   1.000  H
  C276     1.0000 0.06471  0.88280  0.90783  Biso   1.000  C
  H206     1.0000 0.11250  0.94521  0.92042  Biso   1.000  H
  H207     1.0000 0.10080  0.16961  0.94593  Biso   1.000  H
  C277     1.0000 0.20710  0.17880  0.92182  Biso   1.000  C
  C278     1.0000 0.26742  0.11231  0.88760  Biso   1.000  C
  H208     1.0000 0.20460  0.05399  0.88503  Biso   1.000  H
  C279     1.0000 0.93258  0.80420  0.78260  Biso   1.000  C
  H209     1.0000 0.88711  0.80399  0.69493  Biso   1.000  H
  C280     1.0000 0.93263  0.80420  0.78260  Biso   1.000  C
  C281     1.0000 0.06742  0.80420  0.78260  Biso   1.000  C
  H210     1.0000 0.11289  0.80399  0.69493  Biso   1.000  H
  C282     1.0000 0.28949  0.21578  0.78129  Biso   1.000  C
  H211     1.0000 0.25351  0.23390  0.69722  Biso   1.000  H
  C283     1.0000 0.28955  0.21578  0.78129  Biso   1.000  C
  C284     1.0000 0.39301  0.16801  0.78153  Biso   1.000  C
  H212     1.0000 0.43149  0.15180  0.69722  Biso   1.000  H
  H213     1.0000 0.43155  0.15180  0.69722  Biso   1.000  H
  H214     1.0000 0.88988  0.86611  0.90553  Biso   1.000  H
  N23      1.0000 0.00000  0.85920  0.90333  Biso   1.000  N
  H215     1.0000 0.88994  0.86611  0.90553  Biso   1.000  H
  H216     1.0000 0.11012  0.86611  0.90553  Biso   1.000  H
  N24      1.0000 0.26693  0.15830  0.90062  Biso   1.000  N
  H217     1.0000 0.20821  0.21110  0.93170  Biso   1.000  H
  H218     1.0000 0.31184  0.09771  0.87370  Biso   1.000  H
  C285     1.0000 0.00000  0.80462  0.81462  Biso   1.000  C
  H219     1.0000 0.88711  0.80399  0.80512  Biso   1.000  H
  H220     1.0000 0.11289  0.80399  0.80512  Biso   1.000  H
  C286     1.0000 0.34050  0.19001  0.81579  Biso   1.000  C
  H221     1.0000 0.25351  0.23390  0.80283  Biso   1.000  H
  H222     1.0000 0.43149  0.15180  0.80283  Biso   1.000  H
  H223     1.0000 0.43155  0.15180  0.80283  Biso   1.000  H
  C287     1.0000 0.00000  0.80961  0.88573  Biso   1.000  C
  C288     1.0000 0.33513  0.18690  0.88601  Biso   1.000  C
  H224     1.0000 0.95564  0.79411  0.90333  Biso   1.000  H
  H225     1.0000 0.04441  0.79411  0.90333  Biso   1.000  H
  H226     1.0000 0.37993  0.17171  0.90343  Biso   1.000  H
  H227     1.0000 0.33069  0.21850  0.90441  Biso   1.000  H
  H228     1.0000 0.33075  0.21850  0.90441  Biso   1.000  H
