data_image0
_cell_length_a       18.268
_cell_length_b       30.738
_cell_length_c       21.501
_cell_angle_alpha    90
_cell_angle_beta     111.19
_cell_angle_gamma    90

_symmetry_space_group_name_H-M    "P 1"
_symmetry_int_tables_number       1

loop_
  _symmetry_equiv_pos_as_xyz
  'x, y, z'

loop_
  _atom_site_label
  _atom_site_occupancy
  _atom_site_fract_x
  _atom_site_fract_y
  _atom_site_fract_z
  _atom_site_thermal_displace_type
  _atom_site_B_iso_or_equiv
  _atom_site_type_symbol
  C1       1.0000 0.48354  0.53956  0.42170  Biso   1.000  C
  C2       1.0000 0.43428  0.50560  0.39018  Biso   1.000  C
  C3       1.0000 0.56349  0.53292  0.45483  Biso   1.000  C
  H1       1.0000 0.46226  0.56790  0.42071  Biso   1.000  H
  C4       1.0000 0.46595  0.46405  0.39103  Biso   1.000  C
  C5       1.0000 0.34947  0.51363  0.35436  Biso   1.000  C
  C6       1.0000 0.59410  0.49099  0.45692  Biso   1.000  C
  C7       1.0000 0.61639  0.57053  0.48306  Biso   1.000  C
  C8       1.0000 0.54649  0.45621  0.42490  Biso   1.000  C
  H2       1.0000 0.43255  0.44079  0.36848  Biso   1.000  H
  C9       1.0000 0.29510  0.47970  0.34109  Biso   1.000  C
  C10      1.0000 0.31988  0.55518  0.33281  Biso   1.000  C
  H3       1.0000 0.64847  0.48611  0.48061  Biso   1.000  H
  C11      1.0000 0.69507  0.56897  0.49249  Biso   1.000  C
  C12      1.0000 0.58738  0.61025  0.49618  Biso   1.000  C
  C13      1.0000 0.57966  0.41245  0.42669  Biso   1.000  C
  C14      1.0000 0.21678  0.48738  0.30767  Biso   1.000  C
  H4       1.0000 0.31251  0.45101  0.35551  Biso   1.000  H
  H5       1.0000 0.35447  0.57941  0.34129  Biso   1.000  H
  C15      1.0000 0.24118  0.56100  0.29939  Biso   1.000  C
  H6       1.0000 0.71809  0.54210  0.48780  Biso   1.000  H
  C16      1.0000 0.74079  0.60586  0.50860  Biso   1.000  C
  C17      1.0000 0.63469  0.64611  0.51139  Biso   1.000  C
  H7       1.0000 0.53476  0.61221  0.49448  Biso   1.000  H
  C18      1.0000 0.53336  0.37543  0.40060  Biso   1.000  C
  C19      1.0000 0.65997  0.40497  0.45478  Biso   1.000  C
  N1       1.0000 0.19104  0.52759  0.28627  Biso   1.000  N
  H8       1.0000 0.18027  0.46412  0.29969  Biso   1.000  H
  H9       1.0000 0.22166  0.58940  0.28518  Biso   1.000  H
  N2       1.0000 0.70943  0.64399  0.51518  Biso   1.000  N
  H10      1.0000 0.79496  0.60420  0.51498  Biso   1.000  H
  H11      1.0000 0.61426  0.67301  0.51947  Biso   1.000  H
  C20      1.0000 0.56635  0.33558  0.40250  Biso   1.000  C
  H12      1.0000 0.47797  0.37839  0.38120  Biso   1.000  H
  C21      1.0000 0.69063  0.36421  0.45607  Biso   1.000  C
  H13      1.0000 0.69438  0.42859  0.47338  Biso   1.000  H
  C22      1.0000 0.10680  0.53393  0.24268  Biso   1.000  C
  C23      1.0000 0.75354  0.68505  0.51438  Biso   1.000  C
  N3       1.0000 0.64476  0.33018  0.43008  Biso   1.000  N
  H14      1.0000 0.53367  0.31121  0.38409  Biso   1.000  H
  H15      1.0000 0.74578  0.36011  0.47608  Biso   1.000  H
  C24      1.0000 0.09797  0.52694  0.17110  Biso   1.000  C
  H16      1.0000 0.08969  0.56370  0.24851  Biso   1.000  H
  H17      1.0000 0.07341  0.51301  0.25530  Biso   1.000  H
  C25      1.0000 0.74337  0.69357  0.44260  Biso   1.000  C
  H18      1.0000 0.80998  0.68150  0.54192  Biso   1.000  H
  H19      1.0000 0.73234  0.70961  0.53249  Biso   1.000  H
  C26      1.0000 0.68025  0.28675  0.42460  Biso   1.000  C
  C27      1.0000 0.09721  0.48455  0.14680  Biso   1.000  C
  C28      1.0000 0.09341  0.56149  0.12770  Biso   1.000  C
  C29      1.0000 0.67217  0.70821  0.39801  Biso   1.000  C
  C30      1.0000 0.80137  0.68293  0.41901  Biso   1.000  C
  C31      1.0000 0.69388  0.28554  0.36050  Biso   1.000  C
  H20      1.0000 0.73055  0.28281  0.46241  Biso   1.000  H
  H21      1.0000 0.64429  0.26300  0.42589  Biso   1.000  H
  C32      1.0000 0.09400  0.47768  0.08161  Biso   1.000  C
  H22      1.0000 0.09866  0.46041  0.17479  Biso   1.000  H
  H23      1.0000 0.09281  0.59041  0.14301  Biso   1.000  H
  C33      1.0000 0.08958  0.55469  0.06310  Biso   1.000  C
  C34      1.0000 0.65909  0.71107  0.33072  Biso   1.000  C
  H24      1.0000 0.63173  0.71641  0.41387  Biso   1.000  H
  H25      1.0000 0.85094  0.67350  0.44919  Biso   1.000  H
  C35      1.0000 0.78858  0.68576  0.35162  Biso   1.000  C
  C36      1.0000 0.76188  0.30314  0.35501  Biso   1.000  C
  C37      1.0000 0.63638  0.27015  0.30268  Biso   1.000  C
  C38      1.0000 0.09061  0.51285  0.04030  Biso   1.000  C
  H26      1.0000 0.09429  0.44889  0.06569  Biso   1.000  H
  H27      1.0000 0.08640  0.57879  0.03452  Biso   1.000  H
  C39      1.0000 0.71649  0.69891  0.30608  Biso   1.000  C
  H28      1.0000 0.60996  0.72152  0.30079  Biso   1.000  H
  H29      1.0000 0.82985  0.67861  0.33631  Biso   1.000  H
  C40      1.0000 0.76989  0.30675  0.29381  Biso   1.000  C
  H30      1.0000 0.80317  0.31271  0.39402  Biso   1.000  H
  H31      1.0000 0.59038  0.25730  0.30548  Biso   1.000  H
  C41      1.0000 0.64418  0.27305  0.24098  Biso   1.000  C
  C42      1.0000 0.09297  0.50524  0.97162  Biso   1.000  C
  C43      1.0000 0.70007  0.69910  0.23210  Biso   1.000  C
  C44      1.0000 0.70979  0.29325  0.23539  Biso   1.000  C
  H32      1.0000 0.81678  0.31850  0.29131  Biso   1.000  H
  H33      1.0000 0.60470  0.26131  0.20262  Biso   1.000  H
  N4       1.0000 0.17766  0.50309  0.97845  Biso   1.000  N
  H34      1.0000 0.06596  0.47762  0.95291  Biso   1.000  H
  H35      1.0000 0.06606  0.52931  0.94129  Biso   1.000  H
  N5       1.0000 0.65950  0.65801  0.20083  Biso   1.000  N
  H36      1.0000 0.66659  0.72441  0.21130  Biso   1.000  H
  H37      1.0000 0.74997  0.70190  0.22432  Biso   1.000  H
  C45      1.0000 0.71498  0.30165  0.16860  Biso   1.000  C
  C46      1.0000 0.21567  0.46451  0.99292  Biso   1.000  C
  C47      1.0000 0.21628  0.54005  0.97915  Biso   1.000  C
  C48      1.0000 0.69997  0.62096  0.20911  Biso   1.000  C
  C49      1.0000 0.58297  0.65805  0.16491  Biso   1.000  C
  N6       1.0000 0.67388  0.34332  0.14172  Biso   1.000  N
  H38      1.0000 0.77077  0.30360  0.17299  Biso   1.000  H
  H39      1.0000 0.69026  0.27741  0.13777  Biso   1.000  H
  C50      1.0000 0.29532  0.46288  0.01272  Biso   1.000  C
  H40      1.0000 0.18655  0.43841  0.98918  Biso   1.000  H
  C51      1.0000 0.29684  0.53998  0.99880  Biso   1.000  C
  H41      1.0000 0.18796  0.56650  0.96598  Biso   1.000  H
  C52      1.0000 0.66460  0.58299  0.18102  Biso   1.000  C
  H42      1.0000 0.75456  0.62099  0.23499  Biso   1.000  H
  C53      1.0000 0.54457  0.62066  0.13668  Biso   1.000  C
  H43      1.0000 0.55448  0.68449  0.15868  Biso   1.000  H
  C54      1.0000 0.59487  0.34300  0.11079  Biso   1.000  C
  C55      1.0000 0.71379  0.38080  0.15409  Biso   1.000  C
  C56      1.0000 0.33870  0.50133  0.01935  Biso   1.000  C
  H44      1.0000 0.32149  0.43562  0.02200  Biso   1.000  H
  H45      1.0000 0.32405  0.56630  0.99830  Biso   1.000  H
  C57      1.0000 0.58536  0.58163  0.14376  Biso   1.000  C
  H46      1.0000 0.69487  0.55719  0.18721  Biso   1.000  H
  H47      1.0000 0.48970  0.62141  0.11218  Biso   1.000  H
  C58      1.0000 0.55420  0.38116  0.09318  Biso   1.000  C
  H48      1.0000 0.56758  0.31609  0.10121  Biso   1.000  H
  H49      1.0000 0.76936  0.38041  0.17469  Biso   1.000  H
  C59      1.0000 0.67489  0.41984  0.13728  Biso   1.000  C
  C60      1.0000 0.42537  0.50156  0.05103  Biso   1.000  C
  C61      1.0000 0.54560  0.54037  0.11348  Biso   1.000  C
  C62      1.0000 0.59327  0.42130  0.10690  Biso   1.000  C
  H50      1.0000 0.49877  0.38051  0.07148  Biso   1.000  H
  H51      1.0000 0.70400  0.44619  0.14650  Biso   1.000  H
  C63      1.0000 0.46866  0.46350  0.05796  Biso   1.000  C
  C64      1.0000 0.46388  0.53969  0.07876  Biso   1.000  C
  C65      1.0000 0.58689  0.50205  0.12062  Biso   1.000  C
  C66      1.0000 0.54937  0.46288  0.09328  Biso   1.000  C
  H52      1.0000 0.44267  0.43741  0.03831  Biso   1.000  H
  H53      1.0000 0.43456  0.56581  0.07417  Biso   1.000  H
  H54      1.0000 0.64188  0.50211  0.14461  Biso   1.000  H
  C67      1.0000 0.51638  0.46044  0.57828  Biso   1.000  C
  C68      1.0000 0.43649  0.46711  0.54516  Biso   1.000  C
  C69      1.0000 0.56565  0.49444  0.60981  Biso   1.000  C
  H55      1.0000 0.53766  0.43210  0.57928  Biso   1.000  H
  C70      1.0000 0.38354  0.42947  0.51693  Biso   1.000  C
  C71      1.0000 0.40590  0.50901  0.54312  Biso   1.000  C
  C72      1.0000 0.53398  0.53595  0.60896  Biso   1.000  C
  C73      1.0000 0.65046  0.48637  0.64562  Biso   1.000  C
  C74      1.0000 0.30486  0.43103  0.50750  Biso   1.000  C
  C75      1.0000 0.41255  0.38978  0.50381  Biso   1.000  C
  C76      1.0000 0.45350  0.54379  0.57509  Biso   1.000  C
  H56      1.0000 0.35146  0.51389  0.51937  Biso   1.000  H
  H57      1.0000 0.56738  0.55921  0.63151  Biso   1.000  H
  C77      1.0000 0.70488  0.52033  0.65889  Biso   1.000  C
  C78      1.0000 0.68005  0.44482  0.66717  Biso   1.000  C
  C79      1.0000 0.25919  0.39414  0.49139  Biso   1.000  C
  H58      1.0000 0.28189  0.45790  0.51219  Biso   1.000  H
  C80      1.0000 0.36530  0.35389  0.48860  Biso   1.000  C
  H59      1.0000 0.46517  0.38779  0.50551  Biso   1.000  H
  C81      1.0000 0.42027  0.58755  0.57330  Biso   1.000  C
  C82      1.0000 0.78315  0.51266  0.69231  Biso   1.000  C
  H60      1.0000 0.68747  0.54899  0.64448  Biso   1.000  H
  H61      1.0000 0.64546  0.42062  0.65869  Biso   1.000  H
  C83      1.0000 0.75875  0.43900  0.70059  Biso   1.000  C
  N7       1.0000 0.29050  0.35601  0.48480  Biso   1.000  N
  H62      1.0000 0.20497  0.39580  0.48500  Biso   1.000  H
  H63      1.0000 0.38567  0.32699  0.48051  Biso   1.000  H
  C84      1.0000 0.46657  0.62460  0.59938  Biso   1.000  C
  C85      1.0000 0.33995  0.59506  0.54521  Biso   1.000  C
  N8       1.0000 0.80889  0.47241  0.71371  Biso   1.000  N
  H64      1.0000 0.81966  0.53592  0.70030  Biso   1.000  H
  H65      1.0000 0.77827  0.41060  0.71481  Biso   1.000  H
  C86      1.0000 0.24639  0.31498  0.48560  Biso   1.000  C
  H66      1.0000 0.52196  0.62161  0.61879  Biso   1.000  H
  C87      1.0000 0.43358  0.66442  0.59749  Biso   1.000  C
  C88      1.0000 0.30929  0.63579  0.54391  Biso   1.000  C
  H67      1.0000 0.30560  0.57141  0.52661  Biso   1.000  H
  C89      1.0000 0.89318  0.46610  0.75731  Biso   1.000  C
  C90      1.0000 0.25656  0.30643  0.55738  Biso   1.000  C
  H68      1.0000 0.18997  0.31850  0.45812  Biso   1.000  H
  H69      1.0000 0.26759  0.29039  0.46750  Biso   1.000  H
  N9       1.0000 0.35517  0.66985  0.56990  Biso   1.000  N
  H70      1.0000 0.46626  0.68882  0.61589  Biso   1.000  H
  H71      1.0000 0.25420  0.63989  0.52391  Biso   1.000  H
  C91      1.0000 0.90196  0.47306  0.82889  Biso   1.000  C
  H72      1.0000 0.91024  0.43630  0.75147  Biso   1.000  H
  H73      1.0000 0.92657  0.48702  0.74469  Biso   1.000  H
  C92      1.0000 0.32776  0.29179  0.60198  Biso   1.000  C
  C93      1.0000 0.19856  0.31707  0.58098  Biso   1.000  C
  C94      1.0000 0.31967  0.71329  0.57539  Biso   1.000  C
  C95      1.0000 0.90277  0.51545  0.85318  Biso   1.000  C
  C96      1.0000 0.90657  0.43855  0.87229  Biso   1.000  C
  C97      1.0000 0.34086  0.28893  0.66932  Biso   1.000  C
  H74      1.0000 0.36819  0.28359  0.58612  Biso   1.000  H
  H75      1.0000 0.14899  0.32650  0.55080  Biso   1.000  H
  C98      1.0000 0.21137  0.31424  0.64842  Biso   1.000  C
  C99      1.0000 0.30605  0.71449  0.63949  Biso   1.000  C
  H76      1.0000 0.26938  0.71722  0.53758  Biso   1.000  H
  H77      1.0000 0.35569  0.73700  0.57409  Biso   1.000  H
  C100     1.0000 0.90593  0.52232  0.91838  Biso   1.000  C
  H78      1.0000 0.90126  0.53959  0.82520  Biso   1.000  H
  H79      1.0000 0.90712  0.40959  0.85698  Biso   1.000  H
  C101     1.0000 0.91035  0.44531  0.93689  Biso   1.000  C
  C102     1.0000 0.28350  0.30109  0.69391  Biso   1.000  C
  H80      1.0000 0.38997  0.27852  0.69920  Biso   1.000  H
  H81      1.0000 0.17008  0.32139  0.66368  Biso   1.000  H
  C103     1.0000 0.23805  0.69689  0.64498  Biso   1.000  C
  C104     1.0000 0.36355  0.72985  0.69730  Biso   1.000  C
  C105     1.0000 0.90932  0.48718  0.95968  Biso   1.000  C
  H82      1.0000 0.90563  0.55111  0.93429  Biso   1.000  H
  H83      1.0000 0.91353  0.42121  0.96547  Biso   1.000  H
  C106     1.0000 0.29986  0.30093  0.76789  Biso   1.000  C
  C107     1.0000 0.23004  0.69328  0.70618  Biso   1.000  C
  H84      1.0000 0.19678  0.68729  0.60602  Biso   1.000  H
  H85      1.0000 0.40955  0.74270  0.69451  Biso   1.000  H
  C108     1.0000 0.35575  0.72695  0.75901  Biso   1.000  C
  C109     1.0000 0.90701  0.49476  0.02837  Biso   1.000  C
  N10      1.0000 0.34048  0.34199  0.79916  Biso   1.000  N
  H86      1.0000 0.33334  0.27559  0.78869  Biso   1.000  H
  H87      1.0000 0.24998  0.29810  0.77572  Biso   1.000  H
  C110     1.0000 0.29014  0.70675  0.76459  Biso   1.000  C
  H88      1.0000 0.18314  0.68150  0.70868  Biso   1.000  H
  H89      1.0000 0.39525  0.73869  0.79742  Biso   1.000  H
  N11      1.0000 0.82227  0.49691  0.02154  Biso   1.000  N
  H90      1.0000 0.93396  0.52242  0.04708  Biso   1.000  H
  H91      1.0000 0.93387  0.47072  0.05870  Biso   1.000  H
  C111     1.0000 0.29995  0.37904  0.79088  Biso   1.000  C
  C112     1.0000 0.41696  0.34195  0.83508  Biso   1.000  C
  C113     1.0000 0.28494  0.69839  0.83139  Biso   1.000  C
  C114     1.0000 0.78431  0.53549  0.00707  Biso   1.000  C
  C115     1.0000 0.78371  0.45998  0.02084  Biso   1.000  C
  C116     1.0000 0.33535  0.41701  0.81902  Biso   1.000  C
  H92      1.0000 0.24537  0.37901  0.76499  Biso   1.000  H
  H93      1.0000 0.44545  0.31551  0.84131  Biso   1.000  H
  C117     1.0000 0.45536  0.37934  0.86331  Biso   1.000  C
  N12      1.0000 0.32605  0.65671  0.85827  Biso   1.000  N
  H94      1.0000 0.22916  0.69640  0.82700  Biso   1.000  H
  H95      1.0000 0.30966  0.72259  0.86221  Biso   1.000  H
  C118     1.0000 0.70461  0.53715  0.98727  Biso   1.000  C
  H96      1.0000 0.81338  0.56162  0.01081  Biso   1.000  H
  C119     1.0000 0.70309  0.46002  0.00118  Biso   1.000  C
  H97      1.0000 0.81203  0.43350  0.03401  Biso   1.000  H
  C120     1.0000 0.41457  0.41837  0.85623  Biso   1.000  C
  H98      1.0000 0.30506  0.44281  0.81278  Biso   1.000  H
  H99      1.0000 0.51028  0.37862  0.88780  Biso   1.000  H
  C121     1.0000 0.40506  0.65700  0.88920  Biso   1.000  C
  C122     1.0000 0.28614  0.61920  0.84590  Biso   1.000  C
  C123     1.0000 0.66123  0.49867  0.98063  Biso   1.000  C
  H100     1.0000 0.67844  0.56442  0.97799  Biso   1.000  H
  H101     1.0000 0.67587  0.43370  0.00168  Biso   1.000  H
  C124     1.0000 0.45433  0.45963  0.88651  Biso   1.000  C
  C125     1.0000 0.44578  0.61888  0.90681  Biso   1.000  C
  H102     1.0000 0.43235  0.68391  0.89878  Biso   1.000  H
  C126     1.0000 0.32504  0.58016  0.86271  Biso   1.000  C
  H103     1.0000 0.23057  0.61959  0.82530  Biso   1.000  H
  C127     1.0000 0.57456  0.49844  0.94896  Biso   1.000  C
  C128     1.0000 0.41309  0.49798  0.87937  Biso   1.000  C
  C129     1.0000 0.53607  0.46031  0.92127  Biso   1.000  C
  C130     1.0000 0.40666  0.57870  0.89309  Biso   1.000  C
  H104     1.0000 0.50116  0.61949  0.92851  Biso   1.000  H
  H105     1.0000 0.29593  0.55381  0.85348  Biso   1.000  H
  C131     1.0000 0.53127  0.53650  0.94202  Biso   1.000  C
  C132     1.0000 0.45056  0.53712  0.90671  Biso   1.000  C
  H106     1.0000 0.35805  0.49792  0.85538  Biso   1.000  H
  H107     1.0000 0.56537  0.43422  0.92581  Biso   1.000  H
  H108     1.0000 0.55726  0.56259  0.96168  Biso   1.000  H
  C133     1.0000 0.79988  0.19907  0.26792  Biso   1.000  C
  C134     1.0000 0.78350  0.19891  0.19389  Biso   1.000  C
  N13      1.0000 0.84050  0.15801  0.29919  Biso   1.000  N
  H109     1.0000 0.83336  0.22441  0.28872  Biso   1.000  H
  H110     1.0000 0.74998  0.20190  0.27570  Biso   1.000  H
  C135     1.0000 0.71137  0.18576  0.14840  Biso   1.000  C
  C136     1.0000 0.84086  0.21107  0.16930  Biso   1.000  C
  C137     1.0000 0.79997  0.12096  0.29091  Biso   1.000  C
  C138     1.0000 0.91698  0.15805  0.33511  Biso   1.000  C
  C139     1.0000 0.69858  0.18293  0.08101  Biso   1.000  C
  H111     1.0000 0.67010  0.17861  0.16371  Biso   1.000  H
  H112     1.0000 0.88997  0.22152  0.19918  Biso   1.000  H
  C140     1.0000 0.82777  0.20821  0.10201  Biso   1.000  C
  C141     1.0000 0.83535  0.08299  0.31900  Biso   1.000  C
  H113     1.0000 0.74536  0.12099  0.26497  Biso   1.000  H
  H114     1.0000 0.94545  0.18449  0.34129  Biso   1.000  H
  C142     1.0000 0.95536  0.12066  0.36329  Biso   1.000  C
  C143     1.0000 0.75658  0.19357  0.05741  Biso   1.000  C
  H115     1.0000 0.64898  0.17350  0.05078  Biso   1.000  H
  H116     1.0000 0.86819  0.21641  0.08610  Biso   1.000  H
  C144     1.0000 0.91457  0.08163  0.35621  Biso   1.000  C
  H117     1.0000 0.80507  0.05719  0.31281  Biso   1.000  H
  H118     1.0000 0.01028  0.12141  0.38778  Biso   1.000  H
  C145     1.0000 0.74633  0.18505  0.98558  Biso   1.000  C
  C146     1.0000 0.95438  0.04037  0.38649  Biso   1.000  C
  N14      1.0000 0.79044  0.14399  0.98479  Biso   1.000  N
  H119     1.0000 0.68991  0.18150  0.95810  Biso   1.000  H
  H120     1.0000 0.76753  0.20961  0.96748  Biso   1.000  H
  C147     1.0000 0.91309  0.00202  0.37935  Biso   1.000  C
  C148     1.0000 0.03607  0.03969  0.42125  Biso   1.000  C
  C149     1.0000 0.75916  0.10586  0.99142  Biso   1.000  C
  C150     1.0000 0.86524  0.14611  0.98858  Biso   1.000  C
  H121     1.0000 0.85807  0.00211  0.35541  Biso   1.000  H
  C151     1.0000 0.95057  0.96288  0.40674  Biso   1.000  C
  C152     1.0000 0.07464  0.00156  0.44899  Biso   1.000  C
  H122     1.0000 0.06537  0.06581  0.42579  Biso   1.000  H
  C153     1.0000 0.80486  0.06897  0.00748  Biso   1.000  C
  H123     1.0000 0.70491  0.10420  0.98499  Biso   1.000  H
  C154     1.0000 0.91260  0.11025  0.00379  Biso   1.000  C
  H124     1.0000 0.88562  0.17301  0.98050  Biso   1.000  H
  C155     1.0000 0.90668  0.92130  0.39312  Biso   1.000  C
  C156     1.0000 0.03127  0.96350  0.44201  Biso   1.000  C
  C157     1.0000 0.16124  0.00133  0.48066  Biso   1.000  C
  C158     1.0000 0.88361  0.07053  0.01696  Biso   1.000  C
  H125     1.0000 0.78191  0.04210  0.01222  Biso   1.000  H
  H126     1.0000 0.96517  0.11221  0.00549  Biso   1.000  H
  C159     1.0000 0.94578  0.88112  0.40679  Biso   1.000  C
  C160     1.0000 0.82509  0.91984  0.36269  Biso   1.000  C
  H127     1.0000 0.05728  0.93741  0.46171  Biso   1.000  H
  C161     1.0000 0.20468  0.96285  0.48730  Biso   1.000  C
  C162     1.0000 0.20305  0.03998  0.50122  Biso   1.000  C
  C163     1.0000 0.93649  0.03292  0.04514  Biso   1.000  C
  C164     1.0000 0.90506  0.84300  0.38918  Biso   1.000  C
  H128     1.0000 0.00116  0.88051  0.42849  Biso   1.000  H
  C165     1.0000 0.78619  0.88080  0.34588  Biso   1.000  C
  H129     1.0000 0.79601  0.94619  0.35351  Biso   1.000  H
  C166     1.0000 0.28427  0.96451  0.50710  Biso   1.000  C
  H130     1.0000 0.17846  0.93558  0.47802  Biso   1.000  H
  H131     1.0000 0.17589  0.06630  0.50171  Biso   1.000  H
  C167     1.0000 0.28367  0.04002  0.52087  Biso   1.000  C
  C168     1.0000 0.90590  0.99099  0.04310  Biso   1.000  C
  C169     1.0000 0.01638  0.03956  0.07827  Biso   1.000  C
  N15      1.0000 0.82607  0.84332  0.35830  Biso   1.000  N
  H132     1.0000 0.93237  0.81609  0.39881  Biso   1.000  H
  H133     1.0000 0.73057  0.88041  0.32528  Biso   1.000  H
  H134     1.0000 0.31338  0.93841  0.51079  Biso   1.000  H
  N16      1.0000 0.32221  0.00309  0.52152  Biso   1.000  N
  H135     1.0000 0.31197  0.06650  0.53399  Biso   1.000  H
  C170     1.0000 0.95350  0.95621  0.07507  Biso   1.000  C
  H136     1.0000 0.85148  0.98611  0.01940  Biso   1.000  H
  C171     1.0000 0.06567  0.00560  0.10984  Biso   1.000  C
  H137     1.0000 0.03768  0.06790  0.07931  Biso   1.000  H
  C172     1.0000 0.78496  0.80161  0.33142  Biso   1.000  C
  C173     1.0000 0.40698  0.00524  0.52840  Biso   1.000  C
  C174     1.0000 0.92027  0.91245  0.07328  Biso   1.000  C
  C175     1.0000 0.03398  0.96405  0.10894  Biso   1.000  C
  C176     1.0000 0.15046  0.01363  0.14561  Biso   1.000  C
  H138     1.0000 0.72915  0.80360  0.32698  Biso   1.000  H
  H139     1.0000 0.80966  0.77741  0.36219  Biso   1.000  H
  C177     1.0000 0.79019  0.79325  0.26457  Biso   1.000  C
  H140     1.0000 0.43398  0.97758  0.54711  Biso   1.000  H
  H141     1.0000 0.43387  0.02931  0.55868  Biso   1.000  H
  C178     1.0000 0.40934  0.01282  0.45971  Biso   1.000  C
  C179     1.0000 0.96659  0.87543  0.09942  Biso   1.000  C
  C180     1.0000 0.84001  0.90497  0.04519  Biso   1.000  C
  H142     1.0000 0.06738  0.94079  0.13149  Biso   1.000  H
  C181     1.0000 0.20488  0.97967  0.15887  Biso   1.000  C
  C182     1.0000 0.18007  0.05518  0.16720  Biso   1.000  C
  C183     1.0000 0.73011  0.80675  0.20621  Biso   1.000  C
  C184     1.0000 0.85575  0.77305  0.25899  Biso   1.000  C
  C185     1.0000 0.40595  0.97768  0.41841  Biso   1.000  C
  C186     1.0000 0.41037  0.05469  0.43692  Biso   1.000  C
  C187     1.0000 0.93359  0.83558  0.09752  Biso   1.000  C
  H143     1.0000 0.02197  0.87839  0.11882  Biso   1.000  H
  C188     1.0000 0.80929  0.86421  0.04390  Biso   1.000  C
  H144     1.0000 0.80560  0.92859  0.02659  Biso   1.000  H
  C189     1.0000 0.28314  0.98734  0.19230  Biso   1.000  C
  H145     1.0000 0.18749  0.95101  0.14451  Biso   1.000  H
  H146     1.0000 0.14546  0.07941  0.15868  Biso   1.000  H
  C190     1.0000 0.25875  0.06100  0.20058  Biso   1.000  C
  H147     1.0000 0.68316  0.81850  0.20871  Biso   1.000  H
  C191     1.0000 0.73806  0.80314  0.14501  Biso   1.000  C
  C192     1.0000 0.86355  0.77015  0.19728  Biso   1.000  C
  H148     1.0000 0.89530  0.76131  0.29740  Biso   1.000  H
  H149     1.0000 0.40563  0.94889  0.43427  Biso   1.000  H
  C193     1.0000 0.40279  0.98455  0.35322  Biso   1.000  C
  C194     1.0000 0.40659  0.06145  0.37232  Biso   1.000  C
  H150     1.0000 0.41355  0.07879  0.46550  Biso   1.000  H
  N17      1.0000 0.85516  0.83015  0.06988  Biso   1.000  N
  H151     1.0000 0.96626  0.81121  0.11588  Biso   1.000  H
  H152     1.0000 0.75420  0.86011  0.02389  Biso   1.000  H
  H153     1.0000 0.31966  0.96408  0.20028  Biso   1.000  H
  N18      1.0000 0.30889  0.02759  0.21370  Biso   1.000  N
  H154     1.0000 0.27826  0.08940  0.21479  Biso   1.000  H
  C195     1.0000 0.80607  0.78554  0.13952  Biso   1.000  C
  H155     1.0000 0.69678  0.81271  0.10600  Biso   1.000  H
  H156     1.0000 0.90960  0.75730  0.19449  Biso   1.000  H
  C196     1.0000 0.40196  0.02694  0.32887  Biso   1.000  C
  H157     1.0000 0.40126  0.96041  0.32518  Biso   1.000  H
  H158     1.0000 0.40719  0.09041  0.35701  Biso   1.000  H
  C197     1.0000 0.81969  0.78671  0.07542  Biso   1.000  C
  C198     1.0000 0.39318  0.03393  0.25729  Biso   1.000  C
  H159     1.0000 0.76939  0.78281  0.03761  Biso   1.000  H
  H160     1.0000 0.85569  0.76300  0.07407  Biso   1.000  H
  H161     1.0000 0.41026  0.06370  0.25151  Biso   1.000  H
  H162     1.0000 0.42659  0.01301  0.24472  Biso   1.000  H
  C199     1.0000 0.20005  0.80093  0.73207  Biso   1.000  C
  N19      1.0000 0.15948  0.84202  0.70079  Biso   1.000  N
  H163     1.0000 0.16657  0.77562  0.71127  Biso   1.000  H
  H164     1.0000 0.24995  0.79810  0.72429  Biso   1.000  H
  C200     1.0000 0.21649  0.80109  0.80610  Biso   1.000  C
  C201     1.0000 0.19996  0.87907  0.70907  Biso   1.000  C
  C202     1.0000 0.08295  0.84195  0.66488  Biso   1.000  C
  C203     1.0000 0.15907  0.78893  0.83069  Biso   1.000  C
  C204     1.0000 0.28856  0.81424  0.85159  Biso   1.000  C
  C205     1.0000 0.16458  0.91701  0.68099  Biso   1.000  C
  H165     1.0000 0.25456  0.87901  0.73501  Biso   1.000  H
  H166     1.0000 0.05448  0.81551  0.65869  Biso   1.000  H
  C206     1.0000 0.04457  0.87934  0.63670  Biso   1.000  C
  H167     1.0000 0.10996  0.77852  0.80081  Biso   1.000  H
  C207     1.0000 0.17215  0.79179  0.89798  Biso   1.000  C
  C208     1.0000 0.30135  0.81707  0.91898  Biso   1.000  C
  H168     1.0000 0.32983  0.82139  0.83627  Biso   1.000  H
  C209     1.0000 0.08536  0.91837  0.64378  Biso   1.000  C
  H169     1.0000 0.19485  0.94281  0.68718  Biso   1.000  H
  H170     1.0000 0.98970  0.87862  0.61220  Biso   1.000  H
  H171     1.0000 0.13174  0.78362  0.91389  Biso   1.000  H
  C210     1.0000 0.24335  0.80643  0.94257  Biso   1.000  C
  H172     1.0000 0.35094  0.82650  0.94921  Biso   1.000  H
  C211     1.0000 0.04560  0.95963  0.61350  Biso   1.000  C
  C212     1.0000 0.25360  0.81498  0.01440  Biso   1.000  C
  C213     1.0000 0.08690  0.99798  0.62063  Biso   1.000  C
  C214     1.0000 0.96386  0.96034  0.57873  Biso   1.000  C
  N20      1.0000 0.20949  0.85604  0.01520  Biso   1.000  N
  H173     1.0000 0.31001  0.81850  0.04189  Biso   1.000  H
  H174     1.0000 0.23240  0.79042  0.03251  Biso   1.000  H
  H175     1.0000 0.14186  0.99792  0.64458  Biso   1.000  H
  C215     1.0000 0.04935  0.03715  0.59325  Biso   1.000  C
  C216     1.0000 0.92537  0.99844  0.55105  Biso   1.000  C
  H176     1.0000 0.93456  0.93422  0.57419  Biso   1.000  H
  C217     1.0000 0.24077  0.89414  0.00857  Biso   1.000  C
  C218     1.0000 0.13474  0.85389  0.01141  Biso   1.000  C
  C219     1.0000 0.96866  0.03653  0.55798  Biso   1.000  C
  C220     1.0000 0.09327  0.07870  0.60692  Biso   1.000  C
  C221     1.0000 0.83868  0.99867  0.51932  Biso   1.000  C
  C222     1.0000 0.19507  0.93103  0.99251  Biso   1.000  C
  H177     1.0000 0.29502  0.89580  0.01500  Biso   1.000  H
  C223     1.0000 0.08738  0.88978  0.99620  Biso   1.000  C
  H178     1.0000 0.11431  0.82702  0.01949  Biso   1.000  H
  H179     1.0000 0.94265  0.06263  0.53828  Biso   1.000  H
  C224     1.0000 0.05415  0.11888  0.59320  Biso   1.000  C
  C225     1.0000 0.17489  0.08016  0.63729  Biso   1.000  C
  C226     1.0000 0.79688  0.96002  0.49877  Biso   1.000  C
  C227     1.0000 0.79530  0.03715  0.51269  Biso   1.000  C
  C228     1.0000 0.11637  0.92947  0.98303  Biso   1.000  C
  H180     1.0000 0.21802  0.95790  0.98777  Biso   1.000  H
  H181     1.0000 0.03476  0.88779  0.99450  Biso   1.000  H
  H182     1.0000 0.99877  0.11953  0.57150  Biso   1.000  H
  C229     1.0000 0.09487  0.15700  0.61081  Biso   1.000  C
  C230     1.0000 0.21379  0.11920  0.65410  Biso   1.000  C
  H183     1.0000 0.20398  0.05381  0.64647  Biso   1.000  H
  H184     1.0000 0.82409  0.93370  0.49827  Biso   1.000  H
  C231     1.0000 0.71626  0.95998  0.47912  Biso   1.000  C
  C232     1.0000 0.71566  0.03553  0.49289  Biso   1.000  C
  H185     1.0000 0.82149  0.06442  0.52202  Biso   1.000  H
  C233     1.0000 0.06344  0.96711  0.95484  Biso   1.000  C
  N21      1.0000 0.17386  0.15671  0.64168  Biso   1.000  N
  H186     1.0000 0.06756  0.18391  0.60118  Biso   1.000  H
  H187     1.0000 0.26936  0.11962  0.67471  Biso   1.000  H
  N22      1.0000 0.67772  0.99691  0.47847  Biso   1.000  N
  H188     1.0000 0.68796  0.93350  0.46600  Biso   1.000  H
  H189     1.0000 0.68661  0.06162  0.48919  Biso   1.000  H
  C234     1.0000 0.98355  0.96044  0.92172  Biso   1.000  C
  C235     1.0000 0.09403  0.00901  0.95689  Biso   1.000  C
  C236     1.0000 0.21497  0.19839  0.66857  Biso   1.000  C
  C237     1.0000 0.59301  0.99476  0.47159  Biso   1.000  C
  C238     1.0000 0.93426  0.99444  0.89015  Biso   1.000  C
  H190     1.0000 0.96225  0.93210  0.92067  Biso   1.000  H
  C239     1.0000 0.04643  0.04379  0.92491  Biso   1.000  C
  H191     1.0000 0.14845  0.01392  0.98058  Biso   1.000  H
  H192     1.0000 0.27077  0.19640  0.67301  Biso   1.000  H
  H193     1.0000 0.19027  0.22262  0.63779  Biso   1.000  H
  C240     1.0000 0.20979  0.20675  0.73541  Biso   1.000  C
  H194     1.0000 0.56611  0.97072  0.44131  Biso   1.000  H
  C241     1.0000 0.59059  0.98718  0.54027  Biso   1.000  C
  H195     1.0000 0.56600  0.02242  0.45288  Biso   1.000  H
  C242     1.0000 0.84947  0.98637  0.85438  Biso   1.000  C
  C243     1.0000 0.96595  0.03595  0.89104  Biso   1.000  C
  C244     1.0000 0.07966  0.08755  0.92671  Biso   1.000  C
  C245     1.0000 0.26987  0.19328  0.79377  Biso   1.000  C
  C246     1.0000 0.14418  0.22695  0.74100  Biso   1.000  C
  C247     1.0000 0.58958  0.94531  0.56312  Biso   1.000  C
  C248     1.0000 0.59398  0.02232  0.58158  Biso   1.000  C
  C249     1.0000 0.81986  0.94482  0.83278  Biso   1.000  C
  C250     1.0000 0.79505  0.02033  0.84111  Biso   1.000  C
  H196     1.0000 0.93255  0.05921  0.86850  Biso   1.000  H
  C251     1.0000 0.03334  0.12460  0.90057  Biso   1.000  C
  C252     1.0000 0.15998  0.09506  0.95479  Biso   1.000  C
  H197     1.0000 0.31677  0.18150  0.79128  Biso   1.000  H
  C253     1.0000 0.26186  0.19689  0.85498  Biso   1.000  C
  C254     1.0000 0.13638  0.22985  0.80270  Biso   1.000  C
  H198     1.0000 0.10468  0.23873  0.70259  Biso   1.000  H
  C255     1.0000 0.59341  0.93855  0.62772  Biso   1.000  C
  H199     1.0000 0.58638  0.92121  0.53449  Biso   1.000  H
  H200     1.0000 0.59430  0.05111  0.56571  Biso   1.000  H
  C256     1.0000 0.59714  0.01545  0.64677  Biso   1.000  C
  H201     1.0000 0.85447  0.92062  0.84131  Biso   1.000  H
  C257     1.0000 0.74118  0.93900  0.79941  Biso   1.000  C
  C258     1.0000 0.71678  0.01266  0.80769  Biso   1.000  C
  H202     1.0000 0.81244  0.04899  0.85548  Biso   1.000  H
  H203     1.0000 0.97795  0.12161  0.88117  Biso   1.000  H
  C259     1.0000 0.06633  0.16442  0.90247  Biso   1.000  C
  C260     1.0000 0.19064  0.13579  0.95609  Biso   1.000  C
  H204     1.0000 0.19433  0.07141  0.97340  Biso   1.000  H
  H205     1.0000 0.30315  0.18733  0.89399  Biso   1.000  H
  C261     1.0000 0.19388  0.21449  0.86052  Biso   1.000  C
  H206     1.0000 0.09039  0.24270  0.80550  Biso   1.000  H
  C262     1.0000 0.59797  0.97310  0.67111  Biso   1.000  C
  H207     1.0000 0.59279  0.90962  0.64298  Biso   1.000  H
  H208     1.0000 0.59867  0.03963  0.67481  Biso   1.000  H
  N23      1.0000 0.69104  0.97241  0.78629  Biso   1.000  N
  H209     1.0000 0.72166  0.91060  0.78519  Biso   1.000  H
  H210     1.0000 0.68027  0.03592  0.79971  Biso   1.000  H
  N24      1.0000 0.14476  0.16985  0.93010  Biso   1.000  N
  H211     1.0000 0.03367  0.18882  0.88411  Biso   1.000  H
  H212     1.0000 0.24573  0.13992  0.97609  Biso   1.000  H
  C263     1.0000 0.18026  0.21329  0.92462  Biso   1.000  C
  C264     1.0000 0.60675  0.96610  0.74270  Biso   1.000  C
  H213     1.0000 0.23053  0.21722  0.96238  Biso   1.000  H
  H214     1.0000 0.14424  0.23700  0.92591  Biso   1.000  H
  H215     1.0000 0.58967  0.93630  0.74848  Biso   1.000  H
  H216     1.0000 0.57336  0.98702  0.75532  Biso   1.000  H
