data_image0
_cell_length_a       11.983
_cell_length_b       18.034
_cell_length_c       17.35
_cell_angle_alpha    90
_cell_angle_beta     92.98
_cell_angle_gamma    90

_symmetry_space_group_name_H-M    "P 1"
_symmetry_int_tables_number       1

loop_
  _symmetry_equiv_pos_as_xyz
  'x, y, z'

loop_
  _atom_site_label
  _atom_site_occupancy
  _atom_site_fract_x
  _atom_site_fract_y
  _atom_site_fract_z
  _atom_site_thermal_displace_type
  _atom_site_B_iso_or_equiv
  _atom_site_type_symbol
  C1       1.0000 0.54736  0.49096  0.37924  Biso   1.000  C
  C2       1.0000 0.52133  0.40762  0.38259  Biso   1.000  C
  H1       1.0000 0.51217  0.51630  0.42172  Biso   1.000  H
  H2       1.0000 0.62835  0.49839  0.38421  Biso   1.000  H
  H3       1.0000 0.51795  0.51120  0.32990  Biso   1.000  H
  C3       1.0000 0.39463  0.39864  0.37128  Biso   1.000  C
  C4       1.0000 0.55855  0.37662  0.46022  Biso   1.000  C
  C5       1.0000 0.57489  0.36747  0.31703  Biso   1.000  C
  H4       1.0000 0.37527  0.34590  0.37342  Biso   1.000  H
  H5       1.0000 0.35808  0.42531  0.41232  Biso   1.000  H
  H6       1.0000 0.36924  0.41899  0.32101  Biso   1.000  H
  N1       1.0000 0.66587  0.38488  0.49242  Biso   1.000  N
  C6       1.0000 0.49984  0.33781  0.51285  Biso   1.000  C
  N2       1.0000 0.63423  0.30260  0.32701  Biso   1.000  N
  C7       1.0000 0.57108  0.38244  0.23981  Biso   1.000  C
  C8       1.0000 0.67471  0.35206  0.56434  Biso   1.000  C
  H7       1.0000 0.71594  0.40973  0.47020  Biso   1.000  H
  C9       1.0000 0.57282  0.32256  0.57778  Biso   1.000  C
  H8       1.0000 0.42360  0.32372  0.50668  Biso   1.000  H
  C10      1.0000 0.66897  0.27637  0.25747  Biso   1.000  C
  H9       1.0000 0.65501  0.28430  0.37469  Biso   1.000  H
  H10      1.0000 0.53536  0.42381  0.21528  Biso   1.000  H
  C11      1.0000 0.62969  0.32550  0.20241  Biso   1.000  C
  C12      1.0000 0.77998  0.35306  0.61703  Biso   1.000  C
  H11      1.0000 0.55393  0.29627  0.62280  Biso   1.000  H
  C13      1.0000 0.73875  0.20683  0.25216  Biso   1.000  C
  H12      1.0000 0.63983  0.32211  0.14862  Biso   1.000  H
  C14      1.0000 0.88369  0.37019  0.57455  Biso   1.000  C
  C15      1.0000 0.76715  0.41278  0.67936  Biso   1.000  C
  C16      1.0000 0.79208  0.27687  0.65910  Biso   1.000  C
  C17      1.0000 0.82880  0.20766  0.31657  Biso   1.000  C
  C18      1.0000 0.66475  0.13696  0.26024  Biso   1.000  C
  C19      1.0000 0.79145  0.20594  0.17286  Biso   1.000  C
  N3       1.0000 0.91344  0.32882  0.51187  Biso   1.000  N
  C20      1.0000 0.96510  0.42154  0.58736  Biso   1.000  C
  H13      1.0000 0.75938  0.46157  0.65478  Biso   1.000  H
  H14      1.0000 0.70045  0.40218  0.70787  Biso   1.000  H
  H15      1.0000 0.83326  0.41250  0.71509  Biso   1.000  H
  H16      1.0000 0.73149  0.27282  0.69558  Biso   1.000  H
  H17      1.0000 0.86376  0.27681  0.69010  Biso   1.000  H
  C21      1.0000 0.78838  0.20744  0.60774  Biso   1.000  C
  N4       1.0000 0.90482  0.26505  0.32418  Biso   1.000  N
  C22      1.0000 0.85413  0.15920  0.37590  Biso   1.000  C
  C23      1.0000 0.72098  0.06438  0.23784  Biso   1.000  C
  H18      1.0000 0.59535  0.14340  0.22740  Biso   1.000  H
  H19      1.0000 0.64329  0.13319  0.31437  Biso   1.000  H
  H20      1.0000 0.83908  0.24970  0.16818  Biso   1.000  H
  H21      1.0000 0.83659  0.16097  0.16830  Biso   1.000  H
  H22      1.0000 0.73220  0.20661  0.13182  Biso   1.000  H
  H23      1.0000 0.87694  0.29128  0.49381  Biso   1.000  H
  C24      1.0000 0.01149  0.35200  0.48411  Biso   1.000  C
  H24      1.0000 0.96732  0.45802  0.62690  Biso   1.000  H
  C25      1.0000 0.04699  0.41161  0.53109  Biso   1.000  C
  H25      1.0000 0.86494  0.19419  0.59377  Biso   1.000  H
  H26      1.0000 0.74295  0.21742  0.55960  Biso   1.000  H
  C26      1.0000 0.73805  0.14445  0.65091  Biso   1.000  C
  C27      1.0000 0.97837  0.25363  0.38675  Biso   1.000  C
  H27      1.0000 0.90500  0.30071  0.29452  Biso   1.000  H
  H28      1.0000 0.81551  0.11462  0.38611  Biso   1.000  H
  C28      1.0000 0.94836  0.18742  0.41936  Biso   1.000  C
  H29      1.0000 0.79449  0.06100  0.26653  Biso   1.000  H
  H30      1.0000 0.73498  0.06632  0.18209  Biso   1.000  H
  C29      1.0000 0.65579  0.99518  0.25320  Biso   1.000  C
  C30      1.0000 0.06143  0.31108  0.41693  Biso   1.000  C
  C31      1.0000 0.14293  0.45880  0.52521  Biso   1.000  C
  O1       1.0000 0.71859  0.08223  0.59850  Biso   1.000  O
  H31      1.0000 0.66652  0.16042  0.67180  Biso   1.000  H
  H32      1.0000 0.78934  0.12942  0.69471  Biso   1.000  H
  H33      1.0000 0.98438  0.16469  0.46328  Biso   1.000  H
  O2       1.0000 0.65280  0.98575  0.33648  Biso   1.000  O
  H34      1.0000 0.69185  0.95170  0.22999  Biso   1.000  H
  H35      1.0000 0.57877  0.99961  0.22988  Biso   1.000  H
  C32      1.0000 0.08754  0.36598  0.35252  Biso   1.000  C
  C33      1.0000 0.16857  0.27171  0.44683  Biso   1.000  C
  O3       1.0000 0.16662  0.51153  0.56826  Biso   1.000  O
  H36      1.0000 0.19173  0.44860  0.48509  Biso   1.000  H
  C34      1.0000 0.66276  0.02584  0.62950  Biso   1.000  C
  C35      1.0000 0.60887  0.92215  0.35928  Biso   1.000  C
  H37      1.0000 0.01855  0.39082  0.33400  Biso   1.000  H
  H38      1.0000 0.14130  0.40302  0.37272  Biso   1.000  H
  H39      1.0000 0.11946  0.33908  0.30981  Biso   1.000  H
  H40      1.0000 0.15097  0.23689  0.48792  Biso   1.000  H
  H41      1.0000 0.20077  0.24448  0.40441  Biso   1.000  H
  H42      1.0000 0.22244  0.30847  0.46732  Biso   1.000  H
  O4       1.0000 0.63873  0.02440  0.69610  Biso   1.000  O
  C36      1.0000 0.63063  0.96629  0.57305  Biso   1.000  C
  O5       1.0000 0.57619  0.87352  0.31535  Biso   1.000  O
  C37      1.0000 0.60404  0.91682  0.44481  Biso   1.000  C
  C38      1.0000 0.64130  0.97355  0.49416  Biso   1.000  C
  C39      1.0000 0.58385  0.90191  0.60237  Biso   1.000  C
  C40      1.0000 0.55837  0.85367  0.47442  Biso   1.000  C
  H43      1.0000 0.67366  0.01702  0.47390  Biso   1.000  H
  C41      1.0000 0.54837  0.84568  0.55337  Biso   1.000  C
  H44      1.0000 0.57649  0.89692  0.65639  Biso   1.000  H
  H45      1.0000 0.53336  0.81502  0.44048  Biso   1.000  H
  H46      1.0000 0.51725  0.80171  0.57340  Biso   1.000  H
  C42      1.0000 0.45255  0.50904  0.62072  Biso   1.000  C
  C43      1.0000 0.47859  0.59238  0.61743  Biso   1.000  C
  H47      1.0000 0.48774  0.48370  0.57830  Biso   1.000  H
  H48      1.0000 0.37156  0.50161  0.61582  Biso   1.000  H
  H49      1.0000 0.48197  0.48880  0.67007  Biso   1.000  H
  C44      1.0000 0.44136  0.62338  0.53975  Biso   1.000  C
  C45      1.0000 0.42502  0.63253  0.68294  Biso   1.000  C
  C46      1.0000 0.60528  0.60136  0.62869  Biso   1.000  C
  N5       1.0000 0.33404  0.61512  0.50760  Biso   1.000  N
  C47      1.0000 0.50008  0.66219  0.48717  Biso   1.000  C
  N6       1.0000 0.36568  0.69740  0.67296  Biso   1.000  N
  C48      1.0000 0.42883  0.61756  0.76022  Biso   1.000  C
  H50      1.0000 0.62465  0.65410  0.62661  Biso   1.000  H
  H51      1.0000 0.64183  0.57469  0.58771  Biso   1.000  H
  H52      1.0000 0.63068  0.58101  0.67902  Biso   1.000  H
  C49      1.0000 0.32521  0.64794  0.43563  Biso   1.000  C
  H53      1.0000 0.28398  0.59027  0.52982  Biso   1.000  H
  C50      1.0000 0.42717  0.67744  0.42218  Biso   1.000  C
  H54      1.0000 0.57639  0.67628  0.49329  Biso   1.000  H
  C51      1.0000 0.33095  0.72363  0.74250  Biso   1.000  C
  H55      1.0000 0.34499  0.71570  0.62528  Biso   1.000  H
  H56      1.0000 0.46456  0.57619  0.78469  Biso   1.000  H
  C52      1.0000 0.37022  0.67450  0.79756  Biso   1.000  C
  C53      1.0000 0.21993  0.64694  0.38294  Biso   1.000  C
  H57      1.0000 0.44599  0.70373  0.37722  Biso   1.000  H
  C54      1.0000 0.26117  0.79317  0.74787  Biso   1.000  C
  H58      1.0000 0.36017  0.67789  0.85141  Biso   1.000  H
  C55      1.0000 0.23276  0.58722  0.32061  Biso   1.000  C
  C56      1.0000 0.11623  0.62981  0.42547  Biso   1.000  C
  C57      1.0000 0.20783  0.72313  0.34086  Biso   1.000  C
  C58      1.0000 0.17111  0.79234  0.68340  Biso   1.000  C
  C59      1.0000 0.33516  0.86304  0.73979  Biso   1.000  C
  C60      1.0000 0.20847  0.79406  0.82711  Biso   1.000  C
  H59      1.0000 0.24054  0.53843  0.34519  Biso   1.000  H
  H60      1.0000 0.29946  0.59782  0.29210  Biso   1.000  H
  H61      1.0000 0.16665  0.58750  0.28488  Biso   1.000  H
  N7       1.0000 0.08648  0.67118  0.48815  Biso   1.000  N
  C61      1.0000 0.03490  0.57846  0.41266  Biso   1.000  C
  H62      1.0000 0.26851  0.72718  0.30439  Biso   1.000  H
  H63      1.0000 0.13615  0.72319  0.30987  Biso   1.000  H
  C62      1.0000 0.21153  0.79256  0.39223  Biso   1.000  C
  N8       1.0000 0.09510  0.73495  0.67578  Biso   1.000  N
  C63      1.0000 0.14579  0.84080  0.62413  Biso   1.000  C
  C64      1.0000 0.27893  0.93562  0.76218  Biso   1.000  C
  H64      1.0000 0.40456  0.85660  0.77257  Biso   1.000  H
  H65      1.0000 0.35662  0.86681  0.68560  Biso   1.000  H
  H66      1.0000 0.16083  0.75030  0.83179  Biso   1.000  H
  H67      1.0000 0.16333  0.83903  0.83167  Biso   1.000  H
  H68      1.0000 0.26772  0.79339  0.86821  Biso   1.000  H
  H69      1.0000 0.12297  0.70872  0.50622  Biso   1.000  H
  C65      1.0000 0.98842  0.64800  0.51586  Biso   1.000  C
  H70      1.0000 0.03259  0.54198  0.37313  Biso   1.000  H
  C66      1.0000 0.95293  0.58839  0.46888  Biso   1.000  C
  H71      1.0000 0.13497  0.80581  0.40620  Biso   1.000  H
  H72      1.0000 0.25697  0.78258  0.44042  Biso   1.000  H
  C67      1.0000 0.26186  0.85555  0.34906  Biso   1.000  C
  C68      1.0000 0.02154  0.74637  0.61328  Biso   1.000  C
  H73      1.0000 0.09491  0.69929  0.70551  Biso   1.000  H
  C69      1.0000 0.05155  0.81258  0.58067  Biso   1.000  C
  H74      1.0000 0.18449  0.88538  0.61391  Biso   1.000  H
  H75      1.0000 0.20542  0.93900  0.73350  Biso   1.000  H
  H76      1.0000 0.26493  0.93368  0.81788  Biso   1.000  H
  C70      1.0000 0.34412  0.00482  0.74683  Biso   1.000  C
  C71      1.0000 0.93849  0.68892  0.58304  Biso   1.000  C
  C72      1.0000 0.85698  0.54120  0.47476  Biso   1.000  C
  O6       1.0000 0.28132  0.91777  0.40147  Biso   1.000  O
  H77      1.0000 0.33339  0.83958  0.32822  Biso   1.000  H
  H78      1.0000 0.21058  0.87058  0.30531  Biso   1.000  H
  H79      1.0000 0.01553  0.83531  0.53669  Biso   1.000  H
  O7       1.0000 0.34711  0.01425  0.66349  Biso   1.000  O
  H80      1.0000 0.30806  0.04830  0.76997  Biso   1.000  H
  H81      1.0000 0.42115  0.00039  0.77009  Biso   1.000  H
  C73      1.0000 0.91238  0.63402  0.64750  Biso   1.000  C
  C74      1.0000 0.83134  0.72829  0.55314  Biso   1.000  C
  O8       1.0000 0.83330  0.48847  0.43171  Biso   1.000  O
  H82      1.0000 0.80818  0.55140  0.51487  Biso   1.000  H
  C75      1.0000 0.33716  0.97416  0.37047  Biso   1.000  C
  C76      1.0000 0.39105  0.07785  0.64075  Biso   1.000  C
  H83      1.0000 0.98136  0.60918  0.66597  Biso   1.000  H
  H84      1.0000 0.85862  0.59698  0.62730  Biso   1.000  H
  H85      1.0000 0.88046  0.66092  0.69021  Biso   1.000  H
  H86      1.0000 0.84895  0.76311  0.51210  Biso   1.000  H
  H87      1.0000 0.79915  0.75552  0.59562  Biso   1.000  H
  H88      1.0000 0.77748  0.69153  0.53271  Biso   1.000  H
  O9       1.0000 0.36119  0.97560  0.30387  Biso   1.000  O
  C77      1.0000 0.36928  0.03371  0.42698  Biso   1.000  C
  C78      1.0000 0.39588  0.08318  0.55522  Biso   1.000  C
  O10      1.0000 0.42373  0.12648  0.68461  Biso   1.000  O
  C79      1.0000 0.35870  0.02645  0.50587  Biso   1.000  C
  C80      1.0000 0.41606  0.09809  0.39760  Biso   1.000  C
  C81      1.0000 0.44155  0.14633  0.52561  Biso   1.000  C
  H89      1.0000 0.32625  0.98298  0.52607  Biso   1.000  H
  C82      1.0000 0.45155  0.15432  0.44666  Biso   1.000  C
  H90      1.0000 0.42351  0.10308  0.34358  Biso   1.000  H
  H91      1.0000 0.46655  0.18498  0.55949  Biso   1.000  H
  H92      1.0000 0.48266  0.19829  0.42657  Biso   1.000  H
  C83      1.0000 0.70851  0.70594  0.32713  Biso   1.000  C
  C84      1.0000 0.76121  0.70683  0.24783  Biso   1.000  C
  H93      1.0000 0.66088  0.74970  0.33180  Biso   1.000  H
  H94      1.0000 0.66337  0.66097  0.33169  Biso   1.000  H
  H95      1.0000 0.76777  0.70661  0.36822  Biso   1.000  H
  C85      1.0000 0.83521  0.63696  0.23981  Biso   1.000  C
  C86      1.0000 0.83099  0.77637  0.24252  Biso   1.000  C
  C87      1.0000 0.67115  0.70766  0.18342  Biso   1.000  C
  C88      1.0000 0.77897  0.56438  0.26214  Biso   1.000  C
  H96      1.0000 0.90460  0.64340  0.27259  Biso   1.000  H
  H97      1.0000 0.85667  0.63319  0.18561  Biso   1.000  H
  N9       1.0000 0.86573  0.80260  0.17297  Biso   1.000  N
  C89      1.0000 0.87027  0.82550  0.29758  Biso   1.000  C
  N10      1.0000 0.59514  0.76505  0.17580  Biso   1.000  N
  C90      1.0000 0.64583  0.65920  0.12409  Biso   1.000  C
  C91      1.0000 0.84417  0.49518  0.24685  Biso   1.000  C
  H98      1.0000 0.70547  0.56100  0.23351  Biso   1.000  H
  H99      1.0000 0.76498  0.56632  0.31789  Biso   1.000  H
  C92      1.0000 0.92506  0.86747  0.18296  Biso   1.000  C
  H100     1.0000 0.84503  0.78430  0.12530  Biso   1.000  H
  C93      1.0000 0.92888  0.88244  0.26024  Biso   1.000  C
  H101     1.0000 0.86022  0.82211  0.35143  Biso   1.000  H
  C94      1.0000 0.52158  0.75363  0.11324  Biso   1.000  C
  H102     1.0000 0.59496  0.80071  0.20552  Biso   1.000  H
  H103     1.0000 0.68453  0.61462  0.11387  Biso   1.000  H
  C95      1.0000 0.55160  0.68742  0.08069  Biso   1.000  C
  O11      1.0000 0.84716  0.48575  0.16351  Biso   1.000  O
  H104     1.0000 0.80811  0.45170  0.26999  Biso   1.000  H
  H105     1.0000 0.92119  0.49961  0.27011  Biso   1.000  H
  C96      1.0000 0.97863  0.90762  0.11739  Biso   1.000  C
  H106     1.0000 0.96460  0.92381  0.28471  Biso   1.000  H
  C97      1.0000 0.43853  0.81108  0.08305  Biso   1.000  C
  H107     1.0000 0.51557  0.66469  0.03671  Biso   1.000  H
  C98      1.0000 0.89109  0.42215  0.14071  Biso   1.000  C
  C99      1.0000 0.94141  0.87662  0.03977  Biso   1.000  C
  C100     1.0000 0.95259  0.99096  0.12074  Biso   1.000  C
  C101     1.0000 0.10532  0.89864  0.12870  Biso   1.000  C
  C102     1.0000 0.48847  0.85200  0.01587  Biso   1.000  C
  C103     1.0000 0.41242  0.86598  0.14746  Biso   1.000  C
  C104     1.0000 0.33138  0.77171  0.05316  Biso   1.000  C
  O12      1.0000 0.92377  0.37352  0.18463  Biso   1.000  O
  C105     1.0000 0.89592  0.41682  0.05523  Biso   1.000  C
  N11      1.0000 0.83409  0.88488  0.00762  Biso   1.000  N
  C106     1.0000 0.00003  0.83781  0.98713  Biso   1.000  C
  H108     1.0000 0.87160  0.99839  0.11578  Biso   1.000  H
  H109     1.0000 0.98779  0.01630  0.07832  Biso   1.000  H
  H110     1.0000 0.98201  0.01120  0.17009  Biso   1.000  H
  H111     1.0000 0.12469  0.84590  0.12663  Biso   1.000  H
  H112     1.0000 0.14188  0.92531  0.08773  Biso   1.000  H
  H113     1.0000 0.13072  0.91899  0.17897  Biso   1.000  H
  N12      1.0000 0.58644  0.82882  0.98811  Biso   1.000  N
  C107     1.0000 0.45288  0.91161  0.96883  Biso   1.000  C
  H114     1.0000 0.48141  0.89082  0.16599  Biso   1.000  H
  H115     1.0000 0.35866  0.90302  0.12732  Biso   1.000  H
  H116     1.0000 0.38050  0.83908  0.19017  Biso   1.000  H
  H117     1.0000 0.34899  0.73689  0.01212  Biso   1.000  H
  H118     1.0000 0.29919  0.74448  0.09558  Biso   1.000  H
  H119     1.0000 0.27752  0.80847  0.03272  Biso   1.000  H
  C108     1.0000 0.85874  0.47355  0.00589  Biso   1.000  C
  C109     1.0000 0.94159  0.35367  0.02563  Biso   1.000  C
  H120     1.0000 0.78402  0.90973  0.02978  Biso   1.000  H
  C110     1.0000 0.82516  0.85206  0.93559  Biso   1.000  C
  C111     1.0000 0.92713  0.82256  0.92214  Biso   1.000  C
  H121     1.0000 0.07635  0.82372  0.99325  Biso   1.000  H
  H122     1.0000 0.62301  0.79128  0.00618  Biso   1.000  H
  C112     1.0000 0.61618  0.87019  0.92543  Biso   1.000  C
  C113     1.0000 0.53486  0.92154  0.91262  Biso   1.000  C
  C114     1.0000 0.35694  0.95880  0.97478  Biso   1.000  C
  H123     1.0000 0.82630  0.51702  0.02609  Biso   1.000  H
  C115     1.0000 0.86924  0.46629  0.92693  Biso   1.000  C
  H124     1.0000 0.96659  0.31502  0.05950  Biso   1.000  H
  C116     1.0000 0.95150  0.34568  0.94661  Biso   1.000  C
  C117     1.0000 0.71989  0.85306  0.88295  Biso   1.000  C
  H125     1.0000 0.94594  0.79627  0.87718  Biso   1.000  H
  H126     1.0000 0.53255  0.95802  0.87308  Biso   1.000  H
  H127     1.0000 0.30822  0.94860  0.01489  Biso   1.000  H
  O13      1.0000 0.33325  0.01153  0.93167  Biso   1.000  O
  C118     1.0000 0.83712  0.52584  0.87049  Biso   1.000  C
  C119     1.0000 0.91601  0.40191  0.89756  Biso   1.000  C
  H128     1.0000 0.98262  0.30171  0.92659  Biso   1.000  H
  C120     1.0000 0.70788  0.77687  0.84088  Biso   1.000  C
  C121     1.0000 0.73272  0.91278  0.82062  Biso   1.000  C
  O14      1.0000 0.78128  0.58223  0.90142  Biso   1.000  O
  O15      1.0000 0.86114  0.52440  0.80383  Biso   1.000  O
  H129     1.0000 0.92347  0.39692  0.84359  Biso   1.000  H
  C122     1.0000 0.71149  0.70744  0.89225  Biso   1.000  C
  H130     1.0000 0.76847  0.77282  0.80435  Biso   1.000  H
  H131     1.0000 0.63611  0.77681  0.80989  Biso   1.000  H
  H132     1.0000 0.74049  0.96157  0.84515  Biso   1.000  H
  H133     1.0000 0.79942  0.90218  0.79205  Biso   1.000  H
  H134     1.0000 0.66661  0.91250  0.78490  Biso   1.000  H
  C123     1.0000 0.76181  0.64445  0.84902  Biso   1.000  C
  H135     1.0000 0.63493  0.69419  0.90616  Biso   1.000  H
  H136     1.0000 0.75692  0.71742  0.94038  Biso   1.000  H
  H137     1.0000 0.83335  0.66042  0.82818  Biso   1.000  H
  H138     1.0000 0.71054  0.62942  0.80527  Biso   1.000  H
  C124     1.0000 0.29140  0.29406  0.67284  Biso   1.000  C
  C125     1.0000 0.23871  0.29317  0.75214  Biso   1.000  C
  H139     1.0000 0.33904  0.25030  0.66822  Biso   1.000  H
  H140     1.0000 0.33654  0.33903  0.66828  Biso   1.000  H
  H141     1.0000 0.23215  0.29339  0.63181  Biso   1.000  H
  C126     1.0000 0.16892  0.22363  0.75745  Biso   1.000  C
  C127     1.0000 0.32876  0.29234  0.81655  Biso   1.000  C
  C128     1.0000 0.16471  0.36304  0.76022  Biso   1.000  C
  N13      1.0000 0.13419  0.19740  0.82705  Biso   1.000  N
  C129     1.0000 0.12965  0.17450  0.70245  Biso   1.000  C
  N14      1.0000 0.40477  0.23495  0.82417  Biso   1.000  N
  C130     1.0000 0.35417  0.34080  0.87588  Biso   1.000  C
  C131     1.0000 0.22094  0.43562  0.73783  Biso   1.000  C
  H142     1.0000 0.09531  0.35660  0.72738  Biso   1.000  H
  H143     1.0000 0.14325  0.36681  0.81442  Biso   1.000  H
  C132     1.0000 0.07485  0.13253  0.81707  Biso   1.000  C
  H144     1.0000 0.15496  0.21570  0.87467  Biso   1.000  H
  C133     1.0000 0.07104  0.11756  0.73979  Biso   1.000  C
  H145     1.0000 0.13978  0.17789  0.64860  Biso   1.000  H
  C134     1.0000 0.47833  0.24637  0.88673  Biso   1.000  C
  H146     1.0000 0.40496  0.19929  0.79450  Biso   1.000  H
  H147     1.0000 0.31547  0.38538  0.88610  Biso   1.000  H
  C135     1.0000 0.44832  0.31258  0.91934  Biso   1.000  C
  C136     1.0000 0.15575  0.50482  0.75318  Biso   1.000  C
  H148     1.0000 0.29445  0.43900  0.76651  Biso   1.000  H
  H149     1.0000 0.23493  0.43368  0.68208  Biso   1.000  H
  C137     1.0000 0.02129  0.09238  0.88258  Biso   1.000  C
  H150     1.0000 0.03532  0.07619  0.71532  Biso   1.000  H
  C138     1.0000 0.56139  0.18892  0.91697  Biso   1.000  C
  H151     1.0000 0.48434  0.33531  0.96332  Biso   1.000  H
  O16      1.0000 0.15276  0.51425  0.83646  Biso   1.000  O
  H152     1.0000 0.19181  0.54830  0.72998  Biso   1.000  H
  H153     1.0000 0.07873  0.50039  0.72992  Biso   1.000  H
  C139     1.0000 0.05851  0.12338  0.96020  Biso   1.000  C
  C140     1.0000 0.04733  0.00904  0.87929  Biso   1.000  C
  C141     1.0000 0.89459  0.10136  0.87132  Biso   1.000  C
  C142     1.0000 0.51144  0.14800  0.98410  Biso   1.000  C
  C143     1.0000 0.58749  0.13402  0.85251  Biso   1.000  C
  C144     1.0000 0.66853  0.22829  0.94681  Biso   1.000  C
  C145     1.0000 0.10882  0.57785  0.85926  Biso   1.000  C
  N15      1.0000 0.16583  0.11512  0.99241  Biso   1.000  N
  C146     1.0000 0.99988  0.16219  0.01284  Biso   1.000  C
  H154     1.0000 0.12831  0.00161  0.88419  Biso   1.000  H
  H155     1.0000 0.01213  0.98370  0.92171  Biso   1.000  H
  H156     1.0000 0.01790  0.98880  0.82988  Biso   1.000  H
  H157     1.0000 0.87522  0.15410  0.87340  Biso   1.000  H
  H158     1.0000 0.85804  0.07469  0.91230  Biso   1.000  H
  H159     1.0000 0.86927  0.08101  0.82099  Biso   1.000  H
  N16      1.0000 0.41348  0.17118  0.01186  Biso   1.000  N
  C147     1.0000 0.54703  0.08839  0.03113  Biso   1.000  C
  H160     1.0000 0.51850  0.10918  0.83398  Biso   1.000  H
  H161     1.0000 0.64126  0.09698  0.87271  Biso   1.000  H
  H162     1.0000 0.61941  0.16092  0.80980  Biso   1.000  H
  H163     1.0000 0.65093  0.26311  0.98791  Biso   1.000  H
  H164     1.0000 0.70072  0.25552  0.90439  Biso   1.000  H
  H165     1.0000 0.72240  0.19153  0.96730  Biso   1.000  H
  O17      1.0000 0.07614  0.62648  0.81534  Biso   1.000  O
  C148     1.0000 0.10400  0.58318  0.94479  Biso   1.000  C
  H166     1.0000 0.21590  0.09027  0.97019  Biso   1.000  H
  C149     1.0000 0.17475  0.14794  0.06438  Biso   1.000  C
  H167     1.0000 0.92356  0.17628  0.00672  Biso   1.000  H
  C150     1.0000 0.07278  0.17744  0.07783  Biso   1.000  C
  H168     1.0000 0.37690  0.20872  0.99379  Biso   1.000  H
  C151     1.0000 0.38373  0.12981  0.07454  Biso   1.000  C
  C152     1.0000 0.46514  0.07846  0.08735  Biso   1.000  C
  C153     1.0000 0.64297  0.04120  0.02525  Biso   1.000  C
  C154     1.0000 0.14126  0.52645  0.99414  Biso   1.000  C
  C155     1.0000 0.05832  0.64633  0.97440  Biso   1.000  C
  C156     1.0000 0.28003  0.14694  0.11707  Biso   1.000  C
  H169     1.0000 0.05398  0.20373  0.12284  Biso   1.000  H
  H170     1.0000 0.46737  0.04198  0.12694  Biso   1.000  H
  H171     1.0000 0.69169  0.05140  0.98508  Biso   1.000  H
  O18      1.0000 0.66666  0.98847  0.06830  Biso   1.000  O
  H172     1.0000 0.17361  0.48298  0.97388  Biso   1.000  H
  C157     1.0000 0.13068  0.53371  0.07309  Biso   1.000  C
  H173     1.0000 0.03332  0.68498  0.94052  Biso   1.000  H
  C158     1.0000 0.04842  0.65432  0.05341  Biso   1.000  C
  C159     1.0000 0.26720  0.08722  0.17940  Biso   1.000  C
  C160     1.0000 0.29212  0.22313  0.15915  Biso   1.000  C
  C161     1.0000 0.16280  0.47416  0.12954  Biso   1.000  C
  C162     1.0000 0.08390  0.59809  0.10241  Biso   1.000  C
  H174     1.0000 0.01729  0.69829  0.07344  Biso   1.000  H
  H175     1.0000 0.25942  0.03843  0.15482  Biso   1.000  H
  H176     1.0000 0.20049  0.09782  0.20792  Biso   1.000  H
  H177     1.0000 0.33331  0.08750  0.21513  Biso   1.000  H
  H178     1.0000 0.23145  0.22718  0.19562  Biso   1.000  H
  H179     1.0000 0.36381  0.22319  0.19014  Biso   1.000  H
  C163     1.0000 0.28842  0.29256  0.10778  Biso   1.000  C
  O19      1.0000 0.21863  0.41777  0.09855  Biso   1.000  O
  O20      1.0000 0.13877  0.47560  0.19614  Biso   1.000  O
  H180     1.0000 0.07645  0.60308  0.15643  Biso   1.000  H
  H181     1.0000 0.36498  0.30581  0.09381  Biso   1.000  H
  H182     1.0000 0.24299  0.28258  0.05965  Biso   1.000  H
  C164     1.0000 0.23810  0.35555  0.15095  Biso   1.000  C
  H183     1.0000 0.16657  0.33958  0.17184  Biso   1.000  H
  H184     1.0000 0.28938  0.37058  0.19470  Biso   1.000  H
  Ne1      1.0000 0.74760  0.21918  0.44748  Biso   1.000  Ne
  He1      1.0000 0.69531  0.21030  0.45174  Biso   1.000  He
  He2      1.0000 0.76127  0.13838  0.49165  Biso   1.000  He
  He3      1.0000 0.77866  0.27170  0.42375  Biso   1.000  He
  Ar1      1.0000 0.72849  0.23235  0.45405  Biso   1.000  Ar
  Ne2      1.0000 0.25232  0.78082  0.55252  Biso   1.000  Ne
  He4      1.0000 0.30106  0.78747  0.54808  Biso   1.000  He
  He5      1.0000 0.22514  0.73493  0.57229  Biso   1.000  He
  He6      1.0000 0.23016  0.86372  0.50644  Biso   1.000  He
  Ar2      1.0000 0.27149  0.76787  0.54597  Biso   1.000  Ar
  Ne3      1.0000 0.24759  0.28082  0.94749  Biso   1.000  Ne
  He7      1.0000 0.18948  0.29336  0.95144  Biso   1.000  He
  He8      1.0000 0.36199  0.41289  0.00566  Biso   1.000  He
  He9      1.0000 0.24417  0.21582  0.95436  Biso   1.000  He
  Ar3      1.0000 0.22848  0.26788  0.95408  Biso   1.000  Ar
  Ne4      1.0000 0.75233  0.71918  0.05251  Biso   1.000  Ne
  He10     1.0000 0.79756  0.71483  0.04783  Biso   1.000  He
  He11     1.0000 0.72285  0.76908  0.07469  Biso   1.000  He
  He12     1.0000 0.00000  0.00000  0.00000  Biso   1.000  He
  Ar4      1.0000 0.77242  0.73263  0.04565  Biso   1.000  Ar
