data_image0
_cell_length_a       16.827
_cell_length_b       18.611
_cell_length_c       16.242
_cell_angle_alpha    104.08
_cell_angle_beta     117.78
_cell_angle_gamma    102.2

_symmetry_space_group_name_H-M    "P 1"
_symmetry_int_tables_number       1

loop_
  _symmetry_equiv_pos_as_xyz
  'x, y, z'

loop_
  _atom_site_label
  _atom_site_occupancy
  _atom_site_fract_x
  _atom_site_fract_y
  _atom_site_fract_z
  _atom_site_thermal_displace_type
  _atom_site_B_iso_or_equiv
  _atom_site_type_symbol
  C1       1.0000 0.72964  0.14661  0.31969  Biso   1.000  C
  O1       1.0000 0.77775  0.23152  0.38106  Biso   1.000  O
  O2       1.0000 0.77777  0.23149  0.38113  Biso   1.000  O
  C2       1.0000 0.79603  0.10530  0.36310  Biso   1.000  C
  H1       1.0000 0.67086  0.12551  0.31795  Biso   1.000  H
  H2       1.0000 0.71199  0.13712  0.25091  Biso   1.000  H
  H3       1.0000 0.67088  0.12548  0.31803  Biso   1.000  H
  C3       1.0000 0.76528  0.27619  0.32235  Biso   1.000  C
  C4       1.0000 0.76526  0.27621  0.32242  Biso   1.000  C
  C5       1.0000 0.72970  0.14661  0.31969  Biso   1.000  C
  O3       1.0000 0.88591  0.13604  0.37439  Biso   1.000  O
  O4       1.0000 0.88583  0.13598  0.37439  Biso   1.000  O
  O5       1.0000 0.88589  0.13598  0.37439  Biso   1.000  O
  H4       1.0000 0.80726  0.11008  0.42878  Biso   1.000  H
  H5       1.0000 0.76455  0.04881  0.31932  Biso   1.000  H
  C6       1.0000 0.68703  0.29893  0.29219  Biso   1.000  C
  C7       1.0000 0.68695  0.29888  0.29219  Biso   1.000  C
  C8       1.0000 0.83289  0.29928  0.29841  Biso   1.000  C
  C9       1.0000 0.88816  0.13091  0.28841  Biso   1.000  C
  O6       1.0000 0.62066  0.27452  0.31826  Biso   1.000  O
  O7       1.0000 0.62069  0.27449  0.31833  Biso   1.000  O
  C10      1.0000 0.67193  0.34403  0.23310  Biso   1.000  C
  C11      1.0000 0.67186  0.34398  0.23310  Biso   1.000  C
  C12      1.0000 0.81330  0.34041  0.23560  Biso   1.000  C
  C13      1.0000 0.92550  0.28010  0.34159  Biso   1.000  C
  C14      1.0000 0.92544  0.28010  0.34159  Biso   1.000  C
  C15      1.0000 0.87448  0.05937  0.22621  Biso   1.000  C
  C16      1.0000 0.90946  0.19969  0.27068  Biso   1.000  C
  C17      1.0000 0.65084  0.32209  0.41848  Biso   1.000  C
  O8       1.0000 0.59900  0.37401  0.21379  Biso   1.000  O
  C18      1.0000 0.73330  0.36310  0.20068  Biso   1.000  C
  H6       1.0000 0.85578  0.35389  0.21538  Biso   1.000  H
  H7       1.0000 0.93721  0.27373  0.40394  Biso   1.000  H
  H8       1.0000 0.93719  0.27368  0.40394  Biso   1.000  H
  C19      1.0000 0.01498  0.34884  0.37280  Biso   1.000  C
  C20      1.0000 0.01497  0.34878  0.37280  Biso   1.000  C
  O9       1.0000 0.84595  0.98992  0.24023  Biso   1.000  O
  C21      1.0000 0.88797  0.05363  0.14689  Biso   1.000  C
  C22      1.0000 0.88796  0.05357  0.14689  Biso   1.000  C
  C23      1.0000 0.91939  0.19295  0.18992  Biso   1.000  C
  C24      1.0000 0.91938  0.19290  0.18992  Biso   1.000  C
  C25      1.0000 0.58204  0.28526  0.44439  Biso   1.000  C
  H9       1.0000 0.65286  0.37562  0.42356  Biso   1.000  H
  H10      1.0000 0.71570  0.32643  0.46621  Biso   1.000  H
  H11      1.0000 0.65288  0.37559  0.42363  Biso   1.000  H
  H12      1.0000 0.71568  0.32638  0.46621  Biso   1.000  H
  C26      1.0000 0.50098  0.31698  0.14417  Biso   1.000  C
  C27      1.0000 0.71341  0.40673  0.12879  Biso   1.000  C
  C28      1.0000 0.71340  0.40668  0.12879  Biso   1.000  C
  H13      1.0000 0.00958  0.35338  0.31235  Biso   1.000  H
  C29      1.0000 0.10924  0.33859  0.43454  Biso   1.000  C
  H14      1.0000 0.00956  0.35340  0.31242  Biso   1.000  H
  H15      1.0000 0.01675  0.39830  0.41219  Biso   1.000  H
  C30      1.0000 0.10928  0.33861  0.43462  Biso   1.000  C
  C31      1.0000 0.92346  0.97543  0.31409  Biso   1.000  C
  C32      1.0000 0.92338  0.97538  0.31409  Biso   1.000  C
  O10      1.0000 0.88766  0.98283  0.09356  Biso   1.000  O
  O11      1.0000 0.88763  0.98280  0.09364  Biso   1.000  O
  O12      1.0000 0.88765  0.98278  0.09356  Biso   1.000  O
  C33      1.0000 0.91030  0.12147  0.12720  Biso   1.000  C
  H16      1.0000 0.93291  0.23832  0.17659  Biso   1.000  H
  H17      1.0000 0.93290  0.23827  0.17659  Biso   1.000  H
  C34      1.0000 0.51087  0.20900  0.38500  Biso   1.000  C
  C35      1.0000 0.58986  0.32977  0.53113  Biso   1.000  C
  C36      1.0000 0.58984  0.32980  0.53121  Biso   1.000  C
  C37      1.0000 0.48220  0.27111  0.04303  Biso   1.000  C
  H18      1.0000 0.45691  0.34504  0.13492  Biso   1.000  H
  H19      1.0000 0.48777  0.27978  0.17310  Biso   1.000  H
  H20      1.0000 0.45689  0.34499  0.13492  Biso   1.000  H
  C38      1.0000 0.66237  0.34589  0.01947  Biso   1.000  C
  H21      1.0000 0.66671  0.42960  0.13106  Biso   1.000  H
  C39      1.0000 0.80330  0.47660  0.16310  Biso   1.000  C
  C40      1.0000 0.66241  0.34591  0.01955  Biso   1.000  C
  H22      1.0000 0.66669  0.42962  0.13114  Biso   1.000  H
  H23      1.0000 0.10899  0.29090  0.39325  Biso   1.000  H
  H24      1.0000 0.11216  0.33001  0.49227  Biso   1.000  H
  C41      1.0000 0.19931  0.40811  0.47250  Biso   1.000  C
  H25      1.0000 0.10897  0.29093  0.39333  Biso   1.000  H
  C42      1.0000 0.19925  0.40811  0.47250  Biso   1.000  C
  C43      1.0000 0.88210  0.90421  0.32932  Biso   1.000  C
  H26      1.0000 0.96552  0.96582  0.29106  Biso   1.000  H
  H27      1.0000 0.96551  0.96577  0.29106  Biso   1.000  H
  H28      1.0000 0.96166  0.02188  0.37765  Biso   1.000  H
  H29      1.0000 0.96164  0.02191  0.37772  Biso   1.000  H
  C44      1.0000 0.79625  0.91842  0.02197  Biso   1.000  C
  C45      1.0000 0.79627  0.91839  0.02205  Biso   1.000  C
  C46      1.0000 0.92416  0.11730  0.03917  Biso   1.000  C
  C47      1.0000 0.92420  0.11732  0.03924  Biso   1.000  C
  C48      1.0000 0.45088  0.17580  0.41250  Biso   1.000  C
  H30      1.0000 0.50347  0.17944  0.32500  Biso   1.000  H
  H31      1.0000 0.50346  0.17938  0.32500  Biso   1.000  H
  C49      1.0000 0.53055  0.29712  0.56037  Biso   1.000  C
  C50      1.0000 0.53054  0.29707  0.56037  Biso   1.000  C
  H32      1.0000 0.63516  0.38207  0.57030  Biso   1.000  H
  H33      1.0000 0.41399  0.23677  0.99644  Biso   1.000  H
  O13      1.0000 0.50893  0.32725  0.00432  Biso   1.000  O
  O14      1.0000 0.50891  0.32719  0.00432  Biso   1.000  O
  H34      1.0000 0.52008  0.23772  0.05000  Biso   1.000  H
  C51      1.0000 0.56187  0.30747  0.96333  Biso   1.000  C
  C52      1.0000 0.56193  0.30747  0.96333  Biso   1.000  C
  C53      1.0000 0.71070  0.32530  0.97273  Biso   1.000  C
  C54      1.0000 0.71068  0.32524  0.97273  Biso   1.000  C
  H35      1.0000 0.78795  0.49944  0.11250  Biso   1.000  H
  C55      1.0000 0.84021  0.54161  0.26500  Biso   1.000  C
  H36      1.0000 0.85413  0.45731  0.16894  Biso   1.000  H
  H37      1.0000 0.78794  0.49939  0.11250  Biso   1.000  H
  H38      1.0000 0.19676  0.41661  0.41485  Biso   1.000  H
  H39      1.0000 0.19971  0.45583  0.51371  Biso   1.000  H
  C56      1.0000 0.29427  0.39704  0.53530  Biso   1.000  C
  H40      1.0000 0.19680  0.41663  0.41492  Biso   1.000  H
  H41      1.0000 0.19965  0.45583  0.51371  Biso   1.000  H
  C57      1.0000 0.29426  0.39699  0.53530  Biso   1.000  C
  H42      1.0000 0.19679  0.41657  0.41492  Biso   1.000  H
  H43      1.0000 0.19964  0.45577  0.51371  Biso   1.000  H
  C58      1.0000 0.78444  0.86410  0.28288  Biso   1.000  C
  C59      1.0000 0.78439  0.86410  0.28288  Biso   1.000  C
  C60      1.0000 0.94618  0.87749  0.39250  Biso   1.000  C
  C61      1.0000 0.72622  0.94019  0.94114  Biso   1.000  C
  H44      1.0000 0.80646  0.87316  0.98985  Biso   1.000  H
  H45      1.0000 0.76757  0.90203  0.05750  Biso   1.000  H
  H46      1.0000 0.76750  0.90198  0.05750  Biso   1.000  H
  C62      1.0000 0.83152  0.10918  0.94644  Biso   1.000  C
  H47      1.0000 0.93498  0.06771  0.02030  Biso   1.000  H
  C63      1.0000 0.01299  0.18516  0.06848  Biso   1.000  C
  C64      1.0000 0.37146  0.09531  0.34818  Biso   1.000  C
  C65      1.0000 0.46185  0.22145  0.50166  Biso   1.000  C
  H48      1.0000 0.53764  0.32670  0.62007  Biso   1.000  H
  C66      1.0000 0.51219  0.25278  0.86493  Biso   1.000  C
  C67      1.0000 0.66373  0.27041  0.87439  Biso   1.000  C
  C68      1.0000 0.66369  0.27039  0.87432  Biso   1.000  C
  H49      1.0000 0.77815  0.34983  0.00992  Biso   1.000  H
  H50      1.0000 0.77809  0.34983  0.00992  Biso   1.000  H
  H51      1.0000 0.77808  0.34978  0.00992  Biso   1.000  H
  H52      1.0000 0.78873  0.56041  0.25810  Biso   1.000  H
  H53      1.0000 0.85352  0.51773  0.31439  Biso   1.000  H
  C69      1.0000 0.93070  0.61352  0.30621  Biso   1.000  C
  H54      1.0000 0.85350  0.51767  0.31439  Biso   1.000  H
  H55      1.0000 0.29319  0.34901  0.49378  Biso   1.000  H
  H56      1.0000 0.29620  0.38824  0.59250  Biso   1.000  H
  C70      1.0000 0.38434  0.46369  0.57393  Biso   1.000  C
  H57      1.0000 0.29313  0.34901  0.49378  Biso   1.000  H
  H58      1.0000 0.29612  0.38818  0.59250  Biso   1.000  H
  C71      1.0000 0.38438  0.46371  0.57401  Biso   1.000  C
  C72      1.0000 0.74794  0.79809  0.29719  Biso   1.000  C
  C73      1.0000 0.74788  0.79809  0.29719  Biso   1.000  C
  H59      1.0000 0.74132  0.88216  0.24038  Biso   1.000  H
  C74      1.0000 0.91193  0.81100  0.40719  Biso   1.000  C
  C75      1.0000 0.91187  0.81100  0.40719  Biso   1.000  C
  H60      1.0000 0.01266  0.90448  0.42507  Biso   1.000  H
  H61      1.0000 0.71203  0.98307  0.97159  Biso   1.000  H
  H62      1.0000 0.66584  0.89429  0.89273  Biso   1.000  H
  O15      1.0000 0.77158  0.96539  0.89068  Biso   1.000  O
  H63      1.0000 0.71207  0.98309  0.97167  Biso   1.000  H
  C76      1.0000 0.81371  0.17488  0.92742  Biso   1.000  C
  C77      1.0000 0.76032  0.03418  0.87523  Biso   1.000  C
  H64      1.0000 0.00562  0.23533  0.09023  Biso   1.000  H
  C78      1.0000 0.10856  0.18972  0.15106  Biso   1.000  C
  H65      1.0000 0.01507  0.17977  0.00879  Biso   1.000  H
  C79      1.0000 0.10858  0.18969  0.15114  Biso   1.000  C
  O16      1.0000 0.39145  0.05009  0.28083  Biso   1.000  O
  O17      1.0000 0.39147  0.05007  0.28076  Biso   1.000  O
  H66      1.0000 0.31008  0.10063  0.30977  Biso   1.000  H
  H67      1.0000 0.36696  0.06787  0.39060  Biso   1.000  H
  H68      1.0000 0.31007  0.10058  0.30977  Biso   1.000  H
  H69      1.0000 0.42183  0.20023  0.52136  Biso   1.000  H
  H70      1.0000 0.42182  0.20017  0.52136  Biso   1.000  H
  O18      1.0000 0.41290  0.21169  0.81273  Biso   1.000  O
  C80      1.0000 0.56152  0.23459  0.82023  Biso   1.000  C
  C81      1.0000 0.71571  0.24298  0.82333  Biso   1.000  C
  H71      1.0000 0.94140  0.65223  0.36629  Biso   1.000  H
  H72      1.0000 0.94139  0.65218  0.36629  Biso   1.000  H
  H73      1.0000 0.91489  0.63720  0.25651  Biso   1.000  H
  C82      1.0000 0.01949  0.60688  0.33212  Biso   1.000  C
  H74      1.0000 0.43910  0.44983  0.60878  Biso   1.000  H
  H75      1.0000 0.43902  0.44978  0.60878  Biso   1.000  H
  H76      1.0000 0.38316  0.47408  0.51848  Biso   1.000  H
  H77      1.0000 0.38952  0.51069  0.62007  Biso   1.000  H
  C83      1.0000 0.64231  0.75166  0.24689  Biso   1.000  C
  C84      1.0000 0.81413  0.77062  0.35939  Biso   1.000  C
  C85      1.0000 0.81406  0.77056  0.35939  Biso   1.000  C
  H78      1.0000 0.95540  0.79330  0.45000  Biso   1.000  H
  C86      1.0000 0.73334  0.16879  0.84030  Biso   1.000  C
  H79      1.0000 0.85813  0.22580  0.97591  Biso   1.000  H
  C87      1.0000 0.73332  0.16881  0.84038  Biso   1.000  C
  H80      1.0000 0.85809  0.22577  0.97599  Biso   1.000  H
  C88      1.0000 0.68039  0.02580  0.78765  Biso   1.000  C
  H81      1.0000 0.11969  0.14179  0.12818  Biso   1.000  H
  H82      1.0000 0.10626  0.19200  0.21030  Biso   1.000  H
  H83      1.0000 0.11973  0.14182  0.12826  Biso   1.000  H
  C89      1.0000 0.19248  0.26331  0.18023  Biso   1.000  C
  C90      1.0000 0.31954  0.97418  0.21235  Biso   1.000  C
  C91      1.0000 0.35764  0.24830  0.75303  Biso   1.000  C
  O19      1.0000 0.51054  0.18058  0.72084  Biso   1.000  O
  H84      1.0000 0.67073  0.22609  0.75023  Biso   1.000  H
  C92      1.0000 0.80764  0.30952  0.85493  Biso   1.000  C
  C93      1.0000 0.80762  0.30947  0.85493  Biso   1.000  C
  H85      1.0000 0.01439  0.57481  0.27166  Biso   1.000  H
  C94      1.0000 0.04852  0.56902  0.40719  Biso   1.000  C
  H86      1.0000 0.01443  0.57483  0.27174  Biso   1.000  H
  H87      1.0000 0.06868  0.65960  0.36083  Biso   1.000  H
  H88      1.0000 0.06870  0.65958  0.36075  Biso   1.000  H
  C95      1.0000 0.04844  0.56897  0.40719  Biso   1.000  C
  O20      1.0000 0.58700  0.78832  0.18720  Biso   1.000  O
  H89      1.0000 0.62535  0.69719  0.20432  Biso   1.000  H
  H90      1.0000 0.62529  0.69719  0.20432  Biso   1.000  H
  H91      1.0000 0.62792  0.74996  0.29780  Biso   1.000  H
  H92      1.0000 0.79163  0.72469  0.36810  Biso   1.000  H
  H93      1.0000 0.79157  0.72469  0.36810  Biso   1.000  H
  C96      1.0000 0.66842  0.09198  0.76773  Biso   1.000  C
  O21      1.0000 0.60848  0.94989  0.71917  Biso   1.000  O
  H94      1.0000 0.18055  0.31085  0.20273  Biso   1.000  H
  H95      1.0000 0.19343  0.26093  0.12030  Biso   1.000  H
  C97      1.0000 0.28809  0.27160  0.25977  Biso   1.000  C
  H96      1.0000 0.18048  0.31080  0.20273  Biso   1.000  H
  H97      1.0000 0.19336  0.26088  0.12030  Biso   1.000  H
  C98      1.0000 0.28813  0.27163  0.25985  Biso   1.000  C
  C99      1.0000 0.33154  0.90798  0.23220  Biso   1.000  C
  C100     1.0000 0.23965  0.96583  0.12470  Biso   1.000  C
  C101     1.0000 0.23963  0.96578  0.12470  Biso   1.000  C
  C102     1.0000 0.25202  0.20192  0.70273  Biso   1.000  C
  C103     1.0000 0.25201  0.20186  0.70273  Biso   1.000  C
  H98      1.0000 0.37208  0.25002  0.70220  Biso   1.000  H
  H99      1.0000 0.37460  0.30277  0.79561  Biso   1.000  H
  C104     1.0000 0.47824  0.09669  0.70887  Biso   1.000  C
  H100     1.0000 0.84413  0.28573  0.83296  Biso   1.000  H
  H101     1.0000 0.84756  0.33538  0.92826  Biso   1.000  H
  C105     1.0000 0.78893  0.37226  0.81220  Biso   1.000  C
  H102     1.0000 0.84412  0.28567  0.83296  Biso   1.000  H
  H103     1.0000 0.84750  0.33538  0.92826  Biso   1.000  H
  C106     1.0000 0.78891  0.37229  0.81227  Biso   1.000  C
  H104     1.0000 0.99289  0.54300  0.40697  Biso   1.000  H
  H105     1.0000 0.07401  0.53003  0.38901  Biso   1.000  H
  H106     1.0000 0.09803  0.60943  0.47341  Biso   1.000  H
  H107     1.0000 0.09797  0.60943  0.47341  Biso   1.000  H
  H108     1.0000 0.07400  0.52998  0.38901  Biso   1.000  H
  H109     1.0000 0.09796  0.60937  0.47341  Biso   1.000  H
  C107     1.0000 0.48772  0.74723  0.13500  Biso   1.000  C
  C108     1.0000 0.48770  0.74718  0.13500  Biso   1.000  C
  O22      1.0000 0.59737  0.08249  0.67076  Biso   1.000  O
  O23      1.0000 0.59732  0.08249  0.67076  Biso   1.000  O
  C109     1.0000 0.62849  0.90465  0.65175  Biso   1.000  C
  H110     1.0000 0.30411  0.22743  0.23538  Biso   1.000  H
  H111     1.0000 0.28653  0.26950  0.31818  Biso   1.000  H
  H112     1.0000 0.30404  0.22737  0.23538  Biso   1.000  H
  C110     1.0000 0.36930  0.35402  0.29272  Biso   1.000  C
  C111     1.0000 0.26663  0.83122  0.15962  Biso   1.000  C
  C112     1.0000 0.26661  0.83117  0.15962  Biso   1.000  C
  O24      1.0000 0.40262  0.91749  0.32924  Biso   1.000  O
  O25      1.0000 0.40258  0.91747  0.32916  Biso   1.000  O
  C113     1.0000 0.16845  0.89083  0.05348  Biso   1.000  C
  C114     1.0000 0.16847  0.89080  0.05356  Biso   1.000  C
  O26      1.0000 0.22843  0.03464  0.10932  Biso   1.000  O
  O27      1.0000 0.22836  0.03459  0.10932  Biso   1.000  O
  C115     1.0000 0.21552  0.13591  0.71705  Biso   1.000  C
  C116     1.0000 0.21551  0.13586  0.71705  Biso   1.000  C
  C117     1.0000 0.18583  0.22939  0.64053  Biso   1.000  C
  C118     1.0000 0.18587  0.22942  0.64061  Biso   1.000  C
  C119     1.0000 0.49733  0.05057  0.63932  Biso   1.000  C
  C120     1.0000 0.49737  0.05059  0.63940  Biso   1.000  C
  H113     1.0000 0.40942  0.07612  0.68243  Biso   1.000  H
  H114     1.0000 0.51313  0.09298  0.77394  Biso   1.000  H
  H115     1.0000 0.40945  0.07609  0.68250  Biso   1.000  H
  H116     1.0000 0.40941  0.07607  0.68243  Biso   1.000  H
  H117     1.0000 0.74673  0.39190  0.82826  Biso   1.000  H
  H118     1.0000 0.75466  0.34710  0.73917  Biso   1.000  H
  C121     1.0000 0.87836  0.44269  0.85061  Biso   1.000  C
  C122     1.0000 0.87834  0.44272  0.85068  Biso   1.000  C
  C123     1.0000 0.43844  0.76542  0.17970  Biso   1.000  C
  C124     1.0000 0.43843  0.76537  0.17970  Biso   1.000  C
  C125     1.0000 0.43802  0.69249  0.03659  Biso   1.000  C
  C126     1.0000 0.54908  0.82421  0.58743  Biso   1.000  C
  C127     1.0000 0.54911  0.82417  0.58750  Biso   1.000  C
  H119     1.0000 0.63299  0.93208  0.60932  Biso   1.000  H
  H120     1.0000 0.68988  0.89938  0.69015  Biso   1.000  H
  H121     1.0000 0.63303  0.93211  0.60940  Biso   1.000  H
  H122     1.0000 0.37287  0.35501  0.23568  Biso   1.000  H
  H123     1.0000 0.43087  0.35897  0.34629  Biso   1.000  H
  H124     1.0000 0.35289  0.39773  0.31583  Biso   1.000  H
  H125     1.0000 0.35288  0.39768  0.31583  Biso   1.000  H
  C128     1.0000 0.28426  0.75703  0.17659  Biso   1.000  C
  C129     1.0000 0.28418  0.75698  0.17659  Biso   1.000  C
  C130     1.0000 0.18625  0.82513  0.07250  Biso   1.000  C
  C131     1.0000 0.18624  0.82508  0.07250  Biso   1.000  C
  C132     1.0000 0.50264  0.94944  0.36060  Biso   1.000  C
  C133     1.0000 0.50263  0.94939  0.36060  Biso   1.000  C
  C134     1.0000 0.07574  0.88266  0.96076  Biso   1.000  C
  C135     1.0000 0.07575  0.88271  0.96076  Biso   1.000  C
  C136     1.0000 0.27368  0.05982  0.05879  Biso   1.000  C
  C137     1.0000 0.27367  0.05977  0.05879  Biso   1.000  C
  C138     1.0000 0.11783  0.09577  0.67068  Biso   1.000  C
  H126     1.0000 0.25863  0.11779  0.75955  Biso   1.000  H
  C139     1.0000 0.08803  0.18901  0.59273  Biso   1.000  C
  C140     1.0000 0.08806  0.18898  0.59281  Biso   1.000  C
  H127     1.0000 0.20836  0.27529  0.63190  Biso   1.000  H
  H128     1.0000 0.20832  0.27527  0.63182  Biso   1.000  H
  H129     1.0000 0.48048  0.99588  0.63425  Biso   1.000  H
  H130     1.0000 0.45649  0.04993  0.57265  Biso   1.000  H
  H131     1.0000 0.45642  0.04988  0.57265  Biso   1.000  H
  H132     1.0000 0.45648  0.04988  0.57265  Biso   1.000  H
  H133     1.0000 0.92585  0.42268  0.84674  Biso   1.000  H
  H134     1.0000 0.90577  0.47371  0.92144  Biso   1.000  H
  H135     1.0000 0.90570  0.47366  0.92144  Biso   1.000  H
  C141     1.0000 0.86301  0.49667  0.79583  Biso   1.000  C
  C142     1.0000 0.86307  0.49667  0.79583  Biso   1.000  C
  C143     1.0000 0.33620  0.72957  0.12561  Biso   1.000  C
  O28      1.0000 0.48941  0.81938  0.27909  Biso   1.000  O
  C144     1.0000 0.33758  0.65407  0.98045  Biso   1.000  C
  O29      1.0000 0.49104  0.67276  0.99561  Biso   1.000  O
  O30      1.0000 0.49108  0.67279  0.99568  Biso   1.000  O
  C145     1.0000 0.48910  0.79101  0.61493  Biso   1.000  C
  C146     1.0000 0.48912  0.79098  0.61500  Biso   1.000  C
  C147     1.0000 0.53810  0.77850  0.49826  Biso   1.000  C
  C148     1.0000 0.19233  0.69049  0.14500  Biso   1.000  C
  H136     1.0000 0.32922  0.77386  0.24970  Biso   1.000  H
  H137     1.0000 0.14184  0.77421  0.02401  Biso   1.000  H
  C149     1.0000 0.52172  0.90332  0.29106  Biso   1.000  C
  C150     1.0000 0.52175  0.90329  0.29113  Biso   1.000  C
  H138     1.0000 0.54348  0.95008  0.42727  Biso   1.000  H
  H139     1.0000 0.51949  0.00413  0.36568  Biso   1.000  H
  H140     1.0000 0.51941  0.00407  0.36568  Biso   1.000  H
  C151     1.0000 0.98696  0.81479  0.93144  Biso   1.000  C
  C152     1.0000 0.08965  0.87848  0.87273  Biso   1.000  C
  H141     1.0000 0.06498  0.93230  0.97962  Biso   1.000  H
  H142     1.0000 0.06491  0.93225  0.97962  Biso   1.000  H
  C153     1.0000 0.20372  0.08159  0.97795  Biso   1.000  C
  H143     1.0000 0.28794  0.01694  0.02833  Biso   1.000  H
  H144     1.0000 0.33412  0.10572  0.10720  Biso   1.000  H
  H145     1.0000 0.28786  0.01689  0.02833  Biso   1.000  H
  H146     1.0000 0.33405  0.10566  0.10720  Biso   1.000  H
  C154     1.0000 0.07651  0.02458  0.68584  Biso   1.000  C
  C155     1.0000 0.05373  0.12252  0.60743  Biso   1.000  C
  C156     1.0000 0.05375  0.12249  0.60750  Biso   1.000  C
  C157     1.0000 0.05371  0.12247  0.60743  Biso   1.000  C
  H147     1.0000 0.04456  0.20671  0.54993  Biso   1.000  H
  H148     1.0000 0.04459  0.20668  0.55000  Biso   1.000  H
  H149     1.0000 0.84273  0.46740  0.72674  Biso   1.000  H
  H150     1.0000 0.81057  0.51212  0.79318  Biso   1.000  H
  C158     1.0000 0.95084  0.57097  0.84243  Biso   1.000  C
  C159     1.0000 0.28921  0.67471  0.02720  Biso   1.000  C
  C160     1.0000 0.28655  0.59328  0.87114  Biso   1.000  C
  C161     1.0000 0.51776  0.72890  0.95689  Biso   1.000  C
  C162     1.0000 0.51773  0.72887  0.95697  Biso   1.000  C
  C163     1.0000 0.41785  0.71469  0.55553  Biso   1.000  C
  C164     1.0000 0.41789  0.71472  0.55561  Biso   1.000  C
  H151     1.0000 0.49649  0.82057  0.67493  Biso   1.000  H
  H152     1.0000 0.49647  0.82060  0.67500  Biso   1.000  H
  C165     1.0000 0.46941  0.70289  0.43955  Biso   1.000  C
  C166     1.0000 0.46935  0.70289  0.43955  Biso   1.000  C
  H153     1.0000 0.57807  0.79978  0.47856  Biso   1.000  H
  C167     1.0000 0.21102  0.62769  0.18773  Biso   1.000  C
  H154     1.0000 0.15583  0.71428  0.16697  Biso   1.000  H
  H155     1.0000 0.15581  0.71430  0.16704  Biso   1.000  H
  H156     1.0000 0.15243  0.66460  0.07174  Biso   1.000  H
  H157     1.0000 0.15239  0.66457  0.07167  Biso   1.000  H
  H158     1.0000 0.59048  0.92389  0.31750  Biso   1.000  H
  H159     1.0000 0.48682  0.90697  0.22598  Biso   1.000  H
  H160     1.0000 0.98488  0.82018  0.99114  Biso   1.000  H
  H161     1.0000 0.98482  0.82018  0.99114  Biso   1.000  H
  C168     1.0000 0.89135  0.81029  0.84886  Biso   1.000  C
  H162     1.0000 0.99437  0.76465  0.90977  Biso   1.000  H
  C169     1.0000 0.08058  0.80706  0.81000  Biso   1.000  C
  C170     1.0000 0.11199  0.94638  0.85303  Biso   1.000  C
  C171     1.0000 0.08056  0.80708  0.81008  Biso   1.000  C
  C172     1.0000 0.11193  0.94638  0.85303  Biso   1.000  C
  O31      1.0000 0.11230  0.01718  0.90636  Biso   1.000  O
  H163     1.0000 0.23239  0.09798  0.94242  Biso   1.000  H
  H164     1.0000 0.19349  0.12680  0.01008  Biso   1.000  H
  H165     1.0000 0.19353  0.12682  0.01015  Biso   1.000  H
  O32      1.0000 0.15405  0.01012  0.75977  Biso   1.000  O
  O33      1.0000 0.15404  0.01006  0.75977  Biso   1.000  O
  H166     1.0000 0.03829  0.97807  0.62228  Biso   1.000  H
  H167     1.0000 0.03444  0.03419  0.70887  Biso   1.000  H
  H168     1.0000 0.98724  0.09553  0.57485  Biso   1.000  H
  H169     1.0000 0.98723  0.09548  0.57485  Biso   1.000  H
  H170     1.0000 0.93825  0.59921  0.79833  Biso   1.000  H
  H171     1.0000 0.96523  0.60477  0.90667  Biso   1.000  H
  H172     1.0000 0.93824  0.59915  0.79833  Biso   1.000  H
  H173     1.0000 0.00515  0.55670  0.85235  Biso   1.000  H
  H174     1.0000 0.22181  0.65018  0.99000  Biso   1.000  H
  H175     1.0000 0.22185  0.65020  0.99008  Biso   1.000  H
  C173     1.0000 0.26667  0.63691  0.79924  Biso   1.000  C
  H176     1.0000 0.33326  0.57042  0.86886  Biso   1.000  H
  C174     1.0000 0.19667  0.52341  0.83682  Biso   1.000  C
  C175     1.0000 0.26665  0.63686  0.79924  Biso   1.000  C
  H177     1.0000 0.33324  0.57036  0.86886  Biso   1.000  H
  C176     1.0000 0.19663  0.52338  0.83690  Biso   1.000  C
  C177     1.0000 0.19665  0.52336  0.83682  Biso   1.000  C
  H178     1.0000 0.47982  0.76229  0.94992  Biso   1.000  H
  C178     1.0000 0.49897  0.68298  0.85576  Biso   1.000  C
  H179     1.0000 0.58597  0.76324  0.00348  Biso   1.000  H
  H180     1.0000 0.58594  0.76320  0.00356  Biso   1.000  H
  H181     1.0000 0.58596  0.76318  0.00348  Biso   1.000  H
  C179     1.0000 0.34905  0.67787  0.58144  Biso   1.000  C
  C180     1.0000 0.41009  0.67018  0.46879  Biso   1.000  C
  H182     1.0000 0.46233  0.67331  0.37985  Biso   1.000  H
  H183     1.0000 0.46225  0.67326  0.37985  Biso   1.000  H
  C181     1.0000 0.12159  0.55726  0.14932  Biso   1.000  C
  H184     1.0000 0.25324  0.60811  0.17167  Biso   1.000  H
  H185     1.0000 0.24531  0.65291  0.26076  Biso   1.000  H
  H186     1.0000 0.25320  0.60808  0.17174  Biso   1.000  H
  H187     1.0000 0.24534  0.65288  0.26083  Biso   1.000  H
  H188     1.0000 0.89364  0.80801  0.78962  Biso   1.000  H
  H189     1.0000 0.88028  0.85822  0.87174  Biso   1.000  H
  C182     1.0000 0.80742  0.73670  0.81970  Biso   1.000  C
  H190     1.0000 0.89367  0.80798  0.78970  Biso   1.000  H
  H191     1.0000 0.88027  0.85816  0.87174  Biso   1.000  H
  C183     1.0000 0.80745  0.73667  0.81977  Biso   1.000  C
  C184     1.0000 0.09051  0.80032  0.72924  Biso   1.000  C
  H192     1.0000 0.06706  0.76169  0.82333  Biso   1.000  H
  C185     1.0000 0.09044  0.80026  0.72924  Biso   1.000  C
  C186     1.0000 0.12551  0.94061  0.77379  Biso   1.000  C
  C187     1.0000 0.18667  0.65960  0.76432  Biso   1.000  C
  C188     1.0000 0.32807  0.65600  0.76690  Biso   1.000  C
  C189     1.0000 0.18669  0.65956  0.76440  Biso   1.000  C
  H193     1.0000 0.14588  0.54273  0.83106  Biso   1.000  H
  H194     1.0000 0.21201  0.50057  0.88743  Biso   1.000  H
  C190     1.0000 0.15976  0.45840  0.73493  Biso   1.000  C
  H195     1.0000 0.14586  0.54267  0.83106  Biso   1.000  H
  C191     1.0000 0.15978  0.45837  0.73500  Biso   1.000  C
  O34      1.0000 0.40096  0.62595  0.78614  Biso   1.000  O
  H196     1.0000 0.51218  0.72017  0.82682  Biso   1.000  H
  H197     1.0000 0.54306  0.65497  0.86500  Biso   1.000  H
  H198     1.0000 0.51216  0.72020  0.82690  Biso   1.000  H
  H199     1.0000 0.54304  0.65499  0.86508  Biso   1.000  H
  O35      1.0000 0.37930  0.72549  0.68167  Biso   1.000  O
  O36      1.0000 0.37924  0.72549  0.68167  Biso   1.000  O
  H200     1.0000 0.28427  0.67358  0.53372  Biso   1.000  H
  H201     1.0000 0.34705  0.62439  0.57637  Biso   1.000  H
  H202     1.0000 0.28431  0.67360  0.53379  Biso   1.000  H
  H203     1.0000 0.36479  0.61788  0.42963  Biso   1.000  H
  H204     1.0000 0.36483  0.61790  0.42970  Biso   1.000  H
  C192     1.0000 0.13688  0.50328  0.20409  Biso   1.000  C
  H205     1.0000 0.09420  0.52630  0.07848  Biso   1.000  H
  H206     1.0000 0.07411  0.57727  0.15318  Biso   1.000  H
  H207     1.0000 0.80653  0.73908  0.87962  Biso   1.000  H
  C193     1.0000 0.71188  0.72841  0.74015  Biso   1.000  C
  H208     1.0000 0.81945  0.68918  0.79727  Biso   1.000  H
  C194     1.0000 0.71186  0.72835  0.74015  Biso   1.000  C
  C195     1.0000 0.11180  0.86911  0.71152  Biso   1.000  C
  C196     1.0000 0.11177  0.86907  0.71159  Biso   1.000  C
  C197     1.0000 0.07445  0.71985  0.65834  Biso   1.000  C
  C198     1.0000 0.31294  0.70108  0.70773  Biso   1.000  C
  H209     1.0000 0.14417  0.64607  0.78455  Biso   1.000  H
  C199     1.0000 0.16711  0.70070  0.70159  Biso   1.000  C
  H210     1.0000 0.21124  0.43961  0.74182  Biso   1.000  H
  H211     1.0000 0.14645  0.48228  0.68553  Biso   1.000  H
  C200     1.0000 0.06926  0.38649  0.69371  Biso   1.000  C
  H212     1.0000 0.21127  0.43957  0.74190  Biso   1.000  H
  C201     1.0000 0.06923  0.38646  0.69379  Biso   1.000  C
  C202     1.0000 0.04911  0.42898  0.15750  Biso   1.000  C
  H213     1.0000 0.15723  0.53261  0.27318  Biso   1.000  H
  H214     1.0000 0.15717  0.53261  0.27318  Biso   1.000  H
  H215     1.0000 0.15716  0.53255  0.27318  Biso   1.000  H
  H216     1.0000 0.18942  0.48786  0.20682  Biso   1.000  H
  H217     1.0000 0.69586  0.77258  0.76455  Biso   1.000  H
  H218     1.0000 0.71336  0.73046  0.68174  Biso   1.000  H
  C203     1.0000 0.63069  0.64596  0.70728  Biso   1.000  C
  O37      1.0000 0.11410  0.86400  0.62561  Biso   1.000  O
  C204     1.0000 0.98499  0.65118  0.62712  Biso   1.000  C
  C205     1.0000 0.98497  0.65120  0.62720  Biso   1.000  C
  H219     1.0000 0.06280  0.72630  0.59606  Biso   1.000  H
  C206     1.0000 0.23467  0.72377  0.67758  Biso   1.000  C
  C207     1.0000 0.98046  0.39308  0.66781  Biso   1.000  C
  C208     1.0000 0.98044  0.39310  0.66788  Biso   1.000  C
  H220     1.0000 0.05856  0.34778  0.63364  Biso   1.000  H
  H221     1.0000 0.08501  0.36281  0.74341  Biso   1.000  H
  H222     1.0000 0.08500  0.36275  0.74341  Biso   1.000  H
  H223     1.0000 0.06171  0.40080  0.20159  Biso   1.000  H
  H224     1.0000 0.99481  0.44331  0.14757  Biso   1.000  H
  H225     1.0000 0.99484  0.44328  0.14765  Biso   1.000  H
  H226     1.0000 0.03472  0.39518  0.09326  Biso   1.000  H
  H227     1.0000 0.03470  0.39521  0.09333  Biso   1.000  H
  H228     1.0000 0.62709  0.64500  0.76424  Biso   1.000  H
  H229     1.0000 0.56903  0.64098  0.65364  Biso   1.000  H
  H230     1.0000 0.62702  0.64495  0.76424  Biso   1.000  H
  H231     1.0000 0.64705  0.60230  0.68417  Biso   1.000  H
  C209     1.0000 0.20387  0.89471  0.63682  Biso   1.000  C
  C210     1.0000 0.20390  0.89468  0.63690  Biso   1.000  C
  H232     1.0000 0.99038  0.64663  0.68758  Biso   1.000  H
  H233     1.0000 0.98316  0.60171  0.58773  Biso   1.000  H
  C211     1.0000 0.89073  0.66142  0.56538  Biso   1.000  C
  H234     1.0000 0.99037  0.64658  0.68758  Biso   1.000  H
  H235     1.0000 0.98319  0.60168  0.58781  Biso   1.000  H
  C212     1.0000 0.89066  0.66136  0.56538  Biso   1.000  C
  O38      1.0000 0.22216  0.76849  0.61887  Biso   1.000  O
  H236     1.0000 0.98557  0.42520  0.72826  Biso   1.000  H
  H237     1.0000 0.93125  0.34038  0.63917  Biso   1.000  H
  C213     1.0000 0.95145  0.43099  0.59273  Biso   1.000  C
  C214     1.0000 0.95149  0.43101  0.59281  Biso   1.000  C
  H238     1.0000 0.98556  0.42515  0.72826  Biso   1.000  H
  C215     1.0000 0.27026  0.85340  0.68023  Biso   1.000  C
  C216     1.0000 0.27030  0.85342  0.68031  Biso   1.000  C
  C217     1.0000 0.27029  0.85337  0.68031  Biso   1.000  C
  H239     1.0000 0.23535  0.95121  0.68061  Biso   1.000  H
  H240     1.0000 0.23538  0.95117  0.68068  Biso   1.000  H
  H241     1.0000 0.19269  0.88987  0.57114  Biso   1.000  H
  C218     1.0000 0.80065  0.59190  0.52743  Biso   1.000  C
  C219     1.0000 0.80068  0.59187  0.52750  Biso   1.000  C
  H242     1.0000 0.89096  0.70905  0.60667  Biso   1.000  H
  H243     1.0000 0.88779  0.66995  0.50766  Biso   1.000  H
  H244     1.0000 0.92595  0.46998  0.61091  Biso   1.000  H
  H245     1.0000 0.90194  0.39058  0.52652  Biso   1.000  H
  H246     1.0000 0.92599  0.47000  0.61099  Biso   1.000  H
  H247     1.0000 0.90198  0.39061  0.52659  Biso   1.000  H
  H248     1.0000 0.00706  0.45695  0.59296  Biso   1.000  H
  H249     1.0000 0.32911  0.87450  0.68197  Biso   1.000  H
  H250     1.0000 0.28798  0.86289  0.74902  Biso   1.000  H
  H251     1.0000 0.28802  0.86292  0.74909  Biso   1.000  H
  H252     1.0000 0.28800  0.86286  0.74909  Biso   1.000  H
  H253     1.0000 0.80321  0.58341  0.58508  Biso   1.000  H
  H254     1.0000 0.80026  0.54418  0.48622  Biso   1.000  H
  C220     1.0000 0.70569  0.60297  0.46463  Biso   1.000  C
  H255     1.0000 0.80029  0.54421  0.48629  Biso   1.000  H
  C221     1.0000 0.70567  0.60299  0.46470  Biso   1.000  C
  H256     1.0000 0.70677  0.65100  0.50614  Biso   1.000  H
  H257     1.0000 0.70377  0.61178  0.40743  Biso   1.000  H
  H258     1.0000 0.70680  0.65097  0.50622  Biso   1.000  H
  H259     1.0000 0.70381  0.61180  0.40750  Biso   1.000  H
  C222     1.0000 0.61561  0.53626  0.42599  Biso   1.000  C
  H260     1.0000 0.56087  0.55018  0.39114  Biso   1.000  H
  H261     1.0000 0.56091  0.55020  0.39122  Biso   1.000  H
  H262     1.0000 0.61673  0.52587  0.48144  Biso   1.000  H
  H263     1.0000 0.61037  0.48926  0.37985  Biso   1.000  H
  Ne1      1.0000 0.50156  0.00062  0.00042  Biso   1.000  Ne
  He1      1.0000 0.66298  0.06683  0.41053  Biso   1.000  He
  He2      1.0000 0.37334  0.17694  0.06125  Biso   1.000  He
  He3      1.0000 0.64447  0.80425  0.94135  Biso   1.000  He
  He4      1.0000 0.81506  0.25957  0.08168  Biso   1.000  He
  He5      1.0000 0.17187  0.73095  0.91343  Biso   1.000  He
  He6      1.0000 0.37615  0.99792  0.73902  Biso   1.000  He
  Ar1      1.0000 0.50076  0.00010  0.99946  Biso   1.000  Ar
