data_image0
_cell_length_a       17.688
_cell_length_b       11.184
_cell_length_c       18.034
_cell_angle_alpha    90
_cell_angle_beta     96.03
_cell_angle_gamma    90

_symmetry_space_group_name_H-M    "P 1"
_symmetry_int_tables_number       1

loop_
  _symmetry_equiv_pos_as_xyz
  'x, y, z'

loop_
  _atom_site_label
  _atom_site_occupancy
  _atom_site_fract_x
  _atom_site_fract_y
  _atom_site_fract_z
  _atom_site_thermal_displace_type
  _atom_site_B_iso_or_equiv
  _atom_site_type_symbol
  C1       1.0000 0.79779  0.56590  0.51483  Biso   1.000  C
  C2       1.0000 0.73792  0.58619  0.45148  Biso   1.000  C
  O1       1.0000 0.77150  0.47863  0.56289  Biso   1.000  O
  H1       1.0000 0.80880  0.64083  0.54209  Biso   1.000  H
  H2       1.0000 0.84483  0.53827  0.49581  Biso   1.000  H
  O2       1.0000 0.72232  0.48543  0.40509  Biso   1.000  O
  H3       1.0000 0.75377  0.65236  0.42109  Biso   1.000  H
  H4       1.0000 0.69101  0.61052  0.47172  Biso   1.000  H
  C3       1.0000 0.82940  0.42123  0.60990  Biso   1.000  C
  C4       1.0000 0.78379  0.45386  0.36561  Biso   1.000  C
  C5       1.0000 0.86051  0.31268  0.57360  Biso   1.000  C
  H5       1.0000 0.87079  0.47791  0.62311  Biso   1.000  H
  H6       1.0000 0.80901  0.39682  0.65601  Biso   1.000  H
  H7       1.0000 0.81998  0.40576  0.39790  Biso   1.000  H
  H8       1.0000 0.81011  0.52673  0.35218  Biso   1.000  H
  C6       1.0000 0.76102  0.38993  0.30138  Biso   1.000  C
  O3       1.0000 0.91600  0.35139  0.52748  Biso   1.000  O
  H9       1.0000 0.81942  0.27057  0.54360  Biso   1.000  H
  H10      1.0000 0.88348  0.25769  0.61179  Biso   1.000  H
  O4       1.0000 0.82818  0.35032  0.26909  Biso   1.000  O
  H11      1.0000 0.73048  0.32073  0.31342  Biso   1.000  H
  H12      1.0000 0.72980  0.44036  0.26592  Biso   1.000  H
  C7       1.0000 0.94232  0.26896  0.47970  Biso   1.000  C
  C8       1.0000 0.81152  0.26019  0.22181  Biso   1.000  C
  C9       1.0000 0.99872  0.30830  0.43888  Biso   1.000  C
  C10      1.0000 0.91531  0.15308  0.47189  Biso   1.000  C
  C11      1.0000 0.88222  0.20136  0.19940  Biso   1.000  C
  H13      1.0000 0.78102  0.20082  0.24529  Biso   1.000  H
  H14      1.0000 0.78108  0.29041  0.17720  Biso   1.000  H
  C12      1.0000 0.02770  0.23140  0.38898  Biso   1.000  C
  H15      1.0000 0.01740  0.38671  0.44490  Biso   1.000  H
  C13      1.0000 0.94459  0.07672  0.42171  Biso   1.000  C
  H16      1.0000 0.87723  0.12643  0.50061  Biso   1.000  H
  O5       1.0000 0.91616  0.27799  0.14994  Biso   1.000  O
  H17      1.0000 0.86920  0.12482  0.17497  Biso   1.000  H
  H18      1.0000 0.91789  0.18598  0.24372  Biso   1.000  H
  O6       1.0000 0.08385  0.27799  0.35006  Biso   1.000  O
  C14      1.0000 0.00108  0.11508  0.38011  Biso   1.000  C
  C15      1.0000 0.91243  0.95288  0.41702  Biso   1.000  C
  C16      1.0000 0.97232  0.23140  0.11102  Biso   1.000  C
  C17      1.0000 0.11779  0.20136  0.30060  Biso   1.000  C
  H19      1.0000 0.02132  0.06313  0.34632  Biso   1.000  H
  O7       1.0000 0.94725  0.88627  0.36099  Biso   1.000  O
  H20      1.0000 0.85719  0.95646  0.40381  Biso   1.000  H
  H21      1.0000 0.92219  0.91309  0.46542  Biso   1.000  H
  C18      1.0000 0.99888  0.11508  0.11988  Biso   1.000  C
  C19      1.0000 0.00129  0.30830  0.06111  Biso   1.000  C
  H22      1.0000 0.13081  0.12482  0.32502  Biso   1.000  H
  H23      1.0000 0.08212  0.18598  0.25633  Biso   1.000  H
  C20      1.0000 0.18849  0.26019  0.27818  Biso   1.000  C
  C21      1.0000 0.92701  0.77307  0.35630  Biso   1.000  C
  H24      1.0000 0.97869  0.06313  0.15367  Biso   1.000  H
  C22      1.0000 0.05542  0.07672  0.07829  Biso   1.000  C
  H25      1.0000 0.98261  0.38671  0.05509  Biso   1.000  H
  C23      1.0000 0.05769  0.26896  0.02030  Biso   1.000  C
  O8       1.0000 0.17178  0.35032  0.23090  Biso   1.000  O
  H26      1.0000 0.21899  0.20082  0.25471  Biso   1.000  H
  H27      1.0000 0.21888  0.29041  0.32279  Biso   1.000  H
  O9       1.0000 0.88222  0.72791  0.39310  Biso   1.000  O
  C24      1.0000 0.96558  0.70476  0.29943  Biso   1.000  C
  C25      1.0000 0.08759  0.95288  0.08303  Biso   1.000  C
  C26      1.0000 0.08470  0.15308  0.02810  Biso   1.000  C
  O10      1.0000 0.08396  0.35139  0.97257  Biso   1.000  O
  C27      1.0000 0.23899  0.38993  0.19861  Biso   1.000  C
  C28      1.0000 0.96420  0.58128  0.30183  Biso   1.000  C
  N1       1.0000 0.99998  0.76708  0.25002  Biso   1.000  N
  O11      1.0000 0.05271  0.88627  0.13901  Biso   1.000  O
  H28      1.0000 0.14282  0.95646  0.09618  Biso   1.000  H
  H29      1.0000 0.07783  0.91309  0.03463  Biso   1.000  H
  H30      1.0000 0.12279  0.12643  0.99939  Biso   1.000  H
  C29      1.0000 0.13945  0.31268  0.92640  Biso   1.000  C
  C30      1.0000 0.21622  0.45386  0.13438  Biso   1.000  C
  H31      1.0000 0.26948  0.32073  0.18663  Biso   1.000  H
  H32      1.0000 0.27021  0.44036  0.23408  Biso   1.000  H
  H33      1.0000 0.93930  0.54113  0.33801  Biso   1.000  H
  C31      1.0000 0.99998  0.51851  0.25002  Biso   1.000  C
  C32      1.0000 0.03438  0.70476  0.20062  Biso   1.000  C
  C33      1.0000 0.07300  0.77307  0.14369  Biso   1.000  C
  H34      1.0000 0.18060  0.27057  0.95640  Biso   1.000  H
  H35      1.0000 0.11647  0.25769  0.88820  Biso   1.000  H
  C34      1.0000 0.17056  0.42123  0.89010  Biso   1.000  C
  O12      1.0000 0.27769  0.48543  0.09490  Biso   1.000  O
  H36      1.0000 0.17998  0.40576  0.10210  Biso   1.000  H
  H37      1.0000 0.18990  0.52673  0.14782  Biso   1.000  H
  C35      1.0000 0.03582  0.58128  0.19822  Biso   1.000  C
  H38      1.0000 0.99998  0.43446  0.25002  Biso   1.000  H
  O13      1.0000 0.11779  0.72791  0.10689  Biso   1.000  O
  O14      1.0000 0.22845  0.47863  0.93710  Biso   1.000  O
  H39      1.0000 0.12918  0.47791  0.87694  Biso   1.000  H
  H40      1.0000 0.19095  0.39682  0.84399  Biso   1.000  H
  C36      1.0000 0.26209  0.58619  0.04851  Biso   1.000  C
  H41      1.0000 0.06071  0.54113  0.16198  Biso   1.000  H
  C37      1.0000 0.20217  0.56590  0.98522  Biso   1.000  C
  H42      1.0000 0.24618  0.65236  0.07890  Biso   1.000  H
  H43      1.0000 0.30900  0.61052  0.02833  Biso   1.000  H
  H44      1.0000 0.19116  0.64083  0.95790  Biso   1.000  H
  H45      1.0000 0.15519  0.53827  0.00418  Biso   1.000  H
  C38      1.0000 0.58760  0.54712  0.58302  Biso   1.000  C
  C39      1.0000 0.55538  0.42328  0.57828  Biso   1.000  C
  O15      1.0000 0.55273  0.61373  0.63906  Biso   1.000  O
  H46      1.0000 0.64278  0.54354  0.59618  Biso   1.000  H
  H47      1.0000 0.57778  0.58691  0.53462  Biso   1.000  H
  C40      1.0000 0.49889  0.38492  0.61988  Biso   1.000  C
  C41      1.0000 0.58472  0.34692  0.52810  Biso   1.000  C
  C42      1.0000 0.57301  0.72693  0.64369  Biso   1.000  C
  C43      1.0000 0.47233  0.26860  0.61101  Biso   1.000  C
  H48      1.0000 0.47871  0.43687  0.65372  Biso   1.000  H
  C44      1.0000 0.55770  0.23104  0.52029  Biso   1.000  C
  H49      1.0000 0.62280  0.37357  0.49938  Biso   1.000  H
  O16      1.0000 0.61780  0.77209  0.60688  Biso   1.000  O
  C45      1.0000 0.53439  0.79524  0.70062  Biso   1.000  C
  C46      1.0000 0.50130  0.19170  0.56111  Biso   1.000  C
  O17      1.0000 0.41617  0.22201  0.64993  Biso   1.000  O
  O18      1.0000 0.58397  0.14861  0.47256  Biso   1.000  O
  N2       1.0000 0.49999  0.73292  0.75002  Biso   1.000  N
  C47      1.0000 0.53583  0.91872  0.69822  Biso   1.000  C
  H50      1.0000 0.48262  0.11329  0.55508  Biso   1.000  H
  C48      1.0000 0.38218  0.29864  0.69939  Biso   1.000  C
  C49      1.0000 0.63952  0.18732  0.42639  Biso   1.000  C
  C50      1.0000 0.46560  0.79524  0.79942  Biso   1.000  C
  C51      1.0000 0.49999  0.98149  0.75002  Biso   1.000  C
  H51      1.0000 0.56072  0.95887  0.66197  Biso   1.000  H
  H52      1.0000 0.36922  0.37518  0.67502  Biso   1.000  H
  H53      1.0000 0.41791  0.31402  0.74372  Biso   1.000  H
  C52      1.0000 0.31148  0.23981  0.72180  Biso   1.000  C
  H54      1.0000 0.68061  0.22943  0.45639  Biso   1.000  H
  H55      1.0000 0.61649  0.24231  0.38820  Biso   1.000  H
  C53      1.0000 0.67062  0.07877  0.39009  Biso   1.000  C
  C54      1.0000 0.46421  0.91872  0.80182  Biso   1.000  C
  C55      1.0000 0.42702  0.72693  0.85630  Biso   1.000  C
  H56      1.0000 0.49999  0.06554  0.75002  Biso   1.000  H
  O19      1.0000 0.32819  0.14968  0.76909  Biso   1.000  O
  H57      1.0000 0.28098  0.29918  0.74528  Biso   1.000  H
  H58      1.0000 0.28109  0.20959  0.67720  Biso   1.000  H
  O20      1.0000 0.72846  0.02137  0.43710  Biso   1.000  O
  H59      1.0000 0.62918  0.02209  0.37688  Biso   1.000  H
  H60      1.0000 0.69101  0.10318  0.34398  Biso   1.000  H
  H61      1.0000 0.43931  0.95887  0.83801  Biso   1.000  H
  O21      1.0000 0.38218  0.77209  0.89310  Biso   1.000  O
  O22      1.0000 0.44726  0.61373  0.86098  Biso   1.000  O
  C56      1.0000 0.26098  0.11007  0.80137  Biso   1.000  C
  C57      1.0000 0.70218  0.93410  0.48522  Biso   1.000  C
  C58      1.0000 0.41238  0.54712  0.91702  Biso   1.000  C
  C59      1.0000 0.28380  0.04614  0.86561  Biso   1.000  C
  H62      1.0000 0.23049  0.17927  0.81342  Biso   1.000  H
  H63      1.0000 0.22982  0.05964  0.76591  Biso   1.000  H
  H64      1.0000 0.69117  0.85917  0.45790  Biso   1.000  H
  H65      1.0000 0.65520  0.96173  0.50418  Biso   1.000  H
  C60      1.0000 0.76211  0.91381  0.54850  Biso   1.000  C
  H66      1.0000 0.35720  0.54354  0.90380  Biso   1.000  H
  H67      1.0000 0.42220  0.58691  0.96542  Biso   1.000  H
  C61      1.0000 0.44460  0.42328  0.92170  Biso   1.000  C
  O23      1.0000 0.22228  0.01457  0.90509  Biso   1.000  O
  H68      1.0000 0.31999  0.09424  0.89789  Biso   1.000  H
  H69      1.0000 0.31013  0.97327  0.85223  Biso   1.000  H
  O24      1.0000 0.77770  0.01457  0.59490  Biso   1.000  O
  H70      1.0000 0.74619  0.84764  0.57889  Biso   1.000  H
  H71      1.0000 0.80902  0.88948  0.52832  Biso   1.000  H
  C62      1.0000 0.50109  0.38492  0.88011  Biso   1.000  C
  C63      1.0000 0.41532  0.34692  0.97189  Biso   1.000  C
  C64      1.0000 0.23787  0.91381  0.95148  Biso   1.000  C
  C65      1.0000 0.71618  0.04614  0.63437  Biso   1.000  C
  H72      1.0000 0.52127  0.43687  0.84632  Biso   1.000  H
  C66      1.0000 0.52771  0.26860  0.88903  Biso   1.000  C
  C67      1.0000 0.44228  0.23104  0.97969  Biso   1.000  C
  H73      1.0000 0.37724  0.37357  0.00060  Biso   1.000  H
  H74      1.0000 0.25379  0.84764  0.92109  Biso   1.000  H
  H75      1.0000 0.19103  0.88948  0.97172  Biso   1.000  H
  C68      1.0000 0.29780  0.93410  0.01476  Biso   1.000  C
  H76      1.0000 0.67999  0.09424  0.60209  Biso   1.000  H
  C69      1.0000 0.73900  0.11007  0.69861  Biso   1.000  C
  H77      1.0000 0.68992  0.97327  0.64781  Biso   1.000  H
  O25      1.0000 0.58381  0.22201  0.85005  Biso   1.000  O
  C70      1.0000 0.49868  0.19170  0.93888  Biso   1.000  C
  O26      1.0000 0.41607  0.14861  0.02742  Biso   1.000  O
  H78      1.0000 0.34478  0.96173  0.99581  Biso   1.000  H
  H79      1.0000 0.30881  0.85917  0.04209  Biso   1.000  H
  O27      1.0000 0.27152  0.02137  0.06288  Biso   1.000  O
  O28      1.0000 0.67179  0.14968  0.73089  Biso   1.000  O
  H80      1.0000 0.76949  0.17927  0.68662  Biso   1.000  H
  H81      1.0000 0.77023  0.05964  0.73413  Biso   1.000  H
  C71      1.0000 0.61780  0.29864  0.80059  Biso   1.000  C
  H82      1.0000 0.51742  0.11329  0.94490  Biso   1.000  H
  C72      1.0000 0.36052  0.18732  0.07359  Biso   1.000  C
  C73      1.0000 0.32941  0.07877  0.10989  Biso   1.000  C
  C74      1.0000 0.68850  0.23981  0.77818  Biso   1.000  C
  H83      1.0000 0.63082  0.37518  0.82502  Biso   1.000  H
  H84      1.0000 0.58208  0.31402  0.75632  Biso   1.000  H
  H85      1.0000 0.31943  0.22943  0.04359  Biso   1.000  H
  H86      1.0000 0.38355  0.24231  0.11179  Biso   1.000  H
  H87      1.0000 0.37085  0.02209  0.12310  Biso   1.000  H
  H88      1.0000 0.30902  0.10318  0.15600  Biso   1.000  H
  H89      1.0000 0.71900  0.29918  0.75470  Biso   1.000  H
  H90      1.0000 0.71889  0.20959  0.82278  Biso   1.000  H
  O29      1.0000 0.91617  0.72201  0.64993  Biso   1.000  O
  C75      1.0000 0.88218  0.79864  0.69939  Biso   1.000  C
  C76      1.0000 0.97233  0.76860  0.61101  Biso   1.000  C
  C77      1.0000 0.81148  0.73981  0.72180  Biso   1.000  C
  H91      1.0000 0.86922  0.87518  0.67502  Biso   1.000  H
  H92      1.0000 0.91791  0.81402  0.74372  Biso   1.000  H
  C78      1.0000 0.99889  0.88492  0.61988  Biso   1.000  C
  C79      1.0000 0.00130  0.69170  0.56111  Biso   1.000  C
  O30      1.0000 0.82819  0.64968  0.76909  Biso   1.000  O
  H93      1.0000 0.78098  0.79918  0.74528  Biso   1.000  H
  H94      1.0000 0.78109  0.70959  0.67720  Biso   1.000  H
  H95      1.0000 0.97871  0.93687  0.65372  Biso   1.000  H
  C80      1.0000 0.05538  0.92328  0.57828  Biso   1.000  C
  H96      1.0000 0.98262  0.61329  0.55508  Biso   1.000  H
  C81      1.0000 0.05770  0.73104  0.52029  Biso   1.000  C
  C82      1.0000 0.76098  0.61007  0.80137  Biso   1.000  C
  C83      1.0000 0.08472  0.84692  0.52810  Biso   1.000  C
  C84      1.0000 0.08760  0.04712  0.58302  Biso   1.000  C
  O31      1.0000 0.08397  0.64861  0.47256  Biso   1.000  O
  C85      1.0000 0.78380  0.54614  0.86561  Biso   1.000  C
  H97      1.0000 0.73049  0.67927  0.81342  Biso   1.000  H
  H98      1.0000 0.72982  0.55964  0.76591  Biso   1.000  H
  H99      1.0000 0.12280  0.87357  0.49938  Biso   1.000  H
  O32      1.0000 0.05273  0.11373  0.63906  Biso   1.000  O
  H100     1.0000 0.14278  0.04354  0.59618  Biso   1.000  H
  H101     1.0000 0.07778  0.08691  0.53462  Biso   1.000  H
  C86      1.0000 0.13952  0.68732  0.42639  Biso   1.000  C
  O33      1.0000 0.72228  0.51457  0.90509  Biso   1.000  O
  H102     1.0000 0.81999  0.59424  0.89789  Biso   1.000  H
  H103     1.0000 0.81013  0.47327  0.85223  Biso   1.000  H
  C87      1.0000 0.07301  0.22693  0.64369  Biso   1.000  C
  H104     1.0000 0.18061  0.72943  0.45639  Biso   1.000  H
  H105     1.0000 0.11649  0.74231  0.38820  Biso   1.000  H
  C88      1.0000 0.17062  0.57877  0.39009  Biso   1.000  C
  C89      1.0000 0.73787  0.41381  0.95148  Biso   1.000  C
  O34      1.0000 0.11780  0.27209  0.60688  Biso   1.000  O
  C90      1.0000 0.03439  0.29524  0.70062  Biso   1.000  C
  O35      1.0000 0.22846  0.52137  0.43710  Biso   1.000  O
  H106     1.0000 0.12918  0.52209  0.37688  Biso   1.000  H
  H107     1.0000 0.19101  0.60318  0.34398  Biso   1.000  H
  H108     1.0000 0.75379  0.34764  0.92109  Biso   1.000  H
  H109     1.0000 0.69103  0.38948  0.97172  Biso   1.000  H
  C91      1.0000 0.79780  0.43410  0.01476  Biso   1.000  C
  N3       1.0000 0.99999  0.23292  0.75002  Biso   1.000  N
  C92      1.0000 0.03583  0.41872  0.69822  Biso   1.000  C
  C93      1.0000 0.20218  0.43410  0.48522  Biso   1.000  C
  H110     1.0000 0.84478  0.46173  0.99581  Biso   1.000  H
  O36      1.0000 0.77152  0.52137  0.06288  Biso   1.000  O
  H111     1.0000 0.80881  0.35917  0.04209  Biso   1.000  H
  C94      1.0000 0.96560  0.29524  0.79942  Biso   1.000  C
  C95      1.0000 0.99999  0.48149  0.75002  Biso   1.000  C
  H112     1.0000 0.06072  0.45887  0.66197  Biso   1.000  H
  H113     1.0000 0.19117  0.35917  0.45790  Biso   1.000  H
  H114     1.0000 0.15520  0.46173  0.50418  Biso   1.000  H
  C96      1.0000 0.26211  0.41381  0.54850  Biso   1.000  C
  C97      1.0000 0.82941  0.57877  0.10989  Biso   1.000  C
  C98      1.0000 0.96421  0.41872  0.80182  Biso   1.000  C
  C99      1.0000 0.92702  0.22693  0.85630  Biso   1.000  C
  H115     1.0000 0.99999  0.56554  0.75002  Biso   1.000  H
  O37      1.0000 0.27770  0.51457  0.59490  Biso   1.000  O
  H116     1.0000 0.24619  0.34764  0.57889  Biso   1.000  H
  H117     1.0000 0.30902  0.38948  0.52832  Biso   1.000  H
  C100     1.0000 0.86052  0.68732  0.07359  Biso   1.000  C
  H118     1.0000 0.87085  0.52209  0.12310  Biso   1.000  H
  H119     1.0000 0.80902  0.60318  0.15600  Biso   1.000  H
  H120     1.0000 0.93931  0.45887  0.83801  Biso   1.000  H
  O38      1.0000 0.94726  0.11373  0.86098  Biso   1.000  O
  O39      1.0000 0.88218  0.27209  0.89310  Biso   1.000  O
  C101     1.0000 0.21618  0.54614  0.63437  Biso   1.000  C
  O40      1.0000 0.91607  0.64861  0.02742  Biso   1.000  O
  H121     1.0000 0.81943  0.72943  0.04359  Biso   1.000  H
  H122     1.0000 0.88355  0.74231  0.11179  Biso   1.000  H
  C102     1.0000 0.91238  0.04712  0.91702  Biso   1.000  C
  H123     1.0000 0.17999  0.59424  0.60209  Biso   1.000  H
  H124     1.0000 0.18992  0.47327  0.64781  Biso   1.000  H
  C103     1.0000 0.23900  0.61007  0.69861  Biso   1.000  C
  C104     1.0000 0.94228  0.73104  0.97969  Biso   1.000  C
  C105     1.0000 0.94460  0.92328  0.92170  Biso   1.000  C
  H125     1.0000 0.85720  0.04354  0.90380  Biso   1.000  H
  H126     1.0000 0.92220  0.08691  0.96542  Biso   1.000  H
  O41      1.0000 0.17179  0.64968  0.73089  Biso   1.000  O
  H127     1.0000 0.26949  0.67927  0.68662  Biso   1.000  H
  H128     1.0000 0.27023  0.55964  0.73413  Biso   1.000  H
  C106     1.0000 0.99868  0.69170  0.93888  Biso   1.000  C
  C107     1.0000 0.91532  0.84692  0.97189  Biso   1.000  C
  C108     1.0000 0.00109  0.88492  0.88011  Biso   1.000  C
  C109     1.0000 0.18850  0.73981  0.77818  Biso   1.000  C
  C110     1.0000 0.02771  0.76860  0.88903  Biso   1.000  C
  H129     1.0000 0.01742  0.61329  0.94490  Biso   1.000  H
  H130     1.0000 0.87724  0.87357  0.00060  Biso   1.000  H
  H131     1.0000 0.02127  0.93687  0.84632  Biso   1.000  H
  C111     1.0000 0.11780  0.79864  0.80059  Biso   1.000  C
  H132     1.0000 0.21900  0.79918  0.75470  Biso   1.000  H
  H133     1.0000 0.21889  0.70959  0.82278  Biso   1.000  H
  O42      1.0000 0.08381  0.72201  0.85005  Biso   1.000  O
  H134     1.0000 0.13082  0.87518  0.82502  Biso   1.000  H
  H135     1.0000 0.08208  0.81402  0.75632  Biso   1.000  H
  C112     1.0000 0.61779  0.70136  0.30060  Biso   1.000  C
  O43      1.0000 0.58385  0.77799  0.35006  Biso   1.000  O
  H136     1.0000 0.63081  0.62482  0.32502  Biso   1.000  H
  H137     1.0000 0.58212  0.68598  0.25633  Biso   1.000  H
  C113     1.0000 0.68849  0.76019  0.27818  Biso   1.000  C
  C114     1.0000 0.52770  0.73140  0.38898  Biso   1.000  C
  O44      1.0000 0.67178  0.85032  0.23090  Biso   1.000  O
  H138     1.0000 0.71899  0.70082  0.25471  Biso   1.000  H
  H139     1.0000 0.71888  0.79041  0.32279  Biso   1.000  H
  C115     1.0000 0.50108  0.61508  0.38011  Biso   1.000  C
  C116     1.0000 0.49872  0.80830  0.43888  Biso   1.000  C
  C117     1.0000 0.73899  0.88993  0.19861  Biso   1.000  C
  C118     1.0000 0.44459  0.57672  0.42171  Biso   1.000  C
  H140     1.0000 0.52132  0.56313  0.34632  Biso   1.000  H
  C119     1.0000 0.44232  0.76896  0.47970  Biso   1.000  C
  H141     1.0000 0.51740  0.88671  0.44490  Biso   1.000  H
  C120     1.0000 0.71622  0.95386  0.13438  Biso   1.000  C
  H142     1.0000 0.76948  0.82073  0.18663  Biso   1.000  H
  H143     1.0000 0.77021  0.94036  0.23408  Biso   1.000  H
  C121     1.0000 0.41243  0.45288  0.41702  Biso   1.000  C
  C122     1.0000 0.41531  0.65308  0.47189  Biso   1.000  C
  O45      1.0000 0.41600  0.85139  0.52748  Biso   1.000  O
  O46      1.0000 0.77769  0.98543  0.09490  Biso   1.000  O
  H144     1.0000 0.67998  0.90576  0.10210  Biso   1.000  H
  H145     1.0000 0.68990  0.02673  0.14782  Biso   1.000  H
  O47      1.0000 0.44725  0.38627  0.36099  Biso   1.000  O
  H146     1.0000 0.35719  0.45646  0.40381  Biso   1.000  H
  H147     1.0000 0.42219  0.41309  0.46542  Biso   1.000  H
  H148     1.0000 0.37723  0.62643  0.50061  Biso   1.000  H
  C123     1.0000 0.36051  0.81268  0.57360  Biso   1.000  C
  C124     1.0000 0.76209  0.08619  0.04851  Biso   1.000  C
  C125     1.0000 0.42701  0.27307  0.35630  Biso   1.000  C
  H149     1.0000 0.31942  0.77057  0.54360  Biso   1.000  H
  H150     1.0000 0.38348  0.75769  0.61179  Biso   1.000  H
  C126     1.0000 0.32940  0.92123  0.60990  Biso   1.000  C
  C127     1.0000 0.70217  0.06590  0.98522  Biso   1.000  C
  H151     1.0000 0.74618  0.15236  0.07890  Biso   1.000  H
  H152     1.0000 0.80900  0.11052  0.02833  Biso   1.000  H
  O48      1.0000 0.38222  0.22791  0.39310  Biso   1.000  O
  C128     1.0000 0.46558  0.20476  0.29943  Biso   1.000  C
  O49      1.0000 0.27150  0.97863  0.56289  Biso   1.000  O
  H153     1.0000 0.37079  0.97791  0.62311  Biso   1.000  H
  H154     1.0000 0.30901  0.89682  0.65601  Biso   1.000  H
  O50      1.0000 0.72845  0.97863  0.93710  Biso   1.000  O
  H155     1.0000 0.69116  0.14083  0.95790  Biso   1.000  H
  H156     1.0000 0.65519  0.03827  0.00418  Biso   1.000  H
  N4       1.0000 0.49998  0.26708  0.25002  Biso   1.000  N
  C129     1.0000 0.46420  0.08128  0.30183  Biso   1.000  C
  C130     1.0000 0.29779  0.06590  0.51483  Biso   1.000  C
  C131     1.0000 0.67056  0.92123  0.89010  Biso   1.000  C
  C132     1.0000 0.53438  0.20476  0.20062  Biso   1.000  C
  C133     1.0000 0.49998  0.01851  0.25002  Biso   1.000  C
  H157     1.0000 0.43930  0.04113  0.33801  Biso   1.000  H
  H158     1.0000 0.30880  0.14083  0.54209  Biso   1.000  H
  H159     1.0000 0.34483  0.03827  0.49581  Biso   1.000  H
  C134     1.0000 0.23792  0.08619  0.45148  Biso   1.000  C
  C135     1.0000 0.63945  0.81268  0.92640  Biso   1.000  C
  H160     1.0000 0.62918  0.97791  0.87694  Biso   1.000  H
  H161     1.0000 0.69095  0.89682  0.84399  Biso   1.000  H
  C136     1.0000 0.53582  0.08128  0.19822  Biso   1.000  C
  C137     1.0000 0.57300  0.27307  0.14369  Biso   1.000  C
  H162     1.0000 0.49998  0.93446  0.25002  Biso   1.000  H
  O51      1.0000 0.22232  0.98543  0.40509  Biso   1.000  O
  H163     1.0000 0.25377  0.15236  0.42109  Biso   1.000  H
  H164     1.0000 0.19101  0.11052  0.47172  Biso   1.000  H
  O52      1.0000 0.58396  0.85139  0.97257  Biso   1.000  O
  H165     1.0000 0.68060  0.77057  0.95640  Biso   1.000  H
  H166     1.0000 0.61647  0.75769  0.88820  Biso   1.000  H
  H167     1.0000 0.56071  0.04113  0.16198  Biso   1.000  H
  O53      1.0000 0.61779  0.22791  0.10689  Biso   1.000  O
  O54      1.0000 0.55271  0.38627  0.13901  Biso   1.000  O
  C138     1.0000 0.28379  0.95386  0.36561  Biso   1.000  C
  C139     1.0000 0.55769  0.76896  0.02030  Biso   1.000  C
  C140     1.0000 0.58759  0.45288  0.08303  Biso   1.000  C
  H168     1.0000 0.31998  0.90576  0.39790  Biso   1.000  H
  C141     1.0000 0.26102  0.88993  0.30138  Biso   1.000  C
  H169     1.0000 0.31011  0.02673  0.35218  Biso   1.000  H
  C142     1.0000 0.58470  0.65308  0.02810  Biso   1.000  C
  C143     1.0000 0.50129  0.80830  0.06111  Biso   1.000  C
  H170     1.0000 0.64282  0.45646  0.09618  Biso   1.000  H
  H171     1.0000 0.57783  0.41309  0.03463  Biso   1.000  H
  C144     1.0000 0.55542  0.57672  0.07829  Biso   1.000  C
  O55      1.0000 0.32818  0.85032  0.26909  Biso   1.000  O
  H172     1.0000 0.23048  0.82073  0.31342  Biso   1.000  H
  H173     1.0000 0.22980  0.94036  0.26592  Biso   1.000  H
  H174     1.0000 0.62279  0.62643  0.99939  Biso   1.000  H
  C145     1.0000 0.47232  0.73140  0.11102  Biso   1.000  C
  H175     1.0000 0.48261  0.88671  0.05509  Biso   1.000  H
  C146     1.0000 0.49888  0.61508  0.11988  Biso   1.000  C
  C147     1.0000 0.31152  0.76019  0.22181  Biso   1.000  C
  O56      1.0000 0.41616  0.77799  0.14994  Biso   1.000  O
  H176     1.0000 0.47869  0.56313  0.15367  Biso   1.000  H
  C148     1.0000 0.38222  0.70136  0.19940  Biso   1.000  C
  H177     1.0000 0.28102  0.70082  0.24529  Biso   1.000  H
  H178     1.0000 0.28108  0.79041  0.17720  Biso   1.000  H
  H179     1.0000 0.36920  0.62482  0.17497  Biso   1.000  H
  H180     1.0000 0.41789  0.68598  0.24372  Biso   1.000  H
