data_image0
_cell_length_a       10.794
_cell_length_b       20.226
_cell_length_c       21.431
_cell_angle_alpha    63.1
_cell_angle_beta     83.24
_cell_angle_gamma    84.29

_symmetry_space_group_name_H-M    "P 1"
_symmetry_int_tables_number       1

loop_
  _symmetry_equiv_pos_as_xyz
  'x, y, z'

loop_
  _atom_site_label
  _atom_site_occupancy
  _atom_site_fract_x
  _atom_site_fract_y
  _atom_site_fract_z
  _atom_site_thermal_displace_type
  _atom_site_B_iso_or_equiv
  _atom_site_type_symbol
  O1       1.0000 0.56929  0.44246  0.60757  Biso   1.000  O
  C1       1.0000 0.69774  0.45805  0.58820  Biso   1.000  C
  C2       1.0000 0.52509  0.47865  0.65167  Biso   1.000  C
  C3       1.0000 0.47541  0.46444  0.62070  Biso   1.000  C
  C4       1.0000 0.72329  0.42697  0.53539  Biso   1.000  C
  O2       1.0000 0.59427  0.43523  0.64280  Biso   1.000  O
  C5       1.0000 0.38709  0.45395  0.67876  Biso   1.000  C
  H1       1.0000 0.52659  0.53326  0.62427  Biso   1.000  H
  H2       1.0000 0.57766  0.46237  0.69147  Biso   1.000  H
  H3       1.0000 0.44774  0.43973  0.59429  Biso   1.000  H
  H4       1.0000 0.47938  0.51805  0.58867  Biso   1.000  H
  O3       1.0000 0.73277  0.34745  0.57292  Biso   1.000  O
  H5       1.0000 0.65456  0.44292  0.50399  Biso   1.000  H
  H6       1.0000 0.80205  0.44545  0.50630  Biso   1.000  H
  O4       1.0000 0.37966  0.38985  0.72796  Biso   1.000  O
  O5       1.0000 0.26281  0.46128  0.66396  Biso   1.000  O
  C6       1.0000 0.76128  0.30915  0.53339  Biso   1.000  C
  C7       1.0000 0.25456  0.36785  0.74607  Biso   1.000  C
  C8       1.0000 0.17189  0.43596  0.72239  Biso   1.000  C
  C9       1.0000 0.78619  0.34300  0.46089  Biso   1.000  C
  C10      1.0000 0.76283  0.23178  0.57187  Biso   1.000  C
  C11      1.0000 0.20103  0.34707  0.69635  Biso   1.000  C
  H7       1.0000 0.20133  0.40907  0.74948  Biso   1.000  H
  H8       1.0000 0.25027  0.32487  0.79316  Biso   1.000  H
  H9       1.0000 0.19013  0.38279  0.75337  Biso   1.000  H
  C12      1.0000 0.04312  0.44665  0.69719  Biso   1.000  C
  H10      1.0000 0.17551  0.46417  0.74980  Biso   1.000  H
  C13      1.0000 0.81493  0.29810  0.42682  Biso   1.000  C
  H11      1.0000 0.78363  0.39553  0.43506  Biso   1.000  H
  C14      1.0000 0.79110  0.18884  0.53628  Biso   1.000  C
  H12      1.0000 0.74482  0.20917  0.62138  Biso   1.000  H
  O6       1.0000 0.16465  0.41067  0.63398  Biso   1.000  O
  H13      1.0000 0.26383  0.31558  0.68307  Biso   1.000  H
  H14      1.0000 0.12724  0.31747  0.72055  Biso   1.000  H
  O7       1.0000 0.01840  0.39687  0.66905  Biso   1.000  O
  H15      1.0000 0.03177  0.49834  0.66049  Biso   1.000  H
  H16      1.0000 0.98039  0.44005  0.73699  Biso   1.000  H
  C15      1.0000 0.84380  0.33323  0.34781  Biso   1.000  C
  C16      1.0000 0.81922  0.22177  0.46383  Biso   1.000  C
  O8       1.0000 0.79492  0.11274  0.56794  Biso   1.000  O
  C17      1.0000 0.05151  0.41528  0.60505  Biso   1.000  C
  O9       1.0000 0.79032  0.29480  0.31594  Biso   1.000  O
  H17      1.0000 0.81075  0.38555  0.32739  Biso   1.000  H
  H18      1.0000 0.93550  0.33312  0.33689  Biso   1.000  H
  H19      1.0000 0.84119  0.19182  0.44010  Biso   1.000  H
  C18      1.0000 0.74046  0.07564  0.63871  Biso   1.000  C
  C19      1.0000 0.05330  0.35427  0.58185  Biso   1.000  C
  C20      1.0000 0.66288  0.30659  0.30875  Biso   1.000  C
  H20      1.0000 0.65319  0.09477  0.64207  Biso   1.000  H
  H21      1.0000 0.78821  0.08456  0.67068  Biso   1.000  H
  C21      1.0000 0.74398  0.99430  0.65881  Biso   1.000  C
  O10      1.0000 0.09161  0.38755  0.50909  Biso   1.000  O
  H22      1.0000 0.11272  0.31282  0.60799  Biso   1.000  H
  H23      1.0000 0.96923  0.33486  0.59035  Biso   1.000  H
  C22      1.0000 0.61762  0.27336  0.27247  Biso   1.000  C
  C23      1.0000 0.58362  0.34963  0.33253  Biso   1.000  C
  O11      1.0000 0.66175  0.98162  0.61881  Biso   1.000  O
  H24      1.0000 0.83012  0.97675  0.64989  Biso   1.000  H
  H25      1.0000 0.71845  0.96634  0.70948  Biso   1.000  H
  C24      1.0000 0.11332  0.34364  0.47501  Biso   1.000  C
  C25      1.0000 0.49357  0.28564  0.25751  Biso   1.000  C
  H26      1.0000 0.67171  0.24214  0.25777  Biso   1.000  H
  C26      1.0000 0.45811  0.36158  0.31773  Biso   1.000  C
  H27      1.0000 0.61388  0.37104  0.35878  Biso   1.000  H
  C27      1.0000 0.66512  0.90513  0.63372  Biso   1.000  C
  C28      1.0000 0.14562  0.38139  0.40340  Biso   1.000  C
  C29      1.0000 0.10732  0.26720  0.50814  Biso   1.000  C
  C30      1.0000 0.41420  0.33057  0.27982  Biso   1.000  C
  H28      1.0000 0.46288  0.26344  0.23210  Biso   1.000  H
  H29      1.0000 0.40311  0.39122  0.33400  Biso   1.000  H
  C31      1.0000 0.58132  0.89437  0.58857  Biso   1.000  C
  H30      1.0000 0.63794  0.87487  0.68375  Biso   1.000  H
  H31      1.0000 0.75186  0.88822  0.62490  Biso   1.000  H
  C32      1.0000 0.17194  0.34173  0.36445  Biso   1.000  C
  H32      1.0000 0.14954  0.43380  0.38130  Biso   1.000  H
  C33      1.0000 0.13368  0.22789  0.46835  Biso   1.000  C
  H33      1.0000 0.08558  0.24174  0.55728  Biso   1.000  H
  O12      1.0000 0.29344  0.34090  0.26066  Biso   1.000  O
  O13      1.0000 0.45526  0.91298  0.60610  Biso   1.000  O
  H34      1.0000 0.60537  0.92654  0.53849  Biso   1.000  H
  H35      1.0000 0.58935  0.84214  0.59629  Biso   1.000  H
  C34      1.0000 0.20511  0.38265  0.28623  Biso   1.000  C
  C35      1.0000 0.16566  0.26521  0.39647  Biso   1.000  C
  O14      1.0000 0.13145  0.15270  0.49544  Biso   1.000  O
  C36      1.0000 0.37196  0.90849  0.56180  Biso   1.000  C
  H36      1.0000 0.12798  0.39391  0.26160  Biso   1.000  H
  H37      1.0000 0.24035  0.43043  0.27531  Biso   1.000  H
  H38      1.0000 0.18309  0.23834  0.36949  Biso   1.000  H
  C37      1.0000 0.11318  0.11036  0.57014  Biso   1.000  C
  C38      1.0000 0.24214  0.93041  0.58169  Biso   1.000  C
  H39      1.0000 0.37485  0.85715  0.56699  Biso   1.000  H
  H40      1.0000 0.39685  0.94203  0.51218  Biso   1.000  H
  C39      1.0000 0.11377  0.03054  0.58610  Biso   1.000  C
  H41      1.0000 0.03254  0.12594  0.58799  Biso   1.000  H
  H42      1.0000 0.18102  0.11837  0.59298  Biso   1.000  H
  O15      1.0000 0.23667  0.00512  0.57203  Biso   1.000  O
  H43      1.0000 0.18274  0.92574  0.55219  Biso   1.000  H
  H44      1.0000 0.21761  0.89685  0.63136  Biso   1.000  H
  H45      1.0000 0.08522  0.00075  0.63608  Biso   1.000  H
  H46      1.0000 0.05570  0.02435  0.55686  Biso   1.000  H
  O16      1.0000 0.43071  0.55762  0.39238  Biso   1.000  O
  C40      1.0000 0.47490  0.52143  0.34828  Biso   1.000  C
  C41      1.0000 0.52458  0.53561  0.37931  Biso   1.000  C
  C42      1.0000 0.30215  0.54207  0.41175  Biso   1.000  C
  H47      1.0000 0.47340  0.46681  0.37569  Biso   1.000  H
  H48      1.0000 0.42225  0.53771  0.30849  Biso   1.000  H
  C43      1.0000 0.61282  0.54613  0.32119  Biso   1.000  C
  O17      1.0000 0.40562  0.56482  0.35721  Biso   1.000  O
  H49      1.0000 0.55216  0.56035  0.40566  Biso   1.000  H
  H50      1.0000 0.52061  0.48202  0.41128  Biso   1.000  H
  C44      1.0000 0.27670  0.57316  0.46457  Biso   1.000  C
  O18      1.0000 0.62024  0.61022  0.27200  Biso   1.000  O
  O19      1.0000 0.73717  0.53885  0.33600  Biso   1.000  O
  O20      1.0000 0.26713  0.65263  0.42703  Biso   1.000  O
  H51      1.0000 0.34535  0.55716  0.49596  Biso   1.000  H
  H52      1.0000 0.19783  0.55465  0.49370  Biso   1.000  H
  C45      1.0000 0.74535  0.63223  0.25389  Biso   1.000  C
  C46      1.0000 0.82811  0.56412  0.27756  Biso   1.000  C
  C47      1.0000 0.23862  0.69092  0.46656  Biso   1.000  C
  H53      1.0000 0.79867  0.59101  0.25047  Biso   1.000  H
  H54      1.0000 0.74964  0.67521  0.20679  Biso   1.000  H
  C48      1.0000 0.79897  0.65300  0.30360  Biso   1.000  C
  H55      1.0000 0.80986  0.61734  0.24659  Biso   1.000  H
  H56      1.0000 0.82447  0.53593  0.25021  Biso   1.000  H
  C49      1.0000 0.95688  0.55343  0.30276  Biso   1.000  C
  C50      1.0000 0.23716  0.76835  0.42808  Biso   1.000  C
  C51      1.0000 0.21380  0.65705  0.53912  Biso   1.000  C
  O21      1.0000 0.83524  0.58945  0.36597  Biso   1.000  O
  H57      1.0000 0.73615  0.68455  0.31689  Biso   1.000  H
  H58      1.0000 0.87276  0.68260  0.27940  Biso   1.000  H
  O22      1.0000 0.98151  0.60321  0.33090  Biso   1.000  O
  H59      1.0000 0.96812  0.50171  0.33951  Biso   1.000  H
  H60      1.0000 0.01952  0.56002  0.26297  Biso   1.000  H
  C52      1.0000 0.20889  0.81124  0.46367  Biso   1.000  C
  H61      1.0000 0.25517  0.79096  0.37857  Biso   1.000  H
  H62      1.0000 0.21627  0.60455  0.56489  Biso   1.000  H
  C53      1.0000 0.18497  0.70197  0.57313  Biso   1.000  C
  C54      1.0000 0.94848  0.58485  0.39490  Biso   1.000  C
  O23      1.0000 0.20498  0.88734  0.43202  Biso   1.000  O
  C55      1.0000 0.18078  0.77831  0.53612  Biso   1.000  C
  C56      1.0000 0.15618  0.66682  0.65220  Biso   1.000  C
  C57      1.0000 0.94669  0.64586  0.41810  Biso   1.000  C
  C58      1.0000 0.25944  0.92444  0.36125  Biso   1.000  C
  H63      1.0000 0.15881  0.80826  0.55985  Biso   1.000  H
  O24      1.0000 0.20957  0.70533  0.68401  Biso   1.000  O
  H64      1.0000 0.18914  0.61458  0.67257  Biso   1.000  H
  H65      1.0000 0.06449  0.66696  0.66307  Biso   1.000  H
  O25      1.0000 0.90838  0.61253  0.49087  Biso   1.000  O
  H66      1.0000 0.88727  0.68725  0.39196  Biso   1.000  H
  H67      1.0000 0.03076  0.66522  0.40960  Biso   1.000  H
  H68      1.0000 0.34670  0.90535  0.35789  Biso   1.000  H
  H69      1.0000 0.21178  0.91552  0.32928  Biso   1.000  H
  C59      1.0000 0.25592  0.00575  0.34119  Biso   1.000  C
  C60      1.0000 0.33711  0.69349  0.69121  Biso   1.000  C
  C61      1.0000 0.88667  0.65641  0.52499  Biso   1.000  C
  O26      1.0000 0.33824  0.01846  0.38114  Biso   1.000  O
  H70      1.0000 0.16987  0.02333  0.35007  Biso   1.000  H
  H71      1.0000 0.28154  0.03374  0.29048  Biso   1.000  H
  C62      1.0000 0.38237  0.72669  0.72754  Biso   1.000  C
  C63      1.0000 0.41638  0.65045  0.66742  Biso   1.000  C
  C64      1.0000 0.89266  0.73293  0.49181  Biso   1.000  C
  C65      1.0000 0.85436  0.61873  0.59655  Biso   1.000  C
  C66      1.0000 0.33487  0.09500  0.36624  Biso   1.000  C
  H72      1.0000 0.32828  0.75794  0.74218  Biso   1.000  H
  C67      1.0000 0.50633  0.71441  0.74250  Biso   1.000  C
  C68      1.0000 0.54188  0.63850  0.68223  Biso   1.000  C
  H73      1.0000 0.38611  0.62904  0.64117  Biso   1.000  H
  C69      1.0000 0.86622  0.77219  0.53161  Biso   1.000  C
  H74      1.0000 0.91433  0.75834  0.44267  Biso   1.000  H
  H75      1.0000 0.85036  0.56627  0.61865  Biso   1.000  H
  C70      1.0000 0.82794  0.65837  0.63556  Biso   1.000  C
  H76      1.0000 0.36205  0.12521  0.31620  Biso   1.000  H
  H77      1.0000 0.24813  0.11183  0.37511  Biso   1.000  H
  C71      1.0000 0.41866  0.10568  0.41144  Biso   1.000  C
  H78      1.0000 0.53710  0.73669  0.76785  Biso   1.000  H
  C72      1.0000 0.58578  0.66954  0.72019  Biso   1.000  C
  H79      1.0000 0.59689  0.60886  0.66595  Biso   1.000  H
  O27      1.0000 0.86854  0.84735  0.50457  Biso   1.000  O
  C73      1.0000 0.83423  0.73491  0.60348  Biso   1.000  C
  C74      1.0000 0.79489  0.61743  0.71373  Biso   1.000  C
  O28      1.0000 0.54463  0.08714  0.39385  Biso   1.000  O
  H80      1.0000 0.39453  0.07354  0.46147  Biso   1.000  H
  H81      1.0000 0.41064  0.15794  0.40367  Biso   1.000  H
  O29      1.0000 0.70646  0.65918  0.73930  Biso   1.000  O
  C75      1.0000 0.88672  0.88977  0.42981  Biso   1.000  C
  H82      1.0000 0.81690  0.76174  0.63046  Biso   1.000  H
  H83      1.0000 0.87193  0.60616  0.73835  Biso   1.000  H
  H84      1.0000 0.75955  0.56969  0.72465  Biso   1.000  H
  C76      1.0000 0.62804  0.09159  0.43816  Biso   1.000  C
  C77      1.0000 0.88613  0.96954  0.41385  Biso   1.000  C
  H85      1.0000 0.96745  0.87414  0.41196  Biso   1.000  H
  H86      1.0000 0.81897  0.88176  0.40697  Biso   1.000  H
  H87      1.0000 0.62514  0.14293  0.43296  Biso   1.000  H
  H88      1.0000 0.60314  0.05805  0.48777  Biso   1.000  H
  C78      1.0000 0.75785  0.06964  0.41831  Biso   1.000  C
  O30      1.0000 0.76323  0.99495  0.42792  Biso   1.000  O
  H89      1.0000 0.91477  0.99932  0.36387  Biso   1.000  H
  H90      1.0000 0.94420  0.97572  0.44309  Biso   1.000  H
  H91      1.0000 0.81726  0.07434  0.44777  Biso   1.000  H
  H92      1.0000 0.78229  0.10323  0.36860  Biso   1.000  H
  C79      1.0000 0.64683  0.56141  0.13414  Biso   1.000  C
  C80      1.0000 0.67119  0.48203  0.14873  Biso   1.000  C
  O31      1.0000 0.62374  0.60395  0.06184  Biso   1.000  O
  H93      1.0000 0.72004  0.57974  0.14437  Biso   1.000  H
  H94      1.0000 0.57360  0.56643  0.16438  Biso   1.000  H
  O32      1.0000 0.78792  0.47234  0.11482  Biso   1.000  O
  H95      1.0000 0.60352  0.46630  0.13172  Biso   1.000  H
  H96      1.0000 0.67165  0.45061  0.19997  Biso   1.000  H
  C81      1.0000 0.60568  0.67927  0.03701  Biso   1.000  C
  C82      1.0000 0.81162  0.39715  0.12610  Biso   1.000  C
  C83      1.0000 0.58997  0.71583  0.07864  Biso   1.000  C
  C84      1.0000 0.60178  0.71920  0.96435  Biso   1.000  C
  C85      1.0000 0.92487  0.39082  0.08106  Biso   1.000  C
  H97      1.0000 0.82492  0.36504  0.17608  Biso   1.000  H
  H98      1.0000 0.73844  0.38012  0.11471  Biso   1.000  H
  H99      1.0000 0.59122  0.68873  0.12820  Biso   1.000  H
  C86      1.0000 0.57221  0.79294  0.04714  Biso   1.000  C
  C87      1.0000 0.58558  0.79555  0.93354  Biso   1.000  C
  H100     1.0000 0.61046  0.69359  0.93616  Biso   1.000  H
  H101     1.0000 0.91421  0.42553  0.03118  Biso   1.000  H
  H102     1.0000 0.93577  0.33968  0.08552  Biso   1.000  H
  O33      1.0000 0.03208  0.40810  0.10248  Biso   1.000  O
  O34      1.0000 0.55740  0.82400  0.09287  Biso   1.000  O
  C88      1.0000 0.57187  0.83328  0.97480  Biso   1.000  C
  C89      1.0000 0.58017  0.83776  0.85521  Biso   1.000  C
  C90      1.0000 0.14079  0.40520  0.05943  Biso   1.000  C
  C91      1.0000 0.54142  0.90293  0.06300  Biso   1.000  C
  H103     1.0000 0.56218  0.88594  0.95364  Biso   1.000  H
  O35      1.0000 0.65900  0.80446  0.81762  Biso   1.000  O
  H104     1.0000 0.60543  0.88901  0.83946  Biso   1.000  H
  H105     1.0000 0.49288  0.84082  0.84376  Biso   1.000  H
  C92      1.0000 0.24948  0.42797  0.08164  Biso   1.000  C
  H106     1.0000 0.15726  0.35410  0.06421  Biso   1.000  H
  H107     1.0000 0.12825  0.43898  0.00961  Biso   1.000  H
  C93      1.0000 0.52893  0.92488  0.12190  Biso   1.000  C
  H108     1.0000 0.61443  0.92591  0.02998  Biso   1.000  H
  H109     1.0000 0.46578  0.92010  0.03680  Biso   1.000  H
  C94      1.0000 0.78566  0.81354  0.81111  Biso   1.000  C
  O36      1.0000 0.22538  0.50174  0.07355  Biso   1.000  O
  H110     1.0000 0.32636  0.42531  0.05250  Biso   1.000  H
  H111     1.0000 0.26221  0.39381  0.13130  Biso   1.000  H
  O37      1.0000 0.64331  0.90677  0.15314  Biso   1.000  O
  H112     1.0000 0.46101  0.89811  0.15718  Biso   1.000  H
  H113     1.0000 0.50826  0.97884  0.10348  Biso   1.000  H
  C95      1.0000 0.85862  0.78230  0.77200  Biso   1.000  C
  C96      1.0000 0.84215  0.85137  0.83888  Biso   1.000  C
  C97      1.0000 0.33006  0.52879  0.08731  Biso   1.000  C
  C98      1.0000 0.64020  0.92400  0.21057  Biso   1.000  C
  C99      1.0000 0.98510  0.79204  0.75819  Biso   1.000  C
  H114     1.0000 0.82067  0.75400  0.75478  Biso   1.000  H
  H115     1.0000 0.79370  0.87084  0.86733  Biso   1.000  H
  C100     1.0000 0.97003  0.86099  0.82512  Biso   1.000  C
  C101     1.0000 0.30267  0.60877  0.07250  Biso   1.000  C
  H116     1.0000 0.34804  0.49881  0.13697  Biso   1.000  H
  H117     1.0000 0.40430  0.52462  0.05717  Biso   1.000  H
  C102     1.0000 0.76226  0.89841  0.24228  Biso   1.000  C
  H118     1.0000 0.62605  0.97824  0.19419  Biso   1.000  H
  H119     1.0000 0.57131  0.89879  0.24601  Biso   1.000  H
  C103     1.0000 0.04109  0.83268  0.78391  Biso   1.000  C
  H120     1.0000 0.03400  0.77101  0.73105  Biso   1.000  H
  H121     1.0000 0.00867  0.88720  0.84423  Biso   1.000  H
  O38      1.0000 0.30312  0.65163  0.99795  Biso   1.000  O
  H122     1.0000 0.36711  0.62541  0.09072  Biso   1.000  H
  H123     1.0000 0.22013  0.61471  0.09550  Biso   1.000  H
  O39      1.0000 0.85786  0.94174  0.19351  Biso   1.000  O
  H124     1.0000 0.78045  0.84534  0.25399  Biso   1.000  H
  H125     1.0000 0.75852  0.90385  0.28607  Biso   1.000  H
  O40      1.0000 0.16726  0.84167  0.76528  Biso   1.000  O
  C104     1.0000 0.27947  0.72654  0.97239  Biso   1.000  C
  C105     1.0000 0.97763  0.91713  0.21798  Biso   1.000  C
  C106     1.0000 0.22803  0.88270  0.79163  Biso   1.000  C
  C107     1.0000 0.26829  0.76489  0.90046  Biso   1.000  C
  C108     1.0000 0.26571  0.76375  0.01349  Biso   1.000  C
  H126     1.0000 0.98363  0.92485  0.25987  Biso   1.000  H
  H127     1.0000 0.99144  0.86342  0.23147  Biso   1.000  H
  C109     1.0000 0.07542  0.95933  0.16149  Biso   1.000  C
  C110     1.0000 0.24145  0.84074  0.86996  Biso   1.000  C
  H128     1.0000 0.31188  0.89473  0.76654  Biso   1.000  H
  H129     1.0000 0.17939  0.93014  0.78155  Biso   1.000  H
  H130     1.0000 0.27910  0.73913  0.87237  Biso   1.000  H
  C111     1.0000 0.24031  0.84061  0.98157  Biso   1.000  C
  H131     1.0000 0.27356  0.73762  0.06258  Biso   1.000  H
  O41      1.0000 0.08385  0.93639  0.10804  Biso   1.000  O
  H132     1.0000 0.15716  0.95004  0.18149  Biso   1.000  H
  H133     1.0000 0.05321  0.01323  0.14180  Biso   1.000  H
  C112     1.0000 0.22675  0.87946  0.91028  Biso   1.000  C
  O42      1.0000 0.22888  0.87254  0.02641  Biso   1.000  O
  C113     1.0000 0.18040  0.97188  0.05628  Biso   1.000  C
  H134     1.0000 0.20762  0.93142  0.88923  Biso   1.000  H
  C114     1.0000 0.18564  0.94894  0.99864  Biso   1.000  C
  H135     1.0000 0.26141  0.95840  0.07759  Biso   1.000  H
  H136     1.0000 0.16555  0.02639  0.03670  Biso   1.000  H
  H137     1.0000 0.24323  0.97993  0.95863  Biso   1.000  H
  H138     1.0000 0.10157  0.95532  0.98184  Biso   1.000  H
  C115     1.0000 0.35307  0.43867  0.86582  Biso   1.000  C
  O43      1.0000 0.37617  0.39612  0.93811  Biso   1.000  O
  C116     1.0000 0.32881  0.51804  0.85122  Biso   1.000  C
  H139     1.0000 0.27985  0.42039  0.85558  Biso   1.000  H
  H140     1.0000 0.42639  0.43365  0.83558  Biso   1.000  H
  C117     1.0000 0.39431  0.32079  0.96299  Biso   1.000  C
  O44      1.0000 0.21198  0.52774  0.88514  Biso   1.000  O
  H141     1.0000 0.39638  0.53375  0.86829  Biso   1.000  H
  H142     1.0000 0.32826  0.54947  0.79998  Biso   1.000  H
  C118     1.0000 0.41003  0.28425  0.92131  Biso   1.000  C
  C119     1.0000 0.39811  0.28093  0.03560  Biso   1.000  C
  C120     1.0000 0.18828  0.60292  0.87385  Biso   1.000  C
  C121     1.0000 0.42769  0.20718  0.95281  Biso   1.000  C
  H143     1.0000 0.40867  0.31140  0.87175  Biso   1.000  H
  C122     1.0000 0.41431  0.20458  0.06642  Biso   1.000  C
  H144     1.0000 0.38954  0.30649  0.06379  Biso   1.000  H
  C123     1.0000 0.07513  0.60925  0.91890  Biso   1.000  C
  H145     1.0000 0.17497  0.63509  0.82387  Biso   1.000  H
  H146     1.0000 0.26146  0.62001  0.88524  Biso   1.000  H
  O45      1.0000 0.44250  0.17613  0.90708  Biso   1.000  O
  C124     1.0000 0.42813  0.16680  0.02515  Biso   1.000  C
  C125     1.0000 0.41972  0.16229  0.14480  Biso   1.000  C
  H147     1.0000 0.08568  0.57460  0.96877  Biso   1.000  H
  H148     1.0000 0.06422  0.66038  0.91449  Biso   1.000  H
  O46      1.0000 0.96792  0.59198  0.89748  Biso   1.000  O
  C126     1.0000 0.45848  0.09715  0.93696  Biso   1.000  C
  H149     1.0000 0.43772  0.11419  0.04631  Biso   1.000  H
  O47      1.0000 0.34100  0.19562  0.18234  Biso   1.000  O
  H150     1.0000 0.39457  0.11107  0.16050  Biso   1.000  H
  H151     1.0000 0.50702  0.15931  0.15619  Biso   1.000  H
  C127     1.0000 0.85921  0.59488  0.94053  Biso   1.000  C
  C128     1.0000 0.47105  0.07524  0.87805  Biso   1.000  C
  H152     1.0000 0.38548  0.07417  0.96998  Biso   1.000  H
  H153     1.0000 0.53422  0.07997  0.96315  Biso   1.000  H
  C129     1.0000 0.21434  0.18654  0.18885  Biso   1.000  C
  C130     1.0000 0.75051  0.57209  0.91837  Biso   1.000  C
  H154     1.0000 0.84274  0.64597  0.93575  Biso   1.000  H
  H155     1.0000 0.87174  0.56109  0.99035  Biso   1.000  H
  O48      1.0000 0.35668  0.09331  0.84681  Biso   1.000  O
  H156     1.0000 0.53889  0.10197  0.84277  Biso   1.000  H
  H157     1.0000 0.49172  0.02129  0.89648  Biso   1.000  H
  C131     1.0000 0.14137  0.21783  0.22796  Biso   1.000  C
  C132     1.0000 0.15784  0.14871  0.16107  Biso   1.000  C
  O49      1.0000 0.77450  0.49836  0.92646  Biso   1.000  O
  H158     1.0000 0.67364  0.57477  0.94746  Biso   1.000  H
  H159     1.0000 0.73769  0.60627  0.86865  Biso   1.000  H
  C133     1.0000 0.35970  0.07607  0.78938  Biso   1.000  C
  C134     1.0000 0.01480  0.20809  0.24177  Biso   1.000  C
  H160     1.0000 0.17923  0.24605  0.24523  Biso   1.000  H
  H161     1.0000 0.20619  0.12928  0.13262  Biso   1.000  H
  C135     1.0000 0.02996  0.13909  0.17483  Biso   1.000  C
  C136     1.0000 0.66992  0.47131  0.91270  Biso   1.000  C
  C137     1.0000 0.23772  0.10171  0.75767  Biso   1.000  C
  H162     1.0000 0.37394  0.02189  0.80576  Biso   1.000  H
  H163     1.0000 0.42859  0.10126  0.75400  Biso   1.000  H
  C138     1.0000 0.95882  0.16740  0.21604  Biso   1.000  C
  H164     1.0000 0.96591  0.22907  0.26891  Biso   1.000  H
  H165     1.0000 0.99123  0.11287  0.15572  Biso   1.000  H
  C139     1.0000 0.69732  0.39131  0.92745  Biso   1.000  C
  H166     1.0000 0.65187  0.50127  0.86298  Biso   1.000  H
  H167     1.0000 0.59560  0.47546  0.94278  Biso   1.000  H
  O50      1.0000 0.14204  0.05834  0.80644  Biso   1.000  O
  H168     1.0000 0.21954  0.15478  0.74596  Biso   1.000  H
  H169     1.0000 0.24137  0.09628  0.71389  Biso   1.000  H
  O51      1.0000 0.83264  0.15839  0.23473  Biso   1.000  O
  O52      1.0000 0.69688  0.34845  0.00200  Biso   1.000  O
  H170     1.0000 0.63278  0.37469  0.90929  Biso   1.000  H
  H171     1.0000 0.77977  0.38536  0.90446  Biso   1.000  H
  C140     1.0000 0.02235  0.08297  0.78203  Biso   1.000  C
  C141     1.0000 0.77197  0.11738  0.20832  Biso   1.000  C
  C142     1.0000 0.72043  0.27354  0.02757  Biso   1.000  C
  H172     1.0000 0.01636  0.07528  0.74008  Biso   1.000  H
  H173     1.0000 0.00846  0.13666  0.76848  Biso   1.000  H
  C143     1.0000 0.92448  0.04075  0.83847  Biso   1.000  C
  C144     1.0000 0.75854  0.15939  0.13000  Biso   1.000  C
  H174     1.0000 0.68801  0.10539  0.23342  Biso   1.000  H
  H175     1.0000 0.82051  0.06999  0.21840  Biso   1.000  H
  C145     1.0000 0.73420  0.23633  0.98646  Biso   1.000  C
  C146     1.0000 0.73162  0.23519  0.09949  Biso   1.000  C
  H176     1.0000 0.94669  0.98689  0.85815  Biso   1.000  H
  O53      1.0000 0.91614  0.06369  0.89191  Biso   1.000  O
  H177     1.0000 0.84283  0.05008  0.81846  Biso   1.000  H
  C147     1.0000 0.77323  0.12067  0.08968  Biso   1.000  C
  C148     1.0000 0.75960  0.15946  0.01838  Biso   1.000  C
  H178     1.0000 0.72644  0.26246  0.93738  Biso   1.000  H
  H179     1.0000 0.72079  0.26097  0.12763  Biso   1.000  H
  C149     1.0000 0.81949  0.02824  0.94368  Biso   1.000  C
  H180     1.0000 0.79237  0.06865  0.11073  Biso   1.000  H
  O54      1.0000 0.77102  0.12754  0.97355  Biso   1.000  O
  H181     1.0000 0.83444  0.97369  0.96326  Biso   1.000  H
  H182     1.0000 0.73850  0.04167  0.92236  Biso   1.000  H
  C150     1.0000 0.81435  0.05114  0.00132  Biso   1.000  C
  H183     1.0000 0.75677  0.02015  0.04132  Biso   1.000  H
  H184     1.0000 0.89833  0.04476  0.01812  Biso   1.000  H
  Ne1      1.0000 0.42689  0.26837  0.53101  Biso   1.000  Ne
  He1      1.0000 0.41526  0.28507  0.56314  Biso   1.000  He
  He2      1.0000 0.40991  0.41433  0.47121  Biso   1.000  He
  He3      1.0000 0.45492  0.16221  0.52926  Biso   1.000  He
  Ar1      1.0000 0.43637  0.26840  0.53174  Biso   1.000  Ar
  Ne2      1.0000 0.92707  0.74819  0.01500  Biso   1.000  Ne
  He4      1.0000 0.92124  0.76978  0.11337  Biso   1.000  He
  He5      1.0000 0.86213  0.91429  0.96860  Biso   1.000  He
  He6      1.0000 0.12684  0.60480  0.88477  Biso   1.000  He
  Ar2      1.0000 0.93870  0.70701  0.11320  Biso   1.000  Ar
  Ne3      1.0000 0.57306  0.73172  0.46896  Biso   1.000  Ne
  He7      1.0000 0.56320  0.63509  0.50632  Biso   1.000  He
  He8      1.0000 0.46782  0.90385  0.56351  Biso   1.000  He
  He9      1.0000 0.48648  0.82002  0.23155  Biso   1.000  He
  Ar3      1.0000 0.58436  0.71697  0.43573  Biso   1.000  Ar
  Ne4      1.0000 0.07287  0.25189  0.98496  Biso   1.000  Ne
  He10     1.0000 0.13964  0.07890  0.03604  Biso   1.000  He
  He11     1.0000 0.04952  0.32159  0.95108  Biso   1.000  He
  He12     1.0000 0.07763  0.23327  0.88302  Biso   1.000  He
  Ar4      1.0000 0.05757  0.30634  0.88676  Biso   1.000  Ar
