data_image0
_cell_length_a       20.925
_cell_length_b       12.251
_cell_length_c       25.897
_cell_angle_alpha    90
_cell_angle_beta     105.59
_cell_angle_gamma    90

_symmetry_space_group_name_H-M    "P 1"
_symmetry_int_tables_number       1

loop_
  _symmetry_equiv_pos_as_xyz
  'x, y, z'

loop_
  _atom_site_label
  _atom_site_occupancy
  _atom_site_fract_x
  _atom_site_fract_y
  _atom_site_fract_z
  _atom_site_thermal_displace_type
  _atom_site_B_iso_or_equiv
  _atom_site_type_symbol
  C1       1.0000 0.54191  0.66329  0.55368  Biso   1.000  C
  O1       1.0000 0.58943  0.63905  0.60242  Biso   1.000  O
  H1       1.0000 0.54602  0.61089  0.52621  Biso   1.000  H
  H2       1.0000 0.49729  0.65840  0.55889  Biso   1.000  H
  H3       1.0000 0.54942  0.73741  0.54221  Biso   1.000  H
  C2       1.0000 0.59057  0.53392  0.62239  Biso   1.000  C
  C3       1.0000 0.54686  0.45253  0.59773  Biso   1.000  C
  C4       1.0000 0.63984  0.51522  0.67038  Biso   1.000  C
  C5       1.0000 0.55131  0.35042  0.62203  Biso   1.000  C
  H4       1.0000 0.51439  0.46617  0.56490  Biso   1.000  H
  C6       1.0000 0.64144  0.41303  0.69415  Biso   1.000  C
  C7       1.0000 0.69121  0.60134  0.69435  Biso   1.000  C
  C8       1.0000 0.51104  0.24806  0.59894  Biso   1.000  C
  C9       1.0000 0.59860  0.33189  0.67082  Biso   1.000  C
  H5       1.0000 0.67309  0.39931  0.72738  Biso   1.000  H
  C10      1.0000 0.74892  0.59913  0.66857  Biso   1.000  C
  H6       1.0000 0.67011  0.67431  0.68910  Biso   1.000  H
  H7       1.0000 0.70831  0.58861  0.73340  Biso   1.000  H
  C11      1.0000 0.56284  0.16186  0.59633  Biso   1.000  C
  H8       1.0000 0.47781  0.26112  0.56370  Biso   1.000  H
  C12      1.0000 0.48014  0.21068  0.64295  Biso   1.000  C
  C13      1.0000 0.59700  0.21459  0.69098  Biso   1.000  C
  C14      1.0000 0.74973  0.66778  0.62632  Biso   1.000  C
  C15      1.0000 0.80264  0.52788  0.68753  Biso   1.000  C
  C16      1.0000 0.56742  0.10162  0.55219  Biso   1.000  C
  C17      1.0000 0.60920  0.14489  0.64536  Biso   1.000  C
  C18      1.0000 0.41344  0.19158  0.63726  Biso   1.000  C
  C19      1.0000 0.52627  0.19247  0.69258  Biso   1.000  C
  H9       1.0000 0.63018  0.20113  0.72610  Biso   1.000  H
  C20      1.0000 0.80366  0.66933  0.60427  Biso   1.000  C
  H10      1.0000 0.71298  0.71472  0.61209  Biso   1.000  H
  C21      1.0000 0.85674  0.52910  0.66601  Biso   1.000  C
  O2       1.0000 0.79856  0.45939  0.72887  Biso   1.000  O
  C22      1.0000 0.61839  0.02490  0.55560  Biso   1.000  C
  H11      1.0000 0.53528  0.11232  0.51880  Biso   1.000  H
  C23      1.0000 0.66155  0.07379  0.64973  Biso   1.000  C
  H12      1.0000 0.38207  0.20333  0.60359  Biso   1.000  H
  C24      1.0000 0.39240  0.15533  0.68076  Biso   1.000  C
  C25      1.0000 0.50528  0.15852  0.73580  Biso   1.000  C
  C26      1.0000 0.81216  0.74206  0.55812  Biso   1.000  C
  C27      1.0000 0.85740  0.60199  0.62475  Biso   1.000  C
  H13      1.0000 0.89291  0.48078  0.67919  Biso   1.000  H
  C28      1.0000 0.85539  0.39172  0.75160  Biso   1.000  C
  C29      1.0000 0.61844  0.95298  0.50817  Biso   1.000  C
  C30      1.0000 0.66637  0.01453  0.60459  Biso   1.000  C
  H14      1.0000 0.69408  0.06522  0.68300  Biso   1.000  H
  H15      1.0000 0.34671  0.14048  0.67659  Biso   1.000  H
  C31      1.0000 0.43828  0.14048  0.73075  Biso   1.000  C
  H16      1.0000 0.53682  0.14733  0.76940  Biso   1.000  H
  C32      1.0000 0.82795  0.66607  0.51723  Biso   1.000  C
  C33      1.0000 0.87588  0.80646  0.58158  Biso   1.000  C
  H17      1.0000 0.77290  0.78989  0.54281  Biso   1.000  H
  C34      1.0000 0.91313  0.61742  0.59789  Biso   1.000  C
  H18      1.0000 0.86169  0.34022  0.72442  Biso   1.000  H
  H19      1.0000 0.89498  0.43768  0.76358  Biso   1.000  H
  H20      1.0000 0.84831  0.35124  0.78218  Biso   1.000  H
  C35      1.0000 0.64815  0.00082  0.46576  Biso   1.000  C
  H21      1.0000 0.64288  0.88532  0.52188  Biso   1.000  H
  H22      1.0000 0.57202  0.93209  0.49061  Biso   1.000  H
  O3       1.0000 0.71790  0.94335  0.60547  Biso   1.000  O
  H23      1.0000 0.42379  0.11828  0.76090  Biso   1.000  H
  C36      1.0000 0.79359  0.65937  0.46263  Biso   1.000  C
  C37      1.0000 0.88292  0.59913  0.53852  Biso   1.000  C
  C38      1.0000 0.93009  0.73912  0.60363  Biso   1.000  C
  C39      1.0000 0.88352  0.91886  0.58214  Biso   1.000  C
  H24      1.0000 0.95228  0.56942  0.61329  Biso   1.000  H
  C40      1.0000 0.61072  0.06383  0.42419  Biso   1.000  C
  C41      1.0000 0.71361  0.97788  0.46628  Biso   1.000  C
  C42      1.0000 0.76838  0.93682  0.65522  Biso   1.000  C
  C43      1.0000 0.81579  0.58607  0.42968  Biso   1.000  C
  H25      1.0000 0.75581  0.70386  0.44832  Biso   1.000  H
  C44      1.0000 0.90457  0.52951  0.50449  Biso   1.000  C
  C45      1.0000 0.99203  0.78361  0.62764  Biso   1.000  C
  C46      1.0000 0.94492  0.96311  0.60495  Biso   1.000  C
  H26      1.0000 0.84672  0.96482  0.56690  Biso   1.000  H
  O4       1.0000 0.54532  0.08032  0.42326  Biso   1.000  O
  C47      1.0000 0.63816  0.10660  0.38414  Biso   1.000  C
  C48      1.0000 0.74126  0.01673  0.42699  Biso   1.000  C
  H27      1.0000 0.74002  0.93437  0.49438  Biso   1.000  H
  H28      1.0000 0.78832  0.00898  0.66460  Biso   1.000  H
  H29      1.0000 0.80271  0.88507  0.65169  Biso   1.000  H
  H30      1.0000 0.74867  0.91176  0.68348  Biso   1.000  H
  C49      1.0000 0.87258  0.52306  0.44968  Biso   1.000  C
  O5       1.0000 0.78427  0.57326  0.37628  Biso   1.000  O
  H31      1.0000 0.94231  0.48494  0.51880  Biso   1.000  H
  C50      1.0000 0.99876  0.89740  0.62788  Biso   1.000  C
  H32      1.0000 0.02881  0.73806  0.64352  Biso   1.000  H
  H33      1.0000 0.95047  0.04008  0.60499  Biso   1.000  H
  C51      1.0000 0.50022  0.10579  0.37315  Biso   1.000  C
  C52      1.0000 0.70296  0.08424  0.38670  Biso   1.000  C
  H34      1.0000 0.61198  0.15011  0.35599  Biso   1.000  H
  C53      1.0000 0.81142  0.99918  0.42314  Biso   1.000  C
  C54      1.0000 0.89946  0.44682  0.41384  Biso   1.000  C
  C55      1.0000 0.72433  0.63032  0.35611  Biso   1.000  C
  H35      1.0000 0.04068  0.92972  0.64400  Biso   1.000  H
  H36      1.0000 0.50690  0.05518  0.34581  Biso   1.000  H
  H37      1.0000 0.45462  0.09901  0.37600  Biso   1.000  H
  H38      1.0000 0.50789  0.18072  0.36301  Biso   1.000  H
  C56      1.0000 0.74234  0.12456  0.34850  Biso   1.000  C
  C57      1.0000 0.83990  0.11281  0.42415  Biso   1.000  C
  C58      1.0000 0.80583  0.95633  0.36666  Biso   1.000  C
  H39      1.0000 0.83832  0.95078  0.45201  Biso   1.000  H
  C59      1.0000 0.87934  0.32863  0.41785  Biso   1.000  C
  H40      1.0000 0.94848  0.45172  0.42399  Biso   1.000  H
  H41      1.0000 0.88298  0.47123  0.37620  Biso   1.000  H
  H42      1.0000 0.70701  0.61522  0.31771  Biso   1.000  H
  H43      1.0000 0.69199  0.60656  0.37500  Biso   1.000  H
  H44      1.0000 0.73228  0.70884  0.36149  Biso   1.000  H
  H45      1.0000 0.71559  0.17354  0.31979  Biso   1.000  H
  C60      1.0000 0.76787  0.02408  0.32597  Biso   1.000  C
  C61      1.0000 0.80242  0.18154  0.38430  Biso   1.000  C
  C62      1.0000 0.89769  0.15027  0.46039  Biso   1.000  C
  C63      1.0000 0.83458  0.86197  0.35339  Biso   1.000  C
  C64      1.0000 0.82201  0.28879  0.38113  Biso   1.000  C
  C65      1.0000 0.91638  0.25867  0.45638  Biso   1.000  C
  C66      1.0000 0.75875  0.99690  0.27253  Biso   1.000  C
  H46      1.0000 0.92368  0.10334  0.48709  Biso   1.000  H
  C67      1.0000 0.82588  0.83610  0.29951  Biso   1.000  C
  H47      1.0000 0.85991  0.81561  0.38069  Biso   1.000  H
  H48      1.0000 0.79659  0.33540  0.35399  Biso   1.000  H
  O6       1.0000 0.97368  0.30202  0.48969  Biso   1.000  O
  H49      1.0000 0.73180  0.04122  0.24511  Biso   1.000  H
  C68      1.0000 0.78940  0.90393  0.25922  Biso   1.000  C
  H50      1.0000 0.84510  0.77128  0.29021  Biso   1.000  H
  C69      1.0000 0.02009  0.22790  0.52176  Biso   1.000  C
  H51      1.0000 0.78542  0.88687  0.22270  Biso   1.000  H
  H52      1.0000 0.03039  0.17044  0.49899  Biso   1.000  H
  H53      1.0000 0.06079  0.26716  0.53968  Biso   1.000  H
  H54      1.0000 0.00098  0.19509  0.54878  Biso   1.000  H
  C70      1.0000 0.45808  0.33671  0.44632  Biso   1.000  C
  O7       1.0000 0.41056  0.36095  0.39757  Biso   1.000  O
  H55      1.0000 0.45399  0.38911  0.47382  Biso   1.000  H
  H56      1.0000 0.50270  0.34160  0.44110  Biso   1.000  H
  H57      1.0000 0.45061  0.26259  0.45778  Biso   1.000  H
  C71      1.0000 0.40943  0.46608  0.37764  Biso   1.000  C
  C72      1.0000 0.36015  0.48478  0.32962  Biso   1.000  C
  C73      1.0000 0.45317  0.54747  0.40226  Biso   1.000  C
  C74      1.0000 0.30883  0.39866  0.30564  Biso   1.000  C
  C75      1.0000 0.35860  0.58697  0.30584  Biso   1.000  C
  C76      1.0000 0.44868  0.64958  0.37796  Biso   1.000  C
  H58      1.0000 0.48560  0.53383  0.43509  Biso   1.000  H
  C77      1.0000 0.25108  0.40087  0.33146  Biso   1.000  C
  H59      1.0000 0.32988  0.32569  0.31089  Biso   1.000  H
  H60      1.0000 0.29168  0.41139  0.26659  Biso   1.000  H
  H61      1.0000 0.32690  0.60069  0.27261  Biso   1.000  H
  C78      1.0000 0.40139  0.66811  0.32917  Biso   1.000  C
  C79      1.0000 0.48895  0.75194  0.40105  Biso   1.000  C
  C80      1.0000 0.25026  0.33222  0.37367  Biso   1.000  C
  C81      1.0000 0.19736  0.47212  0.31246  Biso   1.000  C
  C82      1.0000 0.40299  0.78541  0.30901  Biso   1.000  C
  H62      1.0000 0.52218  0.73888  0.43629  Biso   1.000  H
  C83      1.0000 0.51985  0.78932  0.35704  Biso   1.000  C
  C84      1.0000 0.43715  0.83814  0.40366  Biso   1.000  C
  C85      1.0000 0.19633  0.33067  0.39572  Biso   1.000  C
  H63      1.0000 0.28701  0.28528  0.38791  Biso   1.000  H
  O8       1.0000 0.20148  0.54061  0.27112  Biso   1.000  O
  C86      1.0000 0.14326  0.47090  0.33403  Biso   1.000  C
  C87      1.0000 0.47372  0.80753  0.30741  Biso   1.000  C
  H64      1.0000 0.36981  0.79887  0.27389  Biso   1.000  H
  C88      1.0000 0.39083  0.85511  0.35463  Biso   1.000  C
  C89      1.0000 0.58655  0.80842  0.36273  Biso   1.000  C
  C90      1.0000 0.43257  0.89838  0.44780  Biso   1.000  C
  C91      1.0000 0.18783  0.25794  0.44187  Biso   1.000  C
  C92      1.0000 0.14259  0.39801  0.37524  Biso   1.000  C
  C93      1.0000 0.14461  0.60828  0.24843  Biso   1.000  C
  H65      1.0000 0.10708  0.51922  0.32080  Biso   1.000  H
  C94      1.0000 0.49471  0.84148  0.26419  Biso   1.000  C
  C95      1.0000 0.33845  0.92621  0.35030  Biso   1.000  C
  H66      1.0000 0.61792  0.79667  0.39640  Biso   1.000  H
  C96      1.0000 0.60764  0.84467  0.31923  Biso   1.000  C
  H67      1.0000 0.46471  0.88768  0.48119  Biso   1.000  H
  C97      1.0000 0.38160  0.97510  0.44439  Biso   1.000  C
  C98      1.0000 0.17205  0.33393  0.48280  Biso   1.000  C
  C99      1.0000 0.12411  0.19354  0.41841  Biso   1.000  C
  H68      1.0000 0.22711  0.21011  0.45722  Biso   1.000  H
  C100     1.0000 0.08686  0.38258  0.40210  Biso   1.000  C
  H69      1.0000 0.13831  0.65978  0.27561  Biso   1.000  H
  H70      1.0000 0.10501  0.56232  0.23641  Biso   1.000  H
  H71      1.0000 0.15168  0.64876  0.21781  Biso   1.000  H
  C101     1.0000 0.56171  0.85952  0.26924  Biso   1.000  C
  H72      1.0000 0.46322  0.85267  0.23059  Biso   1.000  H
  C102     1.0000 0.33362  0.98547  0.39540  Biso   1.000  C
  H73      1.0000 0.30591  0.93478  0.31699  Biso   1.000  H
  H74      1.0000 0.65328  0.85952  0.32340  Biso   1.000  H
  C103     1.0000 0.38160  0.04702  0.49182  Biso   1.000  C
  C104     1.0000 0.11707  0.40087  0.46147  Biso   1.000  C
  C105     1.0000 0.20640  0.34063  0.53736  Biso   1.000  C
  C106     1.0000 0.06990  0.26088  0.39636  Biso   1.000  C
  C107     1.0000 0.11647  0.08114  0.41785  Biso   1.000  C
  H75      1.0000 0.04771  0.43058  0.38670  Biso   1.000  H
  H76      1.0000 0.57620  0.88172  0.23909  Biso   1.000  H
  O9       1.0000 0.28209  0.05665  0.39452  Biso   1.000  O
  C108     1.0000 0.35184  0.99918  0.53423  Biso   1.000  C
  H77      1.0000 0.35711  0.11468  0.47811  Biso   1.000  H
  H78      1.0000 0.42803  0.06791  0.50942  Biso   1.000  H
  C109     1.0000 0.09542  0.47049  0.49551  Biso   1.000  C
  C110     1.0000 0.18420  0.41393  0.57031  Biso   1.000  C
  H79      1.0000 0.24420  0.29614  0.55171  Biso   1.000  H
  C111     1.0000 0.00796  0.21639  0.37235  Biso   1.000  C
  C112     1.0000 0.05512  0.03689  0.39504  Biso   1.000  C
  H80      1.0000 0.15327  0.03518  0.43309  Biso   1.000  H
  C113     1.0000 0.23162  0.06318  0.34477  Biso   1.000  C
  C114     1.0000 0.38927  0.93617  0.57580  Biso   1.000  C
  C115     1.0000 0.28638  0.02212  0.53371  Biso   1.000  C
  C116     1.0000 0.12746  0.47694  0.55031  Biso   1.000  C
  H81      1.0000 0.05768  0.51506  0.48119  Biso   1.000  H
  O10      1.0000 0.21572  0.42674  0.62371  Biso   1.000  O
  C117     1.0000 0.00123  0.10260  0.37211  Biso   1.000  C
  H82      1.0000 0.97120  0.26194  0.35652  Biso   1.000  H
  H83      1.0000 0.04952  0.95992  0.39500  Biso   1.000  H
  H84      1.0000 0.21167  0.99102  0.33539  Biso   1.000  H
  H85      1.0000 0.19728  0.11493  0.34830  Biso   1.000  H
  H86      1.0000 0.25132  0.08824  0.31651  Biso   1.000  H
  O11      1.0000 0.45468  0.91968  0.57677  Biso   1.000  O
  C118     1.0000 0.36183  0.89340  0.61585  Biso   1.000  C
  C119     1.0000 0.25878  0.98327  0.57300  Biso   1.000  C
  H87      1.0000 0.26002  0.06563  0.50561  Biso   1.000  H
  C120     1.0000 0.10053  0.55318  0.58615  Biso   1.000  C
  C121     1.0000 0.27568  0.36968  0.64392  Biso   1.000  C
  H88      1.0000 0.95932  0.07028  0.35599  Biso   1.000  H
  C122     1.0000 0.49977  0.89421  0.62684  Biso   1.000  C
  C123     1.0000 0.29703  0.91576  0.61329  Biso   1.000  C
  H89      1.0000 0.38801  0.84989  0.64400  Biso   1.000  H
  C124     1.0000 0.18857  0.00082  0.57685  Biso   1.000  C
  C125     1.0000 0.12065  0.67137  0.58214  Biso   1.000  C
  H90      1.0000 0.05151  0.54828  0.57600  Biso   1.000  H
  H91      1.0000 0.11701  0.52877  0.62379  Biso   1.000  H
  H92      1.0000 0.29298  0.38478  0.68228  Biso   1.000  H
  H93      1.0000 0.30800  0.39344  0.62499  Biso   1.000  H
  H94      1.0000 0.26771  0.29116  0.63850  Biso   1.000  H
  H95      1.0000 0.49311  0.94482  0.65422  Biso   1.000  H
  H96      1.0000 0.54542  0.90099  0.62399  Biso   1.000  H
  H97      1.0000 0.49211  0.81928  0.63698  Biso   1.000  H
  C126     1.0000 0.25765  0.87544  0.65149  Biso   1.000  C
  C127     1.0000 0.16009  0.88719  0.57584  Biso   1.000  C
  C128     1.0000 0.19417  0.04367  0.63333  Biso   1.000  C
  H98      1.0000 0.16171  0.04922  0.54798  Biso   1.000  H
  C129     1.0000 0.08361  0.74133  0.54361  Biso   1.000  C
  C130     1.0000 0.17798  0.71121  0.61886  Biso   1.000  C
  C131     1.0000 0.19758  0.81846  0.61573  Biso   1.000  C
  H99      1.0000 0.28440  0.82646  0.68020  Biso   1.000  H
  C132     1.0000 0.23212  0.97592  0.67402  Biso   1.000  C
  C133     1.0000 0.10231  0.84973  0.53964  Biso   1.000  C
  C134     1.0000 0.16541  0.13803  0.64660  Biso   1.000  C
  O12      1.0000 0.02637  0.69798  0.51034  Biso   1.000  O
  H100     1.0000 0.20340  0.66460  0.64600  Biso   1.000  H
  C135     1.0000 0.24124  0.00310  0.72746  Biso   1.000  C
  H101     1.0000 0.07631  0.89666  0.51290  Biso   1.000  H
  C136     1.0000 0.17411  0.16390  0.70048  Biso   1.000  C
  H102     1.0000 0.14008  0.18439  0.61930  Biso   1.000  H
  C137     1.0000 0.97995  0.77210  0.47823  Biso   1.000  C
  H103     1.0000 0.26819  0.95878  0.75488  Biso   1.000  H
  C138     1.0000 0.21059  0.09607  0.74077  Biso   1.000  C
  H104     1.0000 0.15489  0.22872  0.70978  Biso   1.000  H
  H105     1.0000 0.96960  0.82956  0.50100  Biso   1.000  H
  H106     1.0000 0.93920  0.73284  0.46031  Biso   1.000  H
  H107     1.0000 0.99901  0.80491  0.45121  Biso   1.000  H
  H108     1.0000 0.21462  0.11313  0.77729  Biso   1.000  H
  C139     1.0000 0.64459  0.89168  0.74843  Biso   1.000  C
  O13      1.0000 0.70145  0.95935  0.77112  Biso   1.000  O
  H109     1.0000 0.63829  0.84018  0.77561  Biso   1.000  H
  H110     1.0000 0.60498  0.93772  0.73640  Biso   1.000  H
  H111     1.0000 0.65170  0.85120  0.71780  Biso   1.000  H
  C140     1.0000 0.69733  0.02792  0.81245  Biso   1.000  C
  C141     1.0000 0.75110  0.09909  0.83145  Biso   1.000  C
  C142     1.0000 0.64328  0.02914  0.83402  Biso   1.000  C
  C143     1.0000 0.75029  0.16782  0.87371  Biso   1.000  C
  C144     1.0000 0.80880  0.10130  0.80564  Biso   1.000  C
  H112     1.0000 0.60710  0.98082  0.82079  Biso   1.000  H
  C145     1.0000 0.64260  0.10203  0.87523  Biso   1.000  C
  C146     1.0000 0.69630  0.16929  0.89572  Biso   1.000  C
  H113     1.0000 0.78699  0.21468  0.88790  Biso   1.000  H
  H114     1.0000 0.82990  0.17427  0.81089  Biso   1.000  H
  H115     1.0000 0.79170  0.08856  0.76659  Biso   1.000  H
  C147     1.0000 0.86012  0.01518  0.82961  Biso   1.000  C
  C148     1.0000 0.58683  0.11738  0.90209  Biso   1.000  C
  C149     1.0000 0.68785  0.24210  0.94186  Biso   1.000  C
  C150     1.0000 0.85858  0.91299  0.80588  Biso   1.000  C
  C151     1.0000 0.90945  0.03387  0.87764  Biso   1.000  C
  C152     1.0000 0.61704  0.09909  0.96146  Biso   1.000  C
  H116     1.0000 0.54768  0.06938  0.88670  Biso   1.000  H
  C153     1.0000 0.56988  0.23908  0.89640  Biso   1.000  C
  C154     1.0000 0.67207  0.16611  0.98279  Biso   1.000  C
  C155     1.0000 0.62409  0.30651  0.91841  Biso   1.000  C
  H117     1.0000 0.72712  0.28994  0.95722  Biso   1.000  H
  H118     1.0000 0.82692  0.89927  0.77260  Biso   1.000  H
  C156     1.0000 0.90141  0.83193  0.82917  Biso   1.000  C
  C157     1.0000 0.95314  0.95249  0.90225  Biso   1.000  C
  O14      1.0000 0.91058  0.13909  0.89756  Biso   1.000  O
  C158     1.0000 0.59539  0.02947  0.99550  Biso   1.000  C
  C159     1.0000 0.50798  0.28357  0.87235  Biso   1.000  C
  C160     1.0000 0.70642  0.15942  0.03735  Biso   1.000  C
  C161     1.0000 0.61649  0.41890  0.91785  Biso   1.000  C
  C162     1.0000 0.94870  0.85038  0.87796  Biso   1.000  C
  C163     1.0000 0.90301  0.71464  0.80900  Biso   1.000  C
  H119     1.0000 0.98562  0.96621  0.93509  Biso   1.000  H
  C164     1.0000 0.95810  0.16333  0.94631  Biso   1.000  C
  H120     1.0000 0.55770  0.98490  0.98119  Biso   1.000  H
  C165     1.0000 0.62743  0.02310  0.05030  Biso   1.000  C
  H121     1.0000 0.47122  0.23810  0.85651  Biso   1.000  H
  C166     1.0000 0.50125  0.39744  0.87211  Biso   1.000  C
  C167     1.0000 0.68417  0.08612  0.07031  Biso   1.000  C
  H122     1.0000 0.74422  0.20390  0.05171  Biso   1.000  H
  C168     1.0000 0.55509  0.46306  0.89504  Biso   1.000  C
  H123     1.0000 0.65329  0.46478  0.93308  Biso   1.000  H
  C169     1.0000 0.98897  0.74810  0.90105  Biso   1.000  C
  C170     1.0000 0.97369  0.69251  0.80740  Biso   1.000  C
  H124     1.0000 0.86978  0.70109  0.77389  Biso   1.000  H
  C171     1.0000 0.89082  0.64493  0.85467  Biso   1.000  C
  H125     1.0000 0.95401  0.11093  0.97381  Biso   1.000  H
  H126     1.0000 0.95060  0.23737  0.95782  Biso   1.000  H
  H127     1.0000 0.00272  0.15844  0.94110  Biso   1.000  H
  C172     1.0000 0.60055  0.94678  0.08614  Biso   1.000  C
  H128     1.0000 0.45929  0.42968  0.85599  Biso   1.000  H
  O15      1.0000 0.71574  0.07322  0.12371  Biso   1.000  O
  H129     1.0000 0.54949  0.54012  0.89500  Biso   1.000  H
  C173     1.0000 0.93717  0.66191  0.90366  Biso   1.000  C
  H130     1.0000 0.02220  0.76108  0.93629  Biso   1.000  H
  C174     1.0000 0.01987  0.71072  0.85703  Biso   1.000  C
  C175     1.0000 0.99472  0.65848  0.76418  Biso   1.000  C
  C176     1.0000 0.83847  0.57383  0.85030  Biso   1.000  C
  C177     1.0000 0.62067  0.82859  0.08213  Biso   1.000  C
  H131     1.0000 0.55148  0.95168  0.07600  Biso   1.000  H
  H132     1.0000 0.61698  0.97119  0.12379  Biso   1.000  H
  C178     1.0000 0.77564  0.13028  0.14387  Biso   1.000  C
  C179     1.0000 0.93259  0.60158  0.94779  Biso   1.000  C
  C180     1.0000 0.08657  0.69162  0.86272  Biso   1.000  C
  H133     1.0000 0.96319  0.64729  0.73059  Biso   1.000  H
  C181     1.0000 0.06169  0.64052  0.76924  Biso   1.000  C
  C182     1.0000 0.83364  0.51449  0.89540  Biso   1.000  C
  H134     1.0000 0.80588  0.56518  0.81698  Biso   1.000  H
  C183     1.0000 0.58358  0.75871  0.04361  Biso   1.000  C
  C184     1.0000 0.67800  0.78883  0.11886  Biso   1.000  C
  H135     1.0000 0.79300  0.11517  0.18228  Biso   1.000  H
  H136     1.0000 0.80797  0.10660  0.12499  Biso   1.000  H
  H137     1.0000 0.76768  0.20880  0.13850  Biso   1.000  H
  H138     1.0000 0.96468  0.61228  0.98119  Biso   1.000  H
  C185     1.0000 0.88162  0.52494  0.94439  Biso   1.000  C
  H139     1.0000 0.11789  0.70329  0.89640  Biso   1.000  H
  C186     1.0000 0.10762  0.65529  0.81927  Biso   1.000  C
  H140     1.0000 0.07617  0.61832  0.73909  Biso   1.000  H
  O16      1.0000 0.78206  0.44331  0.89452  Biso   1.000  O
  O17      1.0000 0.52633  0.80198  0.01029  Biso   1.000  O
  C187     1.0000 0.60228  0.65031  0.03964  Biso   1.000  C
  H141     1.0000 0.70342  0.83536  0.14600  Biso   1.000  H
  C188     1.0000 0.69760  0.68150  0.11573  Biso   1.000  C
  C189     1.0000 0.88157  0.45302  0.99181  Biso   1.000  C
  H142     1.0000 0.15330  0.64052  0.82340  Biso   1.000  H
  C190     1.0000 0.73163  0.43678  0.84476  Biso   1.000  C
  C191     1.0000 0.47992  0.72794  0.97822  Biso   1.000  C
  C192     1.0000 0.66006  0.61277  0.07584  Biso   1.000  C
  H143     1.0000 0.57628  0.60330  0.01290  Biso   1.000  H
  C193     1.0000 0.75767  0.62460  0.15149  Biso   1.000  C
  H144     1.0000 0.85708  0.38527  0.97810  Biso   1.000  H
  H145     1.0000 0.92799  0.43213  0.00937  Biso   1.000  H
  C194     1.0000 0.85181  0.50078  0.03423  Biso   1.000  C
  H146     1.0000 0.69730  0.38511  0.84829  Biso   1.000  H
  H147     1.0000 0.71169  0.50902  0.83538  Biso   1.000  H
  H148     1.0000 0.75129  0.41180  0.81650  Biso   1.000  H
  H149     1.0000 0.43921  0.76720  0.96030  Biso   1.000  H
  H150     1.0000 0.49898  0.69513  0.95120  Biso   1.000  H
  H151     1.0000 0.46957  0.67039  0.00099  Biso   1.000  H
  C195     1.0000 0.68854  0.49922  0.07684  Biso   1.000  C
  C196     1.0000 0.79700  0.58420  0.11328  Biso   1.000  C
  H152     1.0000 0.78437  0.67350  0.18019  Biso   1.000  H
  C197     1.0000 0.73209  0.52412  0.17402  Biso   1.000  C
  C198     1.0000 0.88924  0.56379  0.07580  Biso   1.000  C
  C199     1.0000 0.78635  0.47792  0.03371  Biso   1.000  C
  C200     1.0000 0.75875  0.51669  0.07299  Biso   1.000  C
  C201     1.0000 0.69414  0.45629  0.13333  Biso   1.000  C
  H153     1.0000 0.66169  0.45082  0.04798  Biso   1.000  H
  C202     1.0000 0.86185  0.60656  0.11585  Biso   1.000  C
  C203     1.0000 0.74122  0.49694  0.22746  Biso   1.000  C
  O18      1.0000 0.95464  0.58036  0.07672  Biso   1.000  O
  H154     1.0000 0.75999  0.43441  0.00560  Biso   1.000  H
  C204     1.0000 0.66538  0.36201  0.14660  Biso   1.000  C
  H155     1.0000 0.88798  0.65007  0.14399  Biso   1.000  H
  H156     1.0000 0.76821  0.54118  0.25488  Biso   1.000  H
  C205     1.0000 0.71061  0.40389  0.24077  Biso   1.000  C
  C206     1.0000 0.99979  0.60583  0.12683  Biso   1.000  C
  C207     1.0000 0.67408  0.33614  0.20048  Biso   1.000  C
  H157     1.0000 0.64010  0.31557  0.11930  Biso   1.000  H
  H158     1.0000 0.71459  0.38691  0.27729  Biso   1.000  H
  H159     1.0000 0.99307  0.55522  0.15417  Biso   1.000  H
  H160     1.0000 0.99208  0.68068  0.13698  Biso   1.000  H
  H161     1.0000 0.04539  0.59897  0.12399  Biso   1.000  H
  H162     1.0000 0.65491  0.27132  0.20978  Biso   1.000  H
  C208     1.0000 0.35540  0.10832  0.25156  Biso   1.000  C
  O19      1.0000 0.29854  0.04065  0.22887  Biso   1.000  O
  H163     1.0000 0.36170  0.15982  0.22438  Biso   1.000  H
  H164     1.0000 0.39501  0.06228  0.26359  Biso   1.000  H
  H165     1.0000 0.34829  0.14880  0.28219  Biso   1.000  H
  C209     1.0000 0.30266  0.97208  0.18754  Biso   1.000  C
  C210     1.0000 0.24890  0.90091  0.16858  Biso   1.000  C
  C211     1.0000 0.35676  0.97086  0.16597  Biso   1.000  C
  C212     1.0000 0.24971  0.83218  0.12632  Biso   1.000  C
  C213     1.0000 0.19119  0.89870  0.19435  Biso   1.000  C
  H166     1.0000 0.39289  0.01918  0.17920  Biso   1.000  H
  C214     1.0000 0.35739  0.89797  0.12476  Biso   1.000  C
  C215     1.0000 0.30369  0.83071  0.10427  Biso   1.000  C
  H167     1.0000 0.21301  0.78532  0.11209  Biso   1.000  H
  H168     1.0000 0.17009  0.82573  0.18910  Biso   1.000  H
  H169     1.0000 0.20829  0.91144  0.23340  Biso   1.000  H
  C216     1.0000 0.13987  0.98482  0.17038  Biso   1.000  C
  C217     1.0000 0.41316  0.88262  0.09790  Biso   1.000  C
  C218     1.0000 0.31214  0.75790  0.05813  Biso   1.000  C
  C219     1.0000 0.14142  0.08701  0.19415  Biso   1.000  C
  C220     1.0000 0.09054  0.96613  0.12235  Biso   1.000  C
  C221     1.0000 0.38295  0.90091  0.03853  Biso   1.000  C
  H170     1.0000 0.45231  0.93062  0.11329  Biso   1.000  H
  C222     1.0000 0.43012  0.76092  0.10363  Biso   1.000  C
  C223     1.0000 0.32793  0.83389  0.01724  Biso   1.000  C
  C224     1.0000 0.37590  0.69349  0.08158  Biso   1.000  C
  H171     1.0000 0.27293  0.71006  0.04282  Biso   1.000  H
  H172     1.0000 0.17307  0.10073  0.22739  Biso   1.000  H
  C225     1.0000 0.09858  0.16807  0.17082  Biso   1.000  C
  C226     1.0000 0.04685  0.04751  0.09774  Biso   1.000  C
  O20      1.0000 0.08946  0.86091  0.10243  Biso   1.000  O
  C227     1.0000 0.40460  0.97053  0.00449  Biso   1.000  C
  C228     1.0000 0.49201  0.71643  0.12764  Biso   1.000  C
  C229     1.0000 0.29357  0.84058  0.96264  Biso   1.000  C
  C230     1.0000 0.38355  0.58110  0.08214  Biso   1.000  C
  C231     1.0000 0.05129  0.14962  0.12203  Biso   1.000  C
  C232     1.0000 0.09698  0.28536  0.19099  Biso   1.000  C
  H173     1.0000 0.01442  0.03379  0.06490  Biso   1.000  H
  C233     1.0000 0.04189  0.83667  0.05368  Biso   1.000  C
  H174     1.0000 0.44229  0.01510  0.01880  Biso   1.000  H
  C234     1.0000 0.37256  0.97690  0.94969  Biso   1.000  C
  H175     1.0000 0.52877  0.76190  0.14348  Biso   1.000  H
  C235     1.0000 0.49874  0.60256  0.12789  Biso   1.000  C
  C236     1.0000 0.31582  0.91388  0.92968  Biso   1.000  C
  H176     1.0000 0.25583  0.79610  0.94832  Biso   1.000  H
  C237     1.0000 0.44490  0.53694  0.10495  Biso   1.000  C
  H177     1.0000 0.34670  0.53522  0.06691  Biso   1.000  H
  C238     1.0000 0.01107  0.25190  0.09894  Biso   1.000  C
  C239     1.0000 0.02630  0.30749  0.19259  Biso   1.000  C
  H178     1.0000 0.13021  0.29891  0.22610  Biso   1.000  H
  C240     1.0000 0.10919  0.35507  0.14536  Biso   1.000  C
  H179     1.0000 0.99732  0.84156  0.05889  Biso   1.000  H
  H180     1.0000 0.04600  0.88907  0.02622  Biso   1.000  H
  H181     1.0000 0.04941  0.76263  0.04221  Biso   1.000  H
  C241     1.0000 0.39945  0.05322  0.91385  Biso   1.000  C
  H182     1.0000 0.54070  0.57032  0.14400  Biso   1.000  H
  O21      1.0000 0.28425  0.92678  0.87628  Biso   1.000  O
  H183     1.0000 0.45050  0.45988  0.10499  Biso   1.000  H
  C242     1.0000 0.06287  0.33809  0.09633  Biso   1.000  C
  H184     1.0000 0.97779  0.23892  0.06370  Biso   1.000  H
  C243     1.0000 0.98012  0.28928  0.14296  Biso   1.000  C
  C244     1.0000 0.00527  0.34152  0.23581  Biso   1.000  C
  C245     1.0000 0.16152  0.42617  0.14969  Biso   1.000  C
  C246     1.0000 0.37932  0.17141  0.91786  Biso   1.000  C
  H185     1.0000 0.44851  0.04832  0.92399  Biso   1.000  H
  H186     1.0000 0.38301  0.02881  0.87620  Biso   1.000  H
  C247     1.0000 0.22435  0.86972  0.85612  Biso   1.000  C
  C248     1.0000 0.06740  0.39842  0.05220  Biso   1.000  C
  C249     1.0000 0.91342  0.30838  0.13727  Biso   1.000  C
  H187     1.0000 0.03680  0.35271  0.26940  Biso   1.000  H
  C250     1.0000 0.93830  0.35948  0.23075  Biso   1.000  C
  C251     1.0000 0.16635  0.48551  0.10459  Biso   1.000  C
  H188     1.0000 0.19411  0.43482  0.18301  Biso   1.000  H
  C252     1.0000 0.41641  0.24129  0.95638  Biso   1.000  C
  C253     1.0000 0.32204  0.21117  0.88113  Biso   1.000  C
  H189     1.0000 0.20699  0.88483  0.81771  Biso   1.000  H
  H190     1.0000 0.19202  0.89340  0.87500  Biso   1.000  H
  H191     1.0000 0.23231  0.79120  0.86149  Biso   1.000  H
  H192     1.0000 0.03531  0.38772  0.01880  Biso   1.000  H
  C254     1.0000 0.11837  0.47506  0.05560  Biso   1.000  C
  H193     1.0000 0.88210  0.29671  0.10359  Biso   1.000  H
  C255     1.0000 0.89238  0.34471  0.18076  Biso   1.000  C
  H194     1.0000 0.92382  0.38168  0.26090  Biso   1.000  H
  O22      1.0000 0.21793  0.55669  0.10548  Biso   1.000  O
  O23      1.0000 0.47366  0.19802  0.98970  Biso   1.000  O
  C256     1.0000 0.39772  0.34969  0.96039  Biso   1.000  C
  H195     1.0000 0.29662  0.16464  0.85399  Biso   1.000  H
  C257     1.0000 0.30240  0.31850  0.88430  Biso   1.000  C
  C258     1.0000 0.11842  0.54698  0.00818  Biso   1.000  C
  H196     1.0000 0.84669  0.35948  0.17659  Biso   1.000  H
  C259     1.0000 0.26836  0.56322  0.15523  Biso   1.000  C
  C260     1.0000 0.52007  0.27206  0.02177  Biso   1.000  C
  C261     1.0000 0.33993  0.38723  0.92415  Biso   1.000  C
  H197     1.0000 0.42371  0.39670  0.98709  Biso   1.000  H
  C262     1.0000 0.24232  0.37540  0.84850  Biso   1.000  C
  H198     1.0000 0.14291  0.61473  0.02189  Biso   1.000  H
  H199     1.0000 0.07201  0.56787  0.99062  Biso   1.000  H
  C263     1.0000 0.14818  0.49922  0.96576  Biso   1.000  C
  H200     1.0000 0.30269  0.61489  0.15170  Biso   1.000  H
  H201     1.0000 0.28830  0.49098  0.16461  Biso   1.000  H
  H202     1.0000 0.24870  0.58820  0.18349  Biso   1.000  H
  H203     1.0000 0.56078  0.23280  0.03969  Biso   1.000  H
  H204     1.0000 0.50101  0.30487  0.04879  Biso   1.000  H
  H205     1.0000 0.53042  0.32961  0.99900  Biso   1.000  H
  C264     1.0000 0.31146  0.50078  0.92319  Biso   1.000  C
  C265     1.0000 0.20300  0.41580  0.88675  Biso   1.000  C
  H206     1.0000 0.21562  0.32650  0.81980  Biso   1.000  H
  C266     1.0000 0.26790  0.47588  0.82597  Biso   1.000  C
  C267     1.0000 0.11075  0.43621  0.92419  Biso   1.000  C
  C268     1.0000 0.21364  0.52208  0.96628  Biso   1.000  C
  C269     1.0000 0.24125  0.48331  0.92704  Biso   1.000  C
  C270     1.0000 0.30585  0.54371  0.86666  Biso   1.000  C
  H207     1.0000 0.33830  0.54918  0.95201  Biso   1.000  H
  C271     1.0000 0.13814  0.39344  0.88414  Biso   1.000  C
  C272     1.0000 0.25877  0.50306  0.77253  Biso   1.000  C
  O24      1.0000 0.04535  0.41964  0.92327  Biso   1.000  O
  H208     1.0000 0.24001  0.56559  0.99443  Biso   1.000  H
  C273     1.0000 0.33461  0.63799  0.85339  Biso   1.000  C
  H209     1.0000 0.11201  0.34993  0.85600  Biso   1.000  H
  H210     1.0000 0.23183  0.45882  0.74511  Biso   1.000  H
  C274     1.0000 0.28943  0.59611  0.75922  Biso   1.000  C
  C275     1.0000 0.00025  0.39417  0.87316  Biso   1.000  C
  C276     1.0000 0.32591  0.66386  0.79951  Biso   1.000  C
  H211     1.0000 0.35989  0.68443  0.88069  Biso   1.000  H
  H212     1.0000 0.28540  0.61309  0.72270  Biso   1.000  H
  H213     1.0000 0.95460  0.40103  0.87600  Biso   1.000  H
  H214     1.0000 0.00692  0.44478  0.84582  Biso   1.000  H
  H215     1.0000 0.00791  0.31932  0.86301  Biso   1.000  H
  H216     1.0000 0.34513  0.72868  0.79021  Biso   1.000  H
  Ne1      1.0000 0.26708  0.67347  0.46353  Biso   1.000  Ne
  He1      1.0000 0.35557  0.58704  0.53056  Biso   1.000  He
  He2      1.0000 0.11233  0.81190  0.37824  Biso   1.000  He
  Ar1      1.0000 0.27254  0.66496  0.47260  Biso   1.000  Ar
  Ne2      1.0000 0.23293  0.17347  0.03647  Biso   1.000  Ne
  He3      1.0000 0.36123  0.28954  0.10497  Biso   1.000  He
  He4      1.0000 0.04905  0.03375  0.90235  Biso   1.000  He
  Ar2      1.0000 0.21920  0.15334  0.02520  Biso   1.000  Ar
  Ne3      1.0000 0.73292  0.32653  0.53647  Biso   1.000  Ne
  He5      1.0000 0.88611  0.18959  0.62056  Biso   1.000  He
  He6      1.0000 0.58434  0.43000  0.42727  Biso   1.000  He
  Ar3      1.0000 0.72199  0.34227  0.52645  Biso   1.000  Ar
  Ne4      1.0000 0.76707  0.82653  0.96353  Biso   1.000  Ne
  He7      1.0000 0.85536  0.91294  0.03040  Biso   1.000  He
  He8      1.0000 0.61393  0.68957  0.87949  Biso   1.000  He
  Ar4      1.0000 0.77262  0.83508  0.97261  Biso   1.000  Ar
