data_image0
_cell_length_a       26.255
_cell_length_b       26.255
_cell_length_c       12.756
_cell_angle_alpha    90
_cell_angle_beta     90
_cell_angle_gamma    90

_symmetry_space_group_name_H-M    "P 1"
_symmetry_int_tables_number       1

loop_
  _symmetry_equiv_pos_as_xyz
  'x, y, z'

loop_
  _atom_site_label
  _atom_site_occupancy
  _atom_site_fract_x
  _atom_site_fract_y
  _atom_site_fract_z
  _atom_site_thermal_displace_type
  _atom_site_B_iso_or_equiv
  _atom_site_type_symbol
  O1       1.0000 0.64521  0.64521  0.40201  Biso   1.000  O
  C1       1.0000 0.64959  0.64959  0.49271  Biso   1.000  C
  N1       1.0000 0.68261  0.62339  0.55778  Biso   1.000  N
  N2       1.0000 0.62339  0.68261  0.55778  Biso   1.000  N
  C2       1.0000 0.72550  0.59509  0.51419  Biso   1.000  C
  C3       1.0000 0.68120  0.63980  0.66424  Biso   1.000  C
  C4       1.0000 0.59509  0.72550  0.51419  Biso   1.000  C
  C5       1.0000 0.63980  0.68120  0.66424  Biso   1.000  C
  N3       1.0000 0.72348  0.54131  0.53442  Biso   1.000  N
  H1       1.0000 0.72649  0.60069  0.43736  Biso   1.000  H
  H2       1.0000 0.75749  0.60899  0.54390  Biso   1.000  H
  N4       1.0000 0.66220  0.60331  0.73785  Biso   1.000  N
  H3       1.0000 0.71491  0.65378  0.68697  Biso   1.000  H
  N5       1.0000 0.54131  0.72348  0.53442  Biso   1.000  N
  H4       1.0000 0.60069  0.72649  0.43736  Biso   1.000  H
  H5       1.0000 0.60899  0.75749  0.54390  Biso   1.000  H
  N6       1.0000 0.60331  0.66220  0.73785  Biso   1.000  N
  H6       1.0000 0.65378  0.71491  0.68697  Biso   1.000  H
  C6       1.0000 0.71971  0.50581  0.45665  Biso   1.000  C
  C7       1.0000 0.73910  0.51899  0.63155  Biso   1.000  C
  C8       1.0000 0.69370  0.56389  0.78159  Biso   1.000  C
  C9       1.0000 0.61878  0.61878  0.78340  Biso   1.000  C
  C10      1.0000 0.50581  0.71971  0.45665  Biso   1.000  C
  C11      1.0000 0.51899  0.73910  0.63155  Biso   1.000  C
  C12      1.0000 0.56389  0.69370  0.78159  Biso   1.000  C
  N7       1.0000 0.72950  0.45961  0.49710  Biso   1.000  N
  O2       1.0000 0.70908  0.51499  0.36446  Biso   1.000  O
  C13      1.0000 0.74390  0.46231  0.60568  Biso   1.000  C
  N8       1.0000 0.70010  0.52040  0.71261  Biso   1.000  N
  H7       1.0000 0.77208  0.53361  0.65687  Biso   1.000  H
  H8       1.0000 0.67850  0.55220  0.84823  Biso   1.000  H
  H9       1.0000 0.72771  0.57840  0.79766  Biso   1.000  H
  O3       1.0000 0.59619  0.59619  0.85607  Biso   1.000  O
  N9       1.0000 0.45961  0.72950  0.49710  Biso   1.000  N
  O4       1.0000 0.51499  0.70908  0.36446  Biso   1.000  O
  C14      1.0000 0.46231  0.74390  0.60568  Biso   1.000  C
  N10      1.0000 0.52040  0.70010  0.71261  Biso   1.000  N
  H10      1.0000 0.53361  0.77208  0.65687  Biso   1.000  H
  H11      1.0000 0.55220  0.67850  0.84823  Biso   1.000  H
  H12      1.0000 0.57840  0.72771  0.79766  Biso   1.000  H
  C15      1.0000 0.73910  0.41569  0.43086  Biso   1.000  C
  N11      1.0000 0.70798  0.43778  0.67741  Biso   1.000  N
  H13      1.0000 0.77951  0.44970  0.61689  Biso   1.000  H
  C16      1.0000 0.68478  0.47301  0.74208  Biso   1.000  C
  C17      1.0000 0.41569  0.73910  0.43086  Biso   1.000  C
  N12      1.0000 0.43778  0.70798  0.67741  Biso   1.000  N
  H14      1.0000 0.44970  0.77951  0.61689  Biso   1.000  H
  C18      1.0000 0.47301  0.68478  0.74208  Biso   1.000  C
  N13      1.0000 0.70238  0.37600  0.43830  Biso   1.000  N
  H15      1.0000 0.74070  0.42731  0.35709  Biso   1.000  H
  H16      1.0000 0.77288  0.40149  0.44920  Biso   1.000  H
  C19      1.0000 0.70661  0.38419  0.69575  Biso   1.000  C
  O5       1.0000 0.65580  0.46220  0.81373  Biso   1.000  O
  N14      1.0000 0.37600  0.70238  0.43830  Biso   1.000  N
  H17      1.0000 0.42731  0.74070  0.35709  Biso   1.000  H
  H18      1.0000 0.40149  0.77288  0.44920  Biso   1.000  H
  C20      1.0000 0.38419  0.70661  0.69575  Biso   1.000  C
  O6       1.0000 0.46220  0.65580  0.81373  Biso   1.000  O
  C21      1.0000 0.67008  0.36500  0.35709  Biso   1.000  C
  C22      1.0000 0.70109  0.33830  0.52030  Biso   1.000  C
  N15      1.0000 0.67850  0.35601  0.61767  Biso   1.000  N
  H19      1.0000 0.69111  0.37791  0.76529  Biso   1.000  H
  H20      1.0000 0.74199  0.37109  0.69795  Biso   1.000  H
  C23      1.0000 0.36500  0.67008  0.35709  Biso   1.000  C
  C24      1.0000 0.33830  0.70109  0.52030  Biso   1.000  C
  N16      1.0000 0.35601  0.67850  0.61767  Biso   1.000  N
  H21      1.0000 0.37791  0.69111  0.76529  Biso   1.000  H
  H22      1.0000 0.37109  0.74199  0.69795  Biso   1.000  H
  N17      1.0000 0.64399  0.32150  0.38225  Biso   1.000  N
  O7       1.0000 0.66509  0.38979  0.27720  Biso   1.000  O
  C25      1.0000 0.66170  0.29891  0.47970  Biso   1.000  C
  H23      1.0000 0.73521  0.32249  0.53191  Biso   1.000  H
  C26      1.0000 0.63500  0.32988  0.64291  Biso   1.000  C
  N18      1.0000 0.32150  0.64399  0.38225  Biso   1.000  N
  O8       1.0000 0.38979  0.66509  0.27720  Biso   1.000  O
  C27      1.0000 0.29891  0.66170  0.47970  Biso   1.000  C
  H24      1.0000 0.32249  0.73521  0.53191  Biso   1.000  H
  C28      1.0000 0.32988  0.63500  0.64291  Biso   1.000  C
  C29      1.0000 0.61581  0.29339  0.30417  Biso   1.000  C
  N19      1.0000 0.62400  0.29758  0.56170  Biso   1.000  N
  H25      1.0000 0.67751  0.26479  0.46809  Biso   1.000  H
  O9       1.0000 0.61021  0.33491  0.72280  Biso   1.000  O
  C30      1.0000 0.29339  0.61581  0.30417  Biso   1.000  C
  N20      1.0000 0.29758  0.62400  0.56170  Biso   1.000  N
  H26      1.0000 0.26479  0.67751  0.46809  Biso   1.000  H
  O10      1.0000 0.33491  0.61021  0.72280  Biso   1.000  O
  N21      1.0000 0.56218  0.29198  0.32259  Biso   1.000  N
  H27      1.0000 0.62209  0.30889  0.23471  Biso   1.000  H
  H28      1.0000 0.62891  0.25801  0.30198  Biso   1.000  H
  C31      1.0000 0.58431  0.26090  0.56907  Biso   1.000  C
  N22      1.0000 0.29198  0.56218  0.32259  Biso   1.000  N
  H29      1.0000 0.30889  0.62209  0.23471  Biso   1.000  H
  H30      1.0000 0.25801  0.62891  0.30198  Biso   1.000  H
  C32      1.0000 0.26090  0.58431  0.56907  Biso   1.000  C
  C33      1.0000 0.52699  0.31522  0.25792  Biso   1.000  C
  C34      1.0000 0.53769  0.25610  0.39425  Biso   1.000  C
  N23      1.0000 0.54039  0.27050  0.50290  Biso   1.000  N
  H31      1.0000 0.57269  0.25930  0.64291  Biso   1.000  H
  H32      1.0000 0.59848  0.22708  0.55080  Biso   1.000  H
  C35      1.0000 0.31522  0.52699  0.25792  Biso   1.000  C
  C36      1.0000 0.25610  0.53769  0.39425  Biso   1.000  C
  N24      1.0000 0.27050  0.54039  0.50290  Biso   1.000  N
  H33      1.0000 0.25930  0.57269  0.64291  Biso   1.000  H
  H34      1.0000 0.22708  0.59848  0.55080  Biso   1.000  H
  N25      1.0000 0.47960  0.29990  0.28739  Biso   1.000  N
  O11      1.0000 0.53780  0.34420  0.18619  Biso   1.000  O
  C37      1.0000 0.48101  0.26090  0.36838  Biso   1.000  C
  H35      1.0000 0.55030  0.22049  0.38311  Biso   1.000  H
  C38      1.0000 0.49419  0.28029  0.54327  Biso   1.000  C
  N26      1.0000 0.29990  0.47960  0.28739  Biso   1.000  N
  O12      1.0000 0.34420  0.53780  0.18619  Biso   1.000  O
  C39      1.0000 0.26090  0.48101  0.36838  Biso   1.000  C
  H36      1.0000 0.22049  0.55030  0.38311  Biso   1.000  H
  C40      1.0000 0.28029  0.49419  0.54327  Biso   1.000  C
  C41      1.0000 0.43611  0.30630  0.21841  Biso   1.000  C
  N27      1.0000 0.45869  0.27648  0.46558  Biso   1.000  N
  H37      1.0000 0.46639  0.22788  0.34305  Biso   1.000  H
  O13      1.0000 0.48501  0.29092  0.63547  Biso   1.000  O
  C42      1.0000 0.30630  0.43611  0.21841  Biso   1.000  C
  N28      1.0000 0.27648  0.45869  0.46558  Biso   1.000  N
  H38      1.0000 0.22788  0.46639  0.34305  Biso   1.000  H
  O14      1.0000 0.29092  0.48501  0.63547  Biso   1.000  O
  N29      1.0000 0.39669  0.33780  0.26207  Biso   1.000  N
  H39      1.0000 0.44780  0.32150  0.15169  Biso   1.000  H
  H40      1.0000 0.42160  0.27229  0.20226  Biso   1.000  H
  C43      1.0000 0.40491  0.27450  0.48581  Biso   1.000  C
  N30      1.0000 0.33780  0.39669  0.26207  Biso   1.000  N
  H41      1.0000 0.32150  0.44780  0.15169  Biso   1.000  H
  H42      1.0000 0.27229  0.42160  0.20226  Biso   1.000  H
  C44      1.0000 0.27450  0.40491  0.48581  Biso   1.000  C
  C45      1.0000 0.36020  0.31880  0.33569  Biso   1.000  C
  C46      1.0000 0.38118  0.38118  0.21660  Biso   1.000  C
  N31      1.0000 0.37661  0.31739  0.44214  Biso   1.000  N
  H43      1.0000 0.39931  0.27351  0.56256  Biso   1.000  H
  H44      1.0000 0.39101  0.24251  0.45610  Biso   1.000  H
  C47      1.0000 0.31880  0.36020  0.33569  Biso   1.000  C
  N32      1.0000 0.31739  0.37661  0.44214  Biso   1.000  N
  H45      1.0000 0.27351  0.39931  0.56256  Biso   1.000  H
  H46      1.0000 0.24251  0.39101  0.45610  Biso   1.000  H
  H47      1.0000 0.34618  0.28509  0.31295  Biso   1.000  H
  O15      1.0000 0.40381  0.40381  0.14393  Biso   1.000  O
  C48      1.0000 0.35041  0.35041  0.50729  Biso   1.000  C
  H48      1.0000 0.28509  0.34618  0.31295  Biso   1.000  H
  O16      1.0000 0.35479  0.35479  0.59799  Biso   1.000  O
  C49      1.0000 0.81878  0.63980  0.16431  Biso   1.000  C
  N33      1.0000 0.81741  0.62339  0.05778  Biso   1.000  N
  N34      1.0000 0.83778  0.60331  0.23793  Biso   1.000  N
  C50      1.0000 0.86018  0.68120  0.16431  Biso   1.000  C
  H49      1.0000 0.78511  0.65378  0.18697  Biso   1.000  H
  C51      1.0000 0.77448  0.59509  0.01419  Biso   1.000  C
  C52      1.0000 0.85039  0.64959  0.99271  Biso   1.000  C
  C53      1.0000 0.80628  0.56389  0.28159  Biso   1.000  C
  C54      1.0000 0.88120  0.61878  0.28340  Biso   1.000  C
  N35      1.0000 0.87659  0.68261  0.05778  Biso   1.000  N
  N36      1.0000 0.89671  0.66220  0.23793  Biso   1.000  N
  H50      1.0000 0.84620  0.71491  0.18697  Biso   1.000  H
  N37      1.0000 0.77650  0.54131  0.03442  Biso   1.000  N
  H51      1.0000 0.74249  0.60899  0.04390  Biso   1.000  H
  H52      1.0000 0.77349  0.60069  0.93744  Biso   1.000  H
  O17      1.0000 0.85481  0.64521  0.90201  Biso   1.000  O
  N38      1.0000 0.79989  0.52040  0.21261  Biso   1.000  N
  H53      1.0000 0.82148  0.55220  0.34831  Biso   1.000  H
  H54      1.0000 0.77231  0.57840  0.29766  Biso   1.000  H
  O18      1.0000 0.90379  0.59619  0.35607  Biso   1.000  O
  C55      1.0000 0.90489  0.72550  0.01419  Biso   1.000  C
  C56      1.0000 0.93609  0.69370  0.28159  Biso   1.000  C
  C57      1.0000 0.76088  0.51899  0.13162  Biso   1.000  C
  C58      1.0000 0.78031  0.50581  0.95673  Biso   1.000  C
  C59      1.0000 0.81520  0.47301  0.24208  Biso   1.000  C
  N39      1.0000 0.95867  0.72348  0.03442  Biso   1.000  N
  H55      1.0000 0.89099  0.75749  0.04390  Biso   1.000  H
  H56      1.0000 0.89930  0.72649  0.93744  Biso   1.000  H
  N40      1.0000 0.97958  0.70010  0.21261  Biso   1.000  N
  H57      1.0000 0.94778  0.67850  0.34831  Biso   1.000  H
  H58      1.0000 0.92158  0.72771  0.29766  Biso   1.000  H
  C60      1.0000 0.75608  0.46231  0.10568  Biso   1.000  C
  H59      1.0000 0.72790  0.53361  0.15687  Biso   1.000  H
  N41      1.0000 0.77048  0.45961  0.99718  Biso   1.000  N
  O19      1.0000 0.79090  0.51499  0.86453  Biso   1.000  O
  N42      1.0000 0.79200  0.43778  0.17741  Biso   1.000  N
  O20      1.0000 0.84418  0.46220  0.31381  Biso   1.000  O
  C61      1.0000 0.98099  0.73910  0.13162  Biso   1.000  C
  C62      1.0000 0.99421  0.71971  0.95673  Biso   1.000  C
  C63      1.0000 0.02700  0.68478  0.24208  Biso   1.000  C
  H60      1.0000 0.72051  0.44970  0.11689  Biso   1.000  H
  C64      1.0000 0.76088  0.41569  0.93093  Biso   1.000  C
  C65      1.0000 0.79341  0.38419  0.19583  Biso   1.000  C
  H61      1.0000 0.96641  0.77208  0.15687  Biso   1.000  H
  C66      1.0000 0.03771  0.74390  0.10568  Biso   1.000  C
  O21      1.0000 0.98499  0.70908  0.86453  Biso   1.000  O
  N43      1.0000 0.04041  0.72950  0.99718  Biso   1.000  N
  O22      1.0000 0.03778  0.65580  0.31381  Biso   1.000  O
  N44      1.0000 0.06220  0.70798  0.17741  Biso   1.000  N
  N45      1.0000 0.79760  0.37600  0.93830  Biso   1.000  N
  H62      1.0000 0.75928  0.42731  0.85717  Biso   1.000  H
  H63      1.0000 0.72710  0.40149  0.94928  Biso   1.000  H
  N46      1.0000 0.82148  0.35601  0.11767  Biso   1.000  N
  H64      1.0000 0.80891  0.37791  0.26529  Biso   1.000  H
  H65      1.0000 0.75799  0.37109  0.19802  Biso   1.000  H
  H66      1.0000 0.05031  0.77951  0.11689  Biso   1.000  H
  C67      1.0000 0.08429  0.73910  0.93093  Biso   1.000  C
  C68      1.0000 0.11579  0.70661  0.19583  Biso   1.000  C
  C69      1.0000 0.79890  0.33830  0.02030  Biso   1.000  C
  C70      1.0000 0.82990  0.36500  0.85717  Biso   1.000  C
  C71      1.0000 0.86498  0.32988  0.14291  Biso   1.000  C
  N47      1.0000 0.12401  0.70238  0.93830  Biso   1.000  N
  H67      1.0000 0.07271  0.74070  0.85717  Biso   1.000  H
  H68      1.0000 0.09850  0.77288  0.94928  Biso   1.000  H
  N48      1.0000 0.14401  0.67850  0.11767  Biso   1.000  N
  H69      1.0000 0.12211  0.69111  0.26529  Biso   1.000  H
  H70      1.0000 0.12889  0.74199  0.19802  Biso   1.000  H
  H71      1.0000 0.76481  0.32249  0.03191  Biso   1.000  H
  C72      1.0000 0.83828  0.29891  0.97977  Biso   1.000  C
  O23      1.0000 0.83489  0.38979  0.77728  Biso   1.000  O
  N49      1.0000 0.85599  0.32150  0.88233  Biso   1.000  N
  O24      1.0000 0.88981  0.33491  0.22280  Biso   1.000  O
  N50      1.0000 0.87599  0.29758  0.06170  Biso   1.000  N
  C73      1.0000 0.13498  0.67008  0.85717  Biso   1.000  C
  C74      1.0000 0.16168  0.70109  0.02030  Biso   1.000  C
  C75      1.0000 0.17010  0.63500  0.14291  Biso   1.000  C
  H72      1.0000 0.82251  0.26479  0.96817  Biso   1.000  H
  C76      1.0000 0.88417  0.29339  0.80425  Biso   1.000  C
  C77      1.0000 0.91571  0.26090  0.06907  Biso   1.000  C
  O25      1.0000 0.11019  0.66509  0.77728  Biso   1.000  O
  N51      1.0000 0.17848  0.64399  0.88233  Biso   1.000  N
  C78      1.0000 0.20110  0.66170  0.97977  Biso   1.000  C
  H73      1.0000 0.17749  0.73521  0.03191  Biso   1.000  H
  O26      1.0000 0.16511  0.61021  0.22280  Biso   1.000  O
  N52      1.0000 0.20240  0.62400  0.06170  Biso   1.000  N
  N53      1.0000 0.93780  0.29198  0.82267  Biso   1.000  N
  H74      1.0000 0.87789  0.30889  0.73471  Biso   1.000  H
  H75      1.0000 0.87111  0.25801  0.80205  Biso   1.000  H
  N54      1.0000 0.95959  0.27050  0.00290  Biso   1.000  N
  H76      1.0000 0.92729  0.25930  0.14291  Biso   1.000  H
  H77      1.0000 0.90150  0.22708  0.05080  Biso   1.000  H
  C79      1.0000 0.20659  0.61581  0.80425  Biso   1.000  C
  H78      1.0000 0.23519  0.67751  0.96817  Biso   1.000  H
  C80      1.0000 0.23912  0.58431  0.06907  Biso   1.000  C
  C81      1.0000 0.96229  0.25610  0.89432  Biso   1.000  C
  C82      1.0000 0.97300  0.31522  0.75792  Biso   1.000  C
  C83      1.0000 0.00579  0.28029  0.04327  Biso   1.000  C
  N55      1.0000 0.20800  0.56218  0.82267  Biso   1.000  N
  H79      1.0000 0.19109  0.62209  0.73471  Biso   1.000  H
  H80      1.0000 0.24201  0.62891  0.80205  Biso   1.000  H
  N56      1.0000 0.22948  0.54039  0.00290  Biso   1.000  N
  H81      1.0000 0.24072  0.57269  0.14291  Biso   1.000  H
  H82      1.0000 0.27290  0.59848  0.05080  Biso   1.000  H
  H83      1.0000 0.94969  0.22049  0.88311  Biso   1.000  H
  C84      1.0000 0.01901  0.26090  0.86845  Biso   1.000  C
  O27      1.0000 0.96218  0.34420  0.68627  Biso   1.000  O
  N57      1.0000 0.02042  0.29990  0.78747  Biso   1.000  N
  N58      1.0000 0.04129  0.27648  0.96566  Biso   1.000  N
  O28      1.0000 0.01501  0.29092  0.13547  Biso   1.000  O
  C85      1.0000 0.18480  0.52699  0.75792  Biso   1.000  C
  C86      1.0000 0.24392  0.53769  0.89432  Biso   1.000  C
  C87      1.0000 0.21969  0.49419  0.04327  Biso   1.000  C
  H84      1.0000 0.03359  0.22788  0.84313  Biso   1.000  H
  C88      1.0000 0.06391  0.30630  0.71849  Biso   1.000  C
  C89      1.0000 0.09511  0.27450  0.98581  Biso   1.000  C
  N59      1.0000 0.20011  0.47960  0.78747  Biso   1.000  N
  O29      1.0000 0.15578  0.53780  0.68627  Biso   1.000  O
  C90      1.0000 0.23912  0.48101  0.86845  Biso   1.000  C
  H85      1.0000 0.27949  0.55030  0.88311  Biso   1.000  H
  N60      1.0000 0.22350  0.45869  0.96566  Biso   1.000  N
  O30      1.0000 0.20910  0.48501  0.13547  Biso   1.000  O
  N61      1.0000 0.10329  0.33780  0.76215  Biso   1.000  N
  H86      1.0000 0.05222  0.32150  0.65177  Biso   1.000  H
  H87      1.0000 0.07839  0.27229  0.70234  Biso   1.000  H
  N62      1.0000 0.12341  0.31739  0.94222  Biso   1.000  N
  H88      1.0000 0.10901  0.24251  0.95618  Biso   1.000  H
  H89      1.0000 0.10070  0.27351  0.06256  Biso   1.000  H
  C91      1.0000 0.19372  0.43611  0.71849  Biso   1.000  C
  H90      1.0000 0.27210  0.46639  0.84313  Biso   1.000  H
  C92      1.0000 0.22548  0.40491  0.98581  Biso   1.000  C
  C93      1.0000 0.13978  0.31880  0.83576  Biso   1.000  C
  C94      1.0000 0.11880  0.38118  0.71668  Biso   1.000  C
  C95      1.0000 0.14961  0.35041  0.00729  Biso   1.000  C
  N63      1.0000 0.16222  0.39669  0.76215  Biso   1.000  N
  H91      1.0000 0.17848  0.44780  0.65177  Biso   1.000  H
  H92      1.0000 0.22769  0.42160  0.70234  Biso   1.000  H
  N64      1.0000 0.18259  0.37661  0.94222  Biso   1.000  N
  H93      1.0000 0.25751  0.39101  0.95618  Biso   1.000  H
  H94      1.0000 0.22651  0.39931  0.06256  Biso   1.000  H
  C96      1.0000 0.18118  0.36020  0.83576  Biso   1.000  C
  H95      1.0000 0.15380  0.28509  0.81303  Biso   1.000  H
  O31      1.0000 0.09621  0.40381  0.64393  Biso   1.000  O
  O32      1.0000 0.14519  0.35479  0.09799  Biso   1.000  O
  H96      1.0000 0.21489  0.34618  0.81303  Biso   1.000  H
  C97      1.0000 0.63980  0.81878  0.16431  Biso   1.000  C
  N65      1.0000 0.62339  0.81741  0.05778  Biso   1.000  N
  N66      1.0000 0.60331  0.83778  0.23793  Biso   1.000  N
  C98      1.0000 0.68120  0.86018  0.16431  Biso   1.000  C
  H97      1.0000 0.65378  0.78511  0.18697  Biso   1.000  H
  C99      1.0000 0.59509  0.77448  0.01419  Biso   1.000  C
  C100     1.0000 0.64959  0.85039  0.99271  Biso   1.000  C
  C101     1.0000 0.56389  0.80628  0.28159  Biso   1.000  C
  C102     1.0000 0.61878  0.88120  0.28340  Biso   1.000  C
  N67      1.0000 0.68261  0.87659  0.05778  Biso   1.000  N
  N68      1.0000 0.66220  0.89671  0.23793  Biso   1.000  N
  H98      1.0000 0.71491  0.84620  0.18697  Biso   1.000  H
  N69      1.0000 0.54131  0.77650  0.03442  Biso   1.000  N
  H99      1.0000 0.60899  0.74249  0.04390  Biso   1.000  H
  H100     1.0000 0.60069  0.77349  0.93744  Biso   1.000  H
  O33      1.0000 0.64521  0.85481  0.90201  Biso   1.000  O
  N70      1.0000 0.52040  0.79989  0.21261  Biso   1.000  N
  H101     1.0000 0.55220  0.82148  0.34831  Biso   1.000  H
  H102     1.0000 0.57840  0.77231  0.29766  Biso   1.000  H
  O34      1.0000 0.59619  0.90379  0.35607  Biso   1.000  O
  C103     1.0000 0.72550  0.90489  0.01419  Biso   1.000  C
  C104     1.0000 0.69370  0.93609  0.28159  Biso   1.000  C
  C105     1.0000 0.51899  0.76088  0.13162  Biso   1.000  C
  C106     1.0000 0.50581  0.78031  0.95673  Biso   1.000  C
  C107     1.0000 0.47301  0.81520  0.24208  Biso   1.000  C
  N71      1.0000 0.72348  0.95867  0.03442  Biso   1.000  N
  H103     1.0000 0.75749  0.89099  0.04390  Biso   1.000  H
  H104     1.0000 0.72649  0.89930  0.93744  Biso   1.000  H
  N72      1.0000 0.70010  0.97958  0.21261  Biso   1.000  N
  H105     1.0000 0.67850  0.94778  0.34831  Biso   1.000  H
  H106     1.0000 0.72771  0.92158  0.29766  Biso   1.000  H
  C108     1.0000 0.46231  0.75608  0.10568  Biso   1.000  C
  H107     1.0000 0.53361  0.72790  0.15687  Biso   1.000  H
  N73      1.0000 0.45961  0.77048  0.99718  Biso   1.000  N
  O35      1.0000 0.51499  0.79090  0.86453  Biso   1.000  O
  N74      1.0000 0.43778  0.79200  0.17741  Biso   1.000  N
  O36      1.0000 0.46220  0.84418  0.31381  Biso   1.000  O
  C109     1.0000 0.73910  0.98099  0.13162  Biso   1.000  C
  C110     1.0000 0.71971  0.99421  0.95673  Biso   1.000  C
  C111     1.0000 0.68478  0.02700  0.24208  Biso   1.000  C
  H108     1.0000 0.44970  0.72051  0.11689  Biso   1.000  H
  C112     1.0000 0.41569  0.76088  0.93093  Biso   1.000  C
  C113     1.0000 0.38419  0.79341  0.19583  Biso   1.000  C
  H109     1.0000 0.77208  0.96641  0.15687  Biso   1.000  H
  C114     1.0000 0.74390  0.03771  0.10568  Biso   1.000  C
  O37      1.0000 0.70908  0.98499  0.86453  Biso   1.000  O
  N75      1.0000 0.72950  0.04041  0.99718  Biso   1.000  N
  O38      1.0000 0.65580  0.03778  0.31381  Biso   1.000  O
  N76      1.0000 0.70798  0.06220  0.17741  Biso   1.000  N
  N77      1.0000 0.37600  0.79760  0.93830  Biso   1.000  N
  H110     1.0000 0.42731  0.75928  0.85717  Biso   1.000  H
  H111     1.0000 0.40149  0.72710  0.94928  Biso   1.000  H
  N78      1.0000 0.35601  0.82148  0.11767  Biso   1.000  N
  H112     1.0000 0.37791  0.80891  0.26529  Biso   1.000  H
  H113     1.0000 0.37109  0.75799  0.19802  Biso   1.000  H
  H114     1.0000 0.77951  0.05031  0.11689  Biso   1.000  H
  C115     1.0000 0.73910  0.08429  0.93093  Biso   1.000  C
  C116     1.0000 0.70661  0.11579  0.19583  Biso   1.000  C
  C117     1.0000 0.33830  0.79890  0.02030  Biso   1.000  C
  C118     1.0000 0.36500  0.82990  0.85717  Biso   1.000  C
  C119     1.0000 0.32988  0.86498  0.14291  Biso   1.000  C
  N79      1.0000 0.70238  0.12401  0.93830  Biso   1.000  N
  H115     1.0000 0.74070  0.07271  0.85717  Biso   1.000  H
  H116     1.0000 0.77288  0.09850  0.94928  Biso   1.000  H
  N80      1.0000 0.67850  0.14401  0.11767  Biso   1.000  N
  H117     1.0000 0.69111  0.12211  0.26529  Biso   1.000  H
  H118     1.0000 0.74199  0.12889  0.19802  Biso   1.000  H
  H119     1.0000 0.32249  0.76481  0.03191  Biso   1.000  H
  C120     1.0000 0.29891  0.83828  0.97977  Biso   1.000  C
  O39      1.0000 0.38979  0.83489  0.77728  Biso   1.000  O
  N81      1.0000 0.32150  0.85599  0.88233  Biso   1.000  N
  O40      1.0000 0.33491  0.88981  0.22280  Biso   1.000  O
  N82      1.0000 0.29758  0.87599  0.06170  Biso   1.000  N
  C121     1.0000 0.67008  0.13498  0.85717  Biso   1.000  C
  C122     1.0000 0.70109  0.16168  0.02030  Biso   1.000  C
  C123     1.0000 0.63500  0.17010  0.14291  Biso   1.000  C
  H120     1.0000 0.26479  0.82251  0.96817  Biso   1.000  H
  C124     1.0000 0.29339  0.88417  0.80425  Biso   1.000  C
  C125     1.0000 0.26090  0.91571  0.06907  Biso   1.000  C
  O41      1.0000 0.66509  0.11019  0.77728  Biso   1.000  O
  N83      1.0000 0.64399  0.17848  0.88233  Biso   1.000  N
  C126     1.0000 0.66170  0.20110  0.97977  Biso   1.000  C
  H121     1.0000 0.73521  0.17749  0.03191  Biso   1.000  H
  O42      1.0000 0.61021  0.16511  0.22280  Biso   1.000  O
  N84      1.0000 0.62400  0.20240  0.06170  Biso   1.000  N
  N85      1.0000 0.29198  0.93780  0.82267  Biso   1.000  N
  H122     1.0000 0.30889  0.87789  0.73471  Biso   1.000  H
  H123     1.0000 0.25801  0.87111  0.80205  Biso   1.000  H
  N86      1.0000 0.27050  0.95959  0.00290  Biso   1.000  N
  H124     1.0000 0.25930  0.92729  0.14291  Biso   1.000  H
  H125     1.0000 0.22708  0.90150  0.05080  Biso   1.000  H
  C127     1.0000 0.61581  0.20659  0.80425  Biso   1.000  C
  H126     1.0000 0.67751  0.23519  0.96817  Biso   1.000  H
  C128     1.0000 0.58431  0.23912  0.06907  Biso   1.000  C
  C129     1.0000 0.25610  0.96229  0.89432  Biso   1.000  C
  C130     1.0000 0.31522  0.97300  0.75792  Biso   1.000  C
  C131     1.0000 0.28029  0.00579  0.04327  Biso   1.000  C
  N87      1.0000 0.56218  0.20800  0.82267  Biso   1.000  N
  H127     1.0000 0.62209  0.19109  0.73471  Biso   1.000  H
  H128     1.0000 0.62891  0.24201  0.80205  Biso   1.000  H
  N88      1.0000 0.54039  0.22948  0.00290  Biso   1.000  N
  H129     1.0000 0.57269  0.24072  0.14291  Biso   1.000  H
  H130     1.0000 0.59848  0.27290  0.05080  Biso   1.000  H
  H131     1.0000 0.22049  0.94969  0.88311  Biso   1.000  H
  C132     1.0000 0.26090  0.01901  0.86845  Biso   1.000  C
  O43      1.0000 0.34420  0.96218  0.68627  Biso   1.000  O
  N89      1.0000 0.29990  0.02042  0.78747  Biso   1.000  N
  N90      1.0000 0.27648  0.04129  0.96566  Biso   1.000  N
  O44      1.0000 0.29092  0.01501  0.13547  Biso   1.000  O
  C133     1.0000 0.52699  0.18480  0.75792  Biso   1.000  C
  C134     1.0000 0.53769  0.24392  0.89432  Biso   1.000  C
  C135     1.0000 0.49419  0.21969  0.04327  Biso   1.000  C
  H132     1.0000 0.22788  0.03359  0.84313  Biso   1.000  H
  C136     1.0000 0.30630  0.06391  0.71849  Biso   1.000  C
  C137     1.0000 0.27450  0.09511  0.98581  Biso   1.000  C
  N91      1.0000 0.47960  0.20011  0.78747  Biso   1.000  N
  O45      1.0000 0.53780  0.15578  0.68627  Biso   1.000  O
  C138     1.0000 0.48101  0.23912  0.86845  Biso   1.000  C
  H133     1.0000 0.55030  0.27949  0.88311  Biso   1.000  H
  N92      1.0000 0.45869  0.22350  0.96566  Biso   1.000  N
  O46      1.0000 0.48501  0.20910  0.13547  Biso   1.000  O
  N93      1.0000 0.33780  0.10329  0.76215  Biso   1.000  N
  H134     1.0000 0.32150  0.05222  0.65177  Biso   1.000  H
  H135     1.0000 0.27229  0.07839  0.70234  Biso   1.000  H
  N94      1.0000 0.31739  0.12341  0.94222  Biso   1.000  N
  H136     1.0000 0.24251  0.10901  0.95618  Biso   1.000  H
  H137     1.0000 0.27351  0.10070  0.06256  Biso   1.000  H
  C139     1.0000 0.43611  0.19372  0.71849  Biso   1.000  C
  H138     1.0000 0.46639  0.27210  0.84313  Biso   1.000  H
  C140     1.0000 0.40491  0.22548  0.98581  Biso   1.000  C
  C141     1.0000 0.31880  0.13978  0.83576  Biso   1.000  C
  C142     1.0000 0.38118  0.11880  0.71668  Biso   1.000  C
  C143     1.0000 0.35041  0.14961  0.00729  Biso   1.000  C
  N95      1.0000 0.39669  0.16222  0.76215  Biso   1.000  N
  H139     1.0000 0.44780  0.17848  0.65177  Biso   1.000  H
  H140     1.0000 0.42160  0.22769  0.70234  Biso   1.000  H
  N96      1.0000 0.37661  0.18259  0.94222  Biso   1.000  N
  H141     1.0000 0.39101  0.25751  0.95618  Biso   1.000  H
  H142     1.0000 0.39931  0.22651  0.06256  Biso   1.000  H
  C144     1.0000 0.36020  0.18118  0.83576  Biso   1.000  C
  H143     1.0000 0.28509  0.15380  0.81303  Biso   1.000  H
  O47      1.0000 0.40381  0.09621  0.64393  Biso   1.000  O
  O48      1.0000 0.35479  0.14519  0.09799  Biso   1.000  O
  H144     1.0000 0.34618  0.21489  0.81303  Biso   1.000  H
  O49      1.0000 0.85481  0.85481  0.40201  Biso   1.000  O
  C145     1.0000 0.85039  0.85039  0.49271  Biso   1.000  C
  N97      1.0000 0.87659  0.81741  0.55778  Biso   1.000  N
  N98      1.0000 0.81741  0.87659  0.55778  Biso   1.000  N
  C146     1.0000 0.90489  0.77448  0.51419  Biso   1.000  C
  C147     1.0000 0.86018  0.81878  0.66424  Biso   1.000  C
  C148     1.0000 0.81878  0.86018  0.66424  Biso   1.000  C
  C149     1.0000 0.77448  0.90489  0.51419  Biso   1.000  C
  N99      1.0000 0.95867  0.77650  0.53442  Biso   1.000  N
  H145     1.0000 0.89930  0.77349  0.43736  Biso   1.000  H
  H146     1.0000 0.89099  0.74249  0.54390  Biso   1.000  H
  N100     1.0000 0.89671  0.83778  0.73785  Biso   1.000  N
  H147     1.0000 0.84620  0.78511  0.68697  Biso   1.000  H
  N101     1.0000 0.83778  0.89671  0.73785  Biso   1.000  N
  H148     1.0000 0.78511  0.84620  0.68697  Biso   1.000  H
  N102     1.0000 0.77650  0.95867  0.53442  Biso   1.000  N
  H149     1.0000 0.77349  0.89930  0.43736  Biso   1.000  H
  H150     1.0000 0.74249  0.89099  0.54390  Biso   1.000  H
  C150     1.0000 0.99421  0.78031  0.45665  Biso   1.000  C
  C151     1.0000 0.98099  0.76088  0.63155  Biso   1.000  C
  C152     1.0000 0.93609  0.80628  0.78159  Biso   1.000  C
  C153     1.0000 0.88120  0.88120  0.78340  Biso   1.000  C
  C154     1.0000 0.80628  0.93609  0.78159  Biso   1.000  C
  C155     1.0000 0.78031  0.99421  0.45665  Biso   1.000  C
  C156     1.0000 0.76088  0.98099  0.63155  Biso   1.000  C
  O50      1.0000 0.98499  0.79090  0.36446  Biso   1.000  O
  N103     1.0000 0.04041  0.77048  0.49710  Biso   1.000  N
  N104     1.0000 0.97958  0.79989  0.71261  Biso   1.000  N
  H151     1.0000 0.96641  0.72790  0.65687  Biso   1.000  H
  C157     1.0000 0.03771  0.75608  0.60568  Biso   1.000  C
  H152     1.0000 0.94778  0.82148  0.84823  Biso   1.000  H
  H153     1.0000 0.92158  0.77231  0.79766  Biso   1.000  H
  O51      1.0000 0.90379  0.90379  0.85607  Biso   1.000  O
  N105     1.0000 0.79989  0.97958  0.71261  Biso   1.000  N
  H154     1.0000 0.82148  0.94778  0.84823  Biso   1.000  H
  H155     1.0000 0.77231  0.92158  0.79766  Biso   1.000  H
  O52      1.0000 0.79090  0.98499  0.36446  Biso   1.000  O
  N106     1.0000 0.77048  0.04041  0.49710  Biso   1.000  N
  H156     1.0000 0.72790  0.96641  0.65687  Biso   1.000  H
  C158     1.0000 0.75608  0.03771  0.60568  Biso   1.000  C
  C159     1.0000 0.08429  0.76088  0.43086  Biso   1.000  C
  C160     1.0000 0.02700  0.81520  0.74208  Biso   1.000  C
  N107     1.0000 0.06220  0.79200  0.67741  Biso   1.000  N
  H157     1.0000 0.05031  0.72051  0.61689  Biso   1.000  H
  C161     1.0000 0.81520  0.02700  0.74208  Biso   1.000  C
  C162     1.0000 0.76088  0.08429  0.43086  Biso   1.000  C
  N108     1.0000 0.79200  0.06220  0.67741  Biso   1.000  N
  H158     1.0000 0.72051  0.05031  0.61689  Biso   1.000  H
  N109     1.0000 0.12401  0.79760  0.43830  Biso   1.000  N
  H159     1.0000 0.07271  0.75928  0.35709  Biso   1.000  H
  H160     1.0000 0.09850  0.72710  0.44920  Biso   1.000  H
  O53      1.0000 0.03778  0.84418  0.81373  Biso   1.000  O
  C163     1.0000 0.11579  0.79341  0.69575  Biso   1.000  C
  O54      1.0000 0.84418  0.03778  0.81373  Biso   1.000  O
  N110     1.0000 0.79760  0.12401  0.43830  Biso   1.000  N
  H161     1.0000 0.75928  0.07271  0.35709  Biso   1.000  H
  H162     1.0000 0.72710  0.09850  0.44920  Biso   1.000  H
  C164     1.0000 0.79341  0.11579  0.69575  Biso   1.000  C
  C165     1.0000 0.13498  0.82990  0.35709  Biso   1.000  C
  C166     1.0000 0.16168  0.79890  0.52030  Biso   1.000  C
  N111     1.0000 0.14401  0.82148  0.61767  Biso   1.000  N
  H163     1.0000 0.12211  0.80891  0.76529  Biso   1.000  H
  H164     1.0000 0.12889  0.75799  0.69795  Biso   1.000  H
  C167     1.0000 0.82990  0.13498  0.35709  Biso   1.000  C
  C168     1.0000 0.79890  0.16168  0.52030  Biso   1.000  C
  N112     1.0000 0.82148  0.14401  0.61767  Biso   1.000  N
  H165     1.0000 0.80891  0.12211  0.76529  Biso   1.000  H
  H166     1.0000 0.75799  0.12889  0.69795  Biso   1.000  H
  O55      1.0000 0.11019  0.83489  0.27720  Biso   1.000  O
  N113     1.0000 0.17848  0.85599  0.38225  Biso   1.000  N
  C169     1.0000 0.20110  0.83828  0.47970  Biso   1.000  C
  H167     1.0000 0.17749  0.76481  0.53191  Biso   1.000  H
  C170     1.0000 0.17010  0.86498  0.64291  Biso   1.000  C
  O56      1.0000 0.83489  0.11019  0.27720  Biso   1.000  O
  N114     1.0000 0.85599  0.17848  0.38225  Biso   1.000  N
  C171     1.0000 0.83828  0.20110  0.47970  Biso   1.000  C
  H168     1.0000 0.76481  0.17749  0.53191  Biso   1.000  H
  C172     1.0000 0.86498  0.17010  0.64291  Biso   1.000  C
  C173     1.0000 0.20659  0.88417  0.30417  Biso   1.000  C
  N115     1.0000 0.20240  0.87599  0.56170  Biso   1.000  N
  H169     1.0000 0.23519  0.82251  0.46809  Biso   1.000  H
  O57      1.0000 0.16511  0.88981  0.72280  Biso   1.000  O
  C174     1.0000 0.88417  0.20659  0.30417  Biso   1.000  C
  N116     1.0000 0.87599  0.20240  0.56170  Biso   1.000  N
  H170     1.0000 0.82251  0.23519  0.46809  Biso   1.000  H
  O58      1.0000 0.88981  0.16511  0.72280  Biso   1.000  O
  N117     1.0000 0.20800  0.93780  0.32259  Biso   1.000  N
  H171     1.0000 0.19109  0.87789  0.23471  Biso   1.000  H
  H172     1.0000 0.24201  0.87111  0.30198  Biso   1.000  H
  C175     1.0000 0.23912  0.91571  0.56907  Biso   1.000  C
  N118     1.0000 0.93780  0.20800  0.32259  Biso   1.000  N
  H173     1.0000 0.87789  0.19109  0.23471  Biso   1.000  H
  H174     1.0000 0.87111  0.24201  0.30198  Biso   1.000  H
  C176     1.0000 0.91571  0.23912  0.56907  Biso   1.000  C
  C177     1.0000 0.18480  0.97300  0.25792  Biso   1.000  C
  C178     1.0000 0.24392  0.96229  0.39425  Biso   1.000  C
  N119     1.0000 0.22948  0.95959  0.50290  Biso   1.000  N
  H175     1.0000 0.24072  0.92729  0.64291  Biso   1.000  H
  H176     1.0000 0.27290  0.90150  0.55080  Biso   1.000  H
  C179     1.0000 0.97300  0.18480  0.25792  Biso   1.000  C
  C180     1.0000 0.96229  0.24392  0.39425  Biso   1.000  C
  N120     1.0000 0.95959  0.22948  0.50290  Biso   1.000  N
  H177     1.0000 0.92729  0.24072  0.64291  Biso   1.000  H
  H178     1.0000 0.90150  0.27290  0.55080  Biso   1.000  H
  O59      1.0000 0.15578  0.96218  0.18619  Biso   1.000  O
  N121     1.0000 0.20011  0.02042  0.28739  Biso   1.000  N
  H179     1.0000 0.27949  0.94969  0.38311  Biso   1.000  H
  C181     1.0000 0.23912  0.01901  0.36838  Biso   1.000  C
  C182     1.0000 0.21969  0.00579  0.54327  Biso   1.000  C
  O60      1.0000 0.96218  0.15578  0.18619  Biso   1.000  O
  N122     1.0000 0.02042  0.20011  0.28739  Biso   1.000  N
  H180     1.0000 0.94969  0.27949  0.38311  Biso   1.000  H
  C183     1.0000 0.01901  0.23912  0.36838  Biso   1.000  C
  C184     1.0000 0.00579  0.21969  0.54327  Biso   1.000  C
  C185     1.0000 0.19372  0.06391  0.21841  Biso   1.000  C
  N123     1.0000 0.22350  0.04129  0.46558  Biso   1.000  N
  H181     1.0000 0.27210  0.03359  0.34305  Biso   1.000  H
  O61      1.0000 0.20910  0.01501  0.63547  Biso   1.000  O
  C186     1.0000 0.06391  0.19372  0.21841  Biso   1.000  C
  N124     1.0000 0.04129  0.22350  0.46558  Biso   1.000  N
  H182     1.0000 0.03359  0.27210  0.34305  Biso   1.000  H
  O62      1.0000 0.01501  0.20910  0.63547  Biso   1.000  O
  N125     1.0000 0.16222  0.10329  0.26207  Biso   1.000  N
  H183     1.0000 0.17848  0.05222  0.15169  Biso   1.000  H
  H184     1.0000 0.22769  0.07839  0.20226  Biso   1.000  H
  C187     1.0000 0.22548  0.09511  0.48581  Biso   1.000  C
  N126     1.0000 0.10329  0.16222  0.26207  Biso   1.000  N
  H185     1.0000 0.05222  0.17848  0.15169  Biso   1.000  H
  H186     1.0000 0.07839  0.22769  0.20226  Biso   1.000  H
  C188     1.0000 0.09511  0.22548  0.48581  Biso   1.000  C
  C189     1.0000 0.11880  0.11880  0.21660  Biso   1.000  C
  C190     1.0000 0.18118  0.13978  0.33569  Biso   1.000  C
  N127     1.0000 0.18259  0.12341  0.44214  Biso   1.000  N
  H187     1.0000 0.22651  0.10070  0.56256  Biso   1.000  H
  H188     1.0000 0.25751  0.10901  0.45610  Biso   1.000  H
  C191     1.0000 0.13978  0.18118  0.33569  Biso   1.000  C
  N128     1.0000 0.12341  0.18259  0.44214  Biso   1.000  N
  H189     1.0000 0.10070  0.22651  0.56256  Biso   1.000  H
  H190     1.0000 0.10901  0.25751  0.45610  Biso   1.000  H
  O63      1.0000 0.09621  0.09621  0.14393  Biso   1.000  O
  H191     1.0000 0.21489  0.15380  0.31295  Biso   1.000  H
  C192     1.0000 0.14961  0.14961  0.50729  Biso   1.000  C
  H192     1.0000 0.15380  0.21489  0.31295  Biso   1.000  H
  O64      1.0000 0.14519  0.14519  0.59799  Biso   1.000  O
