data_image0
_cell_length_a       11.355
_cell_length_b       11.525
_cell_length_c       16.09
_cell_angle_alpha    79.95
_cell_angle_beta     84.34
_cell_angle_gamma    88.91

_symmetry_space_group_name_H-M    "P 1"
_symmetry_int_tables_number       1

loop_
  _symmetry_equiv_pos_as_xyz
  'x, y, z'

loop_
  _atom_site_label
  _atom_site_occupancy
  _atom_site_fract_x
  _atom_site_fract_y
  _atom_site_fract_z
  _atom_site_thermal_displace_type
  _atom_site_B_iso_or_equiv
  _atom_site_type_symbol
  O1       1.0000 0.37155  0.48135  0.52966  Biso   1.000  O
  C1       1.0000 0.25904  0.45161  0.50829  Biso   1.000  C
  C2       1.0000 0.37248  0.58896  0.56168  Biso   1.000  C
  C3       1.0000 0.26696  0.33429  0.48235  Biso   1.000  C
  H1       1.0000 0.20069  0.44981  0.55680  Biso   1.000  H
  H2       1.0000 0.23466  0.51017  0.46231  Biso   1.000  H
  H3       1.0000 0.45153  0.62196  0.55046  Biso   1.000  H
  H4       1.0000 0.31940  0.64459  0.53181  Biso   1.000  H
  C4       1.0000 0.33572  0.57371  0.65484  Biso   1.000  C
  O2       1.0000 0.28681  0.24670  0.55337  Biso   1.000  O
  H5       1.0000 0.33137  0.33368  0.43808  Biso   1.000  H
  H6       1.0000 0.19406  0.31766  0.45990  Biso   1.000  H
  O3       1.0000 0.42983  0.51466  0.69854  Biso   1.000  O
  H7       1.0000 0.26379  0.52733  0.66867  Biso   1.000  H
  H8       1.0000 0.32054  0.64994  0.67158  Biso   1.000  H
  C5       1.0000 0.28647  0.13212  0.53257  Biso   1.000  C
  C6       1.0000 0.40889  0.48350  0.78459  Biso   1.000  C
  C7       1.0000 0.29680  0.04218  0.60975  Biso   1.000  C
  H9       1.0000 0.21364  0.11998  0.50841  Biso   1.000  H
  H10      1.0000 0.35220  0.12411  0.49059  Biso   1.000  H
  C8       1.0000 0.50970  0.45151  0.82765  Biso   1.000  C
  C9       1.0000 0.29838  0.47853  0.82930  Biso   1.000  C
  O4       1.0000 0.41778  0.03455  0.62986  Biso   1.000  O
  H11      1.0000 0.24621  0.06354  0.65687  Biso   1.000  H
  H12      1.0000 0.27125  0.96622  0.60011  Biso   1.000  H
  O5       1.0000 0.61507  0.46063  0.77755  Biso   1.000  O
  C10      1.0000 0.49608  0.41396  0.91390  Biso   1.000  C
  H13      1.0000 0.23202  0.50070  0.80070  Biso   1.000  H
  C11      1.0000 0.28505  0.44054  0.91669  Biso   1.000  C
  C12      1.0000 0.44091  0.94825  0.69625  Biso   1.000  C
  C13      1.0000 0.72032  0.43951  0.81947  Biso   1.000  C
  C14      1.0000 0.38395  0.40838  0.95829  Biso   1.000  C
  H14      1.0000 0.56220  0.39222  0.94288  Biso   1.000  H
  C15      1.0000 0.16319  0.43543  0.96451  Biso   1.000  C
  C16      1.0000 0.35470  0.88713  0.75250  Biso   1.000  C
  C17      1.0000 0.56128  0.92471  0.70716  Biso   1.000  C
  C18      1.0000 0.82439  0.45227  0.75358  Biso   1.000  C
  H15      1.0000 0.72609  0.49562  0.85739  Biso   1.000  H
  H16      1.0000 0.71867  0.36072  0.85289  Biso   1.000  H
  H17      1.0000 0.37594  0.38250  0.01670  Biso   1.000  H
  H18      1.0000 0.10395  0.45084  0.92436  Biso   1.000  H
  H19      1.0000 0.15641  0.49606  0.99958  Biso   1.000  H
  O6       1.0000 0.14122  0.32043  0.01784  Biso   1.000  O
  C19      1.0000 0.38499  0.80230  0.82036  Biso   1.000  C
  H20      1.0000 0.27537  0.90260  0.74521  Biso   1.000  H
  O7       1.0000 0.64066  0.99535  0.65243  Biso   1.000  O
  C20      1.0000 0.59058  0.83583  0.77127  Biso   1.000  C
  O8       1.0000 0.82002  0.36108  0.70488  Biso   1.000  O
  H21      1.0000 0.89742  0.44687  0.78066  Biso   1.000  H
  H22      1.0000 0.82204  0.52859  0.71705  Biso   1.000  H
  C21      1.0000 0.13112  0.23242  0.97434  Biso   1.000  C
  C22      1.0000 0.28956  0.74841  0.88549  Biso   1.000  C
  C23      1.0000 0.50246  0.77611  0.82784  Biso   1.000  C
  C24      1.0000 0.76394  0.96685  0.65833  Biso   1.000  C
  H23      1.0000 0.66957  0.81589  0.77660  Biso   1.000  H
  C25      1.0000 0.93036  0.33935  0.66004  Biso   1.000  C
  O9       1.0000 0.13480  0.24510  0.89836  Biso   1.000  O
  C26      1.0000 0.11614  0.11529  0.03217  Biso   1.000  C
  O10      1.0000 0.24656  0.84327  0.93121  Biso   1.000  O
  H24      1.0000 0.32058  0.68342  0.92398  Biso   1.000  H
  H25      1.0000 0.22598  0.71931  0.85860  Biso   1.000  H
  H26      1.0000 0.52329  0.71751  0.87147  Biso   1.000  H
  C27      1.0000 0.83665  0.06305  0.60309  Biso   1.000  C
  H27      1.0000 0.78208  0.95990  0.71667  Biso   1.000  H
  H28      1.0000 0.78179  0.89224  0.63988  Biso   1.000  H
  C28      1.0000 0.91106  0.25418  0.60259  Biso   1.000  C
  H29      1.0000 0.96244  0.41256  0.62707  Biso   1.000  H
  H30      1.0000 0.98638  0.30697  0.69968  Biso   1.000  H
  N1       1.0000 0.14882  0.02284  0.99450  Biso   1.000  N
  C29      1.0000 0.06971  0.10408  0.11645  Biso   1.000  C
  C30      1.0000 0.17124  0.81168  0.99996  Biso   1.000  C
  O11      1.0000 0.85328  0.15297  0.65129  Biso   1.000  O
  H31      1.0000 0.79644  0.09492  0.55369  Biso   1.000  H
  H32      1.0000 0.91274  0.03206  0.58407  Biso   1.000  H
  H33      1.0000 0.98639  0.23201  0.57576  Biso   1.000  H
  H34      1.0000 0.86279  0.29031  0.55857  Biso   1.000  H
  C31      1.0000 0.13325  0.91574  0.04130  Biso   1.000  C
  C32      1.0000 0.05309  0.99178  0.16325  Biso   1.000  C
  H35      1.0000 0.05033  0.17026  0.14074  Biso   1.000  H
  O12      1.0000 0.13902  0.71218  0.02748  Biso   1.000  O
  C33      1.0000 0.08456  0.89548  0.12533  Biso   1.000  C
  H36      1.0000 0.02113  0.98126  0.21950  Biso   1.000  H
  H37      1.0000 0.07350  0.81913  0.15514  Biso   1.000  H
  O13      1.0000 0.62843  0.51873  0.47036  Biso   1.000  O
  C34      1.0000 0.62751  0.41113  0.43827  Biso   1.000  C
  C35      1.0000 0.74096  0.54839  0.49167  Biso   1.000  C
  C36      1.0000 0.66427  0.42637  0.34518  Biso   1.000  C
  H38      1.0000 0.54846  0.37814  0.44950  Biso   1.000  H
  H39      1.0000 0.68059  0.35540  0.46821  Biso   1.000  H
  C37      1.0000 0.73303  0.66570  0.51767  Biso   1.000  C
  H40      1.0000 0.79930  0.55018  0.44322  Biso   1.000  H
  H41      1.0000 0.76533  0.48982  0.53771  Biso   1.000  H
  O14      1.0000 0.57017  0.48535  0.30142  Biso   1.000  O
  H42      1.0000 0.73621  0.47268  0.33129  Biso   1.000  H
  H43      1.0000 0.67945  0.35015  0.32837  Biso   1.000  H
  O15      1.0000 0.71317  0.75338  0.44664  Biso   1.000  O
  H44      1.0000 0.66863  0.66633  0.56187  Biso   1.000  H
  H45      1.0000 0.80593  0.68244  0.54006  Biso   1.000  H
  C38      1.0000 0.59111  0.51651  0.21536  Biso   1.000  C
  C39      1.0000 0.71352  0.86788  0.46738  Biso   1.000  C
  C40      1.0000 0.49029  0.54857  0.17237  Biso   1.000  C
  C41      1.0000 0.70162  0.52156  0.17065  Biso   1.000  C
  C42      1.0000 0.70319  0.95781  0.39027  Biso   1.000  C
  H46      1.0000 0.78635  0.88001  0.49161  Biso   1.000  H
  H47      1.0000 0.64779  0.87590  0.50936  Biso   1.000  H
  O16      1.0000 0.38492  0.53937  0.22240  Biso   1.000  O
  C43      1.0000 0.50392  0.58604  0.08606  Biso   1.000  C
  H48      1.0000 0.76796  0.49929  0.19932  Biso   1.000  H
  C44      1.0000 0.71495  0.55947  0.08327  Biso   1.000  C
  O17      1.0000 0.58220  0.96544  0.37016  Biso   1.000  O
  H49      1.0000 0.75379  0.93647  0.34308  Biso   1.000  H
  H50      1.0000 0.72873  0.03385  0.39991  Biso   1.000  H
  C45      1.0000 0.27968  0.56050  0.18048  Biso   1.000  C
  C46      1.0000 0.61604  0.59171  0.04166  Biso   1.000  C
  H51      1.0000 0.43780  0.60778  0.05708  Biso   1.000  H
  C47      1.0000 0.83681  0.56466  0.03545  Biso   1.000  C
  C48      1.0000 0.55909  0.05184  0.30370  Biso   1.000  C
  C49      1.0000 0.17560  0.54774  0.24637  Biso   1.000  C
  H52      1.0000 0.27390  0.50437  0.14262  Biso   1.000  H
  H53      1.0000 0.28132  0.63927  0.14713  Biso   1.000  H
  H54      1.0000 0.62406  0.61760  0.98326  Biso   1.000  H
  H55      1.0000 0.89596  0.54917  0.07559  Biso   1.000  H
  H56      1.0000 0.84358  0.50403  0.00038  Biso   1.000  H
  O18      1.0000 0.85877  0.67957  0.98212  Biso   1.000  O
  C50      1.0000 0.43871  0.07528  0.29286  Biso   1.000  C
  C51      1.0000 0.64530  0.11287  0.24745  Biso   1.000  C
  O19      1.0000 0.17998  0.63901  0.29508  Biso   1.000  O
  H57      1.0000 0.10257  0.55323  0.21930  Biso   1.000  H
  H58      1.0000 0.17796  0.47141  0.28290  Biso   1.000  H
  C52      1.0000 0.86887  0.76759  0.02562  Biso   1.000  C
  O20      1.0000 0.35933  0.00464  0.34759  Biso   1.000  O
  C53      1.0000 0.40941  0.16426  0.22868  Biso   1.000  C
  C54      1.0000 0.61501  0.19771  0.17960  Biso   1.000  C
  H59      1.0000 0.72462  0.09739  0.25481  Biso   1.000  H
  C55      1.0000 0.06964  0.66065  0.33991  Biso   1.000  C
  O21      1.0000 0.86519  0.75489  0.10166  Biso   1.000  O
  C56      1.0000 0.88385  0.88472  0.96778  Biso   1.000  C
  C57      1.0000 0.23605  0.03324  0.34163  Biso   1.000  C
  H60      1.0000 0.33041  0.18410  0.22342  Biso   1.000  H
  C58      1.0000 0.49754  0.22390  0.17211  Biso   1.000  C
  C59      1.0000 0.71042  0.25158  0.11453  Biso   1.000  C
  C60      1.0000 0.08894  0.74582  0.39737  Biso   1.000  C
  H61      1.0000 0.03756  0.58753  0.37289  Biso   1.000  H
  H62      1.0000 0.01361  0.69312  0.30028  Biso   1.000  H
  N2       1.0000 0.85118  0.97717  0.00545  Biso   1.000  N
  C61      1.0000 0.93029  0.89601  0.88350  Biso   1.000  C
  C62      1.0000 0.16335  0.93704  0.39686  Biso   1.000  C
  H63      1.0000 0.21792  0.04010  0.28328  Biso   1.000  H
  H64      1.0000 0.21820  0.10785  0.36008  Biso   1.000  H
  H65      1.0000 0.47670  0.28249  0.12848  Biso   1.000  H
  O22      1.0000 0.75344  0.15683  0.06874  Biso   1.000  O
  H66      1.0000 0.67942  0.31659  0.07597  Biso   1.000  H
  H67      1.0000 0.77400  0.28068  0.14142  Biso   1.000  H
  O23      1.0000 0.14671  0.84702  0.34873  Biso   1.000  O
  H68      1.0000 0.01360  0.76799  0.42419  Biso   1.000  H
  H69      1.0000 0.13721  0.70970  0.44138  Biso   1.000  H
  C63      1.0000 0.86675  0.08426  0.95865  Biso   1.000  C
  H70      1.0000 0.94966  0.82973  0.85928  Biso   1.000  H
  C64      1.0000 0.94690  0.00831  0.83670  Biso   1.000  C
  H71      1.0000 0.20356  0.90508  0.44626  Biso   1.000  H
  H72      1.0000 0.08726  0.96804  0.41589  Biso   1.000  H
  C65      1.0000 0.82875  0.18833  0.00000  Biso   1.000  C
  C66      1.0000 0.91543  0.10459  0.87469  Biso   1.000  C
  H73      1.0000 0.97887  0.01875  0.78045  Biso   1.000  H
  O24      1.0000 0.86096  0.28789  0.97254  Biso   1.000  O
  H74      1.0000 0.92649  0.18086  0.84488  Biso   1.000  H
  Ne1      1.0000 0.59363  0.81927  0.20988  Biso   1.000  Ne
  He1      1.0000 0.37366  0.69985  0.55426  Biso   1.000  He
  He2      1.0000 0.71958  0.73443  0.26579  Biso   1.000  He
  He3      1.0000 0.58578  0.85307  0.15320  Biso   1.000  He
  Ar1      1.0000 0.60177  0.82337  0.18731  Biso   1.000  Ar
  Ne2      1.0000 0.40636  0.18076  0.79009  Biso   1.000  Ne
  He4      1.0000 0.46476  0.09274  0.88996  Biso   1.000  He
  He5      1.0000 0.25535  0.11140  0.79094  Biso   1.000  He
  He6      1.0000 0.59404  0.27016  0.52084  Biso   1.000  He
  Ar2      1.0000 0.42472  0.11442  0.87950  Biso   1.000  Ar
