data_image0
_cell_length_a       30.442
_cell_length_b       12.394
_cell_length_c       21.405
_cell_angle_alpha    90
_cell_angle_beta     128.82
_cell_angle_gamma    90

_symmetry_space_group_name_H-M    "P 1"
_symmetry_int_tables_number       1

loop_
  _symmetry_equiv_pos_as_xyz
  'x, y, z'

loop_
  _atom_site_label
  _atom_site_occupancy
  _atom_site_fract_x
  _atom_site_fract_y
  _atom_site_fract_z
  _atom_site_thermal_displace_type
  _atom_site_B_iso_or_equiv
  _atom_site_type_symbol
  C1       1.0000 0.58622  0.50234  0.78323  Biso   1.000  C
  N1       1.0000 0.58104  0.44497  0.83678  Biso   1.000  N
  H1       1.0000 0.56688  0.57270  0.76998  Biso   1.000  H
  H2       1.0000 0.56669  0.46071  0.73274  Biso   1.000  H
  N2       1.0000 0.64419  0.52098  0.81549  Biso   1.000  N
  C2       1.0000 0.57059  0.33653  0.83102  Biso   1.000  C
  C3       1.0000 0.58639  0.49419  0.90250  Biso   1.000  C
  C4       1.0000 0.67622  0.61570  0.86124  Biso   1.000  C
  C5       1.0000 0.66821  0.46732  0.78779  Biso   1.000  C
  O1       1.0000 0.56335  0.27723  0.77963  Biso   1.000  O
  N3       1.0000 0.56866  0.30749  0.89075  Biso   1.000  N
  C6       1.0000 0.57271  0.39963  0.93518  Biso   1.000  C
  H3       1.0000 0.55936  0.55543  0.88373  Biso   1.000  H
  N4       1.0000 0.64314  0.52445  0.97080  Biso   1.000  N
  N5       1.0000 0.70129  0.61126  0.94489  Biso   1.000  N
  H4       1.0000 0.65360  0.68307  0.83528  Biso   1.000  H
  C7       1.0000 0.72785  0.61304  0.86310  Biso   1.000  C
  N6       1.0000 0.71859  0.51501  0.81897  Biso   1.000  N
  O2       1.0000 0.64768  0.39059  0.74180  Biso   1.000  O
  C8       1.0000 0.54663  0.20502  0.89128  Biso   1.000  C
  H5       1.0000 0.53668  0.41230  0.92624  Biso   1.000  H
  N7       1.0000 0.62061  0.39834  0.01955  Biso   1.000  N
  C9       1.0000 0.65966  0.47467  0.03987  Biso   1.000  C
  C10      1.0000 0.66934  0.62393  0.97307  Biso   1.000  C
  C11      1.0000 0.75889  0.61788  0.99448  Biso   1.000  C
  H6       1.0000 0.72909  0.67807  0.83654  Biso   1.000  H
  N8       1.0000 0.77505  0.61078  0.94753  Biso   1.000  N
  C12      1.0000 0.75287  0.48209  0.79696  Biso   1.000  C
  H7       1.0000 0.52927  0.16823  0.83954  Biso   1.000  H
  H8       1.0000 0.51660  0.21793  0.89566  Biso   1.000  H
  N9       1.0000 0.58848  0.13442  0.95568  Biso   1.000  N
  C13      1.0000 0.62386  0.33540  0.07843  Biso   1.000  C
  O3       1.0000 0.70141  0.49685  0.10733  Biso   1.000  O
  H9       1.0000 0.63957  0.67872  0.93967  Biso   1.000  H
  H10      1.0000 0.69457  0.65112  0.02884  Biso   1.000  H
  O4       1.0000 0.79006  0.62934  0.06668  Biso   1.000  O
  C14      1.0000 0.83388  0.61473  0.98045  Biso   1.000  C
  H11      1.0000 0.72918  0.44037  0.74636  Biso   1.000  H
  H12      1.0000 0.76619  0.54736  0.78665  Biso   1.000  H
  N10      1.0000 0.80118  0.41738  0.85723  Biso   1.000  N
  C15      1.0000 0.60627  0.04244  0.94201  Biso   1.000  C
  C16      1.0000 0.60657  0.13797  0.03621  Biso   1.000  C
  N11      1.0000 0.64341  0.22592  0.08580  Biso   1.000  N
  H13      1.0000 0.58606  0.33282  0.06422  Biso   1.000  H
  H14      1.0000 0.64969  0.37171  0.13114  Biso   1.000  H
  H15      1.0000 0.83698  0.66161  0.94597  Biso   1.000  H
  N12      1.0000 0.85741  0.51009  0.98675  Biso   1.000  N
  H16      1.0000 0.85649  0.64797  0.03436  Biso   1.000  H
  C17      1.0000 0.85508  0.46248  0.92325  Biso   1.000  C
  C18      1.0000 0.80396  0.30854  0.84997  Biso   1.000  C
  O5       1.0000 0.59087  0.01243  0.87689  Biso   1.000  O
  N13      1.0000 0.64255  0.98991  0.01313  Biso   1.000  N
  C19      1.0000 0.64488  0.03752  0.07663  Biso   1.000  C
  H17      1.0000 0.57369  0.13361  0.03591  Biso   1.000  H
  C20      1.0000 0.69600  0.19146  0.14990  Biso   1.000  C
  C21      1.0000 0.89369  0.45756  0.05786  Biso   1.000  C
  H18      1.0000 0.86968  0.51331  0.90376  Biso   1.000  H
  C22      1.0000 0.89339  0.36203  0.96366  Biso   1.000  C
  N14      1.0000 0.85656  0.27408  0.91407  Biso   1.000  N
  O6       1.0000 0.76715  0.25254  0.79492  Biso   1.000  O
  C23      1.0000 0.66611  0.88527  0.01949  Biso   1.000  C
  H19      1.0000 0.63028  0.98669  0.09612  Biso   1.000  H
  N15      1.0000 0.69878  0.08262  0.14265  Biso   1.000  N
  O7       1.0000 0.73281  0.24746  0.20495  Biso   1.000  O
  N16      1.0000 0.91148  0.36558  0.04419  Biso   1.000  N
  O8       1.0000 0.90911  0.48757  0.12304  Biso   1.000  O
  H20      1.0000 0.92628  0.36639  0.96396  Biso   1.000  H
  C24      1.0000 0.87610  0.16460  0.92145  Biso   1.000  C
  H21      1.0000 0.64350  0.85203  0.96558  Biso   1.000  H
  H22      1.0000 0.66301  0.83839  0.05396  Biso   1.000  H
  N17      1.0000 0.72491  0.88922  0.05234  Biso   1.000  N
  C25      1.0000 0.74709  0.01791  0.20291  Biso   1.000  C
  C26      1.0000 0.95333  0.29498  0.10859  Biso   1.000  C
  H23      1.0000 0.91387  0.16718  0.93566  Biso   1.000  H
  H24      1.0000 0.85027  0.12829  0.86874  Biso   1.000  H
  N18      1.0000 0.87938  0.10166  0.98039  Biso   1.000  N
  C27      1.0000 0.77211  0.88696  0.13677  Biso   1.000  C
  C28      1.0000 0.74107  0.88212  0.00539  Biso   1.000  C
  H25      1.0000 0.73377  0.95264  0.21322  Biso   1.000  H
  N19      1.0000 0.78138  0.98499  0.18090  Biso   1.000  N
  H26      1.0000 0.77078  0.05963  0.25352  Biso   1.000  H
  H27      1.0000 0.97069  0.33177  0.16034  Biso   1.000  H
  H28      1.0000 0.98337  0.28207  0.10421  Biso   1.000  H
  N20      1.0000 0.93130  0.19251  0.10913  Biso   1.000  N
  C29      1.0000 0.84027  0.02533  0.96000  Biso   1.000  C
  C30      1.0000 0.92725  0.10037  0.06470  Biso   1.000  C
  C31      1.0000 0.82375  0.88430  0.13863  Biso   1.000  C
  H29      1.0000 0.77087  0.82193  0.16334  Biso   1.000  H
  O9       1.0000 0.70990  0.87066  0.93320  Biso   1.000  O
  N21      1.0000 0.79867  0.88874  0.05498  Biso   1.000  N
  C32      1.0000 0.83178  0.03268  0.21215  Biso   1.000  C
  C33      1.0000 0.92937  0.16347  0.16885  Biso   1.000  C
  N22      1.0000 0.85683  0.97555  0.02908  Biso   1.000  N
  O10      1.0000 0.79855  0.00315  0.89254  Biso   1.000  O
  C34      1.0000 0.91356  0.00581  0.09744  Biso   1.000  C
  H30      1.0000 0.96328  0.08770  0.07363  Biso   1.000  H
  H31      1.0000 0.84639  0.81693  0.16465  Biso   1.000  H
  N23      1.0000 0.85577  0.97902  0.18438  Biso   1.000  N
  C35      1.0000 0.83063  0.87607  0.02680  Biso   1.000  C
  O11      1.0000 0.85228  0.10941  0.25808  Biso   1.000  O
  N24      1.0000 0.91895  0.05503  0.16316  Biso   1.000  N
  O12      1.0000 0.93662  0.22277  0.22024  Biso   1.000  O
  H32      1.0000 0.94060  0.94457  0.11614  Biso   1.000  H
  C36      1.0000 0.91371  0.99766  0.21664  Biso   1.000  C
  H33      1.0000 0.80536  0.84888  0.97104  Biso   1.000  H
  H34      1.0000 0.86039  0.82128  0.06026  Biso   1.000  H
  H35      1.0000 0.93308  0.92730  0.22995  Biso   1.000  H
  H36      1.0000 0.93327  0.03929  0.26713  Biso   1.000  H
  N25      1.0000 0.41895  0.44497  0.66319  Biso   1.000  N
  C37      1.0000 0.41357  0.49419  0.59747  Biso   1.000  C
  C38      1.0000 0.42935  0.33653  0.66888  Biso   1.000  C
  C39      1.0000 0.41372  0.50234  0.71667  Biso   1.000  C
  C40      1.0000 0.42726  0.39963  0.56473  Biso   1.000  C
  N26      1.0000 0.35683  0.52445  0.52911  Biso   1.000  N
  H37      1.0000 0.44058  0.55543  0.61618  Biso   1.000  H
  N27      1.0000 0.43128  0.30749  0.60916  Biso   1.000  N
  O13      1.0000 0.43663  0.27723  0.72027  Biso   1.000  O
  H38      1.0000 0.43309  0.57270  0.72999  Biso   1.000  H
  H39      1.0000 0.43328  0.46071  0.76716  Biso   1.000  H
  N28      1.0000 0.35578  0.52098  0.68441  Biso   1.000  N
  N29      1.0000 0.37939  0.39834  0.48042  Biso   1.000  N
  H40      1.0000 0.46329  0.41230  0.57366  Biso   1.000  H
  C41      1.0000 0.34031  0.47467  0.46003  Biso   1.000  C
  C42      1.0000 0.33063  0.62393  0.52689  Biso   1.000  C
  C43      1.0000 0.45331  0.20502  0.60862  Biso   1.000  C
  C44      1.0000 0.32375  0.61570  0.63866  Biso   1.000  C
  C45      1.0000 0.33175  0.46732  0.71218  Biso   1.000  C
  C46      1.0000 0.37611  0.33540  0.42148  Biso   1.000  C
  O14      1.0000 0.29856  0.49685  0.39258  Biso   1.000  O
  H41      1.0000 0.36039  0.67872  0.56029  Biso   1.000  H
  H42      1.0000 0.30540  0.65112  0.47107  Biso   1.000  H
  N30      1.0000 0.29868  0.61126  0.55501  Biso   1.000  N
  N31      1.0000 0.41149  0.13442  0.54422  Biso   1.000  N
  H43      1.0000 0.47070  0.16823  0.66037  Biso   1.000  H
  H44      1.0000 0.48338  0.21793  0.60424  Biso   1.000  H
  H45      1.0000 0.34639  0.68307  0.66469  Biso   1.000  H
  C47      1.0000 0.27208  0.61304  0.63680  Biso   1.000  C
  N32      1.0000 0.28139  0.51501  0.68094  Biso   1.000  N
  O15      1.0000 0.35226  0.39059  0.75811  Biso   1.000  O
  N33      1.0000 0.35656  0.22592  0.41410  Biso   1.000  N
  H46      1.0000 0.41391  0.33282  0.43569  Biso   1.000  H
  H47      1.0000 0.35028  0.37171  0.36877  Biso   1.000  H
  C48      1.0000 0.24105  0.61788  0.50543  Biso   1.000  C
  C49      1.0000 0.39340  0.13797  0.46369  Biso   1.000  C
  C50      1.0000 0.39370  0.04244  0.55789  Biso   1.000  C
  N34      1.0000 0.22492  0.61078  0.55238  Biso   1.000  N
  H48      1.0000 0.27088  0.67807  0.66337  Biso   1.000  H
  C51      1.0000 0.24713  0.48209  0.70300  Biso   1.000  C
  C52      1.0000 0.30397  0.19146  0.35000  Biso   1.000  C
  O16      1.0000 0.20991  0.62934  0.43323  Biso   1.000  O
  C53      1.0000 0.35509  0.03752  0.42328  Biso   1.000  C
  H49      1.0000 0.42628  0.13361  0.46399  Biso   1.000  H
  N35      1.0000 0.35742  0.98991  0.48678  Biso   1.000  N
  O17      1.0000 0.40909  0.01243  0.62307  Biso   1.000  O
  C54      1.0000 0.16612  0.61473  0.51952  Biso   1.000  C
  H50      1.0000 0.27079  0.44037  0.75355  Biso   1.000  H
  H51      1.0000 0.23378  0.54736  0.71326  Biso   1.000  H
  N36      1.0000 0.19876  0.41738  0.64268  Biso   1.000  N
  O18      1.0000 0.26716  0.24746  0.29496  Biso   1.000  O
  N37      1.0000 0.30119  0.08262  0.35726  Biso   1.000  N
  H52      1.0000 0.36969  0.98669  0.40379  Biso   1.000  H
  C55      1.0000 0.33386  0.88527  0.48042  Biso   1.000  C
  H53      1.0000 0.16299  0.66161  0.55399  Biso   1.000  H
  H54      1.0000 0.14348  0.64797  0.46555  Biso   1.000  H
  N38      1.0000 0.14256  0.51009  0.51316  Biso   1.000  N
  C56      1.0000 0.14486  0.46248  0.57666  Biso   1.000  C
  C57      1.0000 0.19601  0.30854  0.64994  Biso   1.000  C
  C58      1.0000 0.25288  0.01791  0.29700  Biso   1.000  C
  H55      1.0000 0.33699  0.83839  0.44600  Biso   1.000  H
  H56      1.0000 0.35650  0.85203  0.53439  Biso   1.000  H
  N39      1.0000 0.27506  0.88922  0.44756  Biso   1.000  N
  C59      1.0000 0.10628  0.45756  0.44204  Biso   1.000  C
  C60      1.0000 0.10658  0.36203  0.53625  Biso   1.000  C
  H57      1.0000 0.13026  0.51331  0.59615  Biso   1.000  H
  N40      1.0000 0.14338  0.27408  0.58584  Biso   1.000  N
  O19      1.0000 0.23279  0.25254  0.70498  Biso   1.000  O
  H58      1.0000 0.22919  0.05963  0.24639  Biso   1.000  H
  H59      1.0000 0.26620  0.95264  0.28668  Biso   1.000  H
  N41      1.0000 0.21859  0.98499  0.31900  Biso   1.000  N
  C61      1.0000 0.22786  0.88696  0.36313  Biso   1.000  C
  C62      1.0000 0.25890  0.88212  0.49451  Biso   1.000  C
  N42      1.0000 0.08849  0.36558  0.45572  Biso   1.000  N
  O20      1.0000 0.09088  0.48757  0.37693  Biso   1.000  O
  H60      1.0000 0.07366  0.36639  0.53595  Biso   1.000  H
  C63      1.0000 0.12384  0.16460  0.57846  Biso   1.000  C
  C64      1.0000 0.16820  0.03268  0.28776  Biso   1.000  C
  C65      1.0000 0.17623  0.88430  0.36128  Biso   1.000  C
  H61      1.0000 0.22910  0.82193  0.33657  Biso   1.000  H
  N43      1.0000 0.20130  0.88874  0.44492  Biso   1.000  N
  O21      1.0000 0.29007  0.87066  0.56671  Biso   1.000  O
  C66      1.0000 0.04664  0.29498  0.39132  Biso   1.000  C
  N44      1.0000 0.12062  0.10166  0.51958  Biso   1.000  N
  H62      1.0000 0.08607  0.16718  0.56425  Biso   1.000  H
  H63      1.0000 0.14967  0.12829  0.63117  Biso   1.000  H
  O22      1.0000 0.14769  0.10941  0.24183  Biso   1.000  O
  N45      1.0000 0.14420  0.97902  0.31552  Biso   1.000  N
  H64      1.0000 0.15361  0.81693  0.33531  Biso   1.000  H
  C67      1.0000 0.16935  0.87607  0.47311  Biso   1.000  C
  N46      1.0000 0.06867  0.19251  0.39078  Biso   1.000  N
  H65      1.0000 0.02928  0.33177  0.33957  Biso   1.000  H
  H66      1.0000 0.01661  0.28207  0.39569  Biso   1.000  H
  C68      1.0000 0.07272  0.10037  0.43521  Biso   1.000  C
  C69      1.0000 0.15967  0.02533  0.53990  Biso   1.000  C
  C70      1.0000 0.08626  0.99766  0.28326  Biso   1.000  C
  H67      1.0000 0.13961  0.82128  0.43971  Biso   1.000  H
  H68      1.0000 0.19458  0.84888  0.52887  Biso   1.000  H
  N47      1.0000 0.14315  0.97555  0.47083  Biso   1.000  N
  C71      1.0000 0.07060  0.16347  0.33105  Biso   1.000  C
  C72      1.0000 0.08641  0.00581  0.40247  Biso   1.000  C
  H69      1.0000 0.03669  0.08770  0.42627  Biso   1.000  H
  O23      1.0000 0.20142  0.00315  0.60736  Biso   1.000  O
  H70      1.0000 0.06670  0.03929  0.23278  Biso   1.000  H
  N48      1.0000 0.08105  0.05503  0.33681  Biso   1.000  N
  H71      1.0000 0.06692  0.92730  0.27001  Biso   1.000  H
  O24      1.0000 0.06335  0.22277  0.27967  Biso   1.000  O
  H72      1.0000 0.05937  0.94457  0.38376  Biso   1.000  H
  C73      1.0000 0.62384  0.66460  0.57846  Biso   1.000  C
  N49      1.0000 0.62062  0.60166  0.51958  Biso   1.000  N
  H73      1.0000 0.58607  0.66718  0.56425  Biso   1.000  H
  H74      1.0000 0.64970  0.62829  0.63117  Biso   1.000  H
  N50      1.0000 0.64342  0.77408  0.58584  Biso   1.000  N
  C74      1.0000 0.57272  0.60037  0.43521  Biso   1.000  C
  C75      1.0000 0.65967  0.52533  0.53990  Biso   1.000  C
  C76      1.0000 0.60658  0.86203  0.53625  Biso   1.000  C
  C77      1.0000 0.69601  0.80854  0.64994  Biso   1.000  C
  H75      1.0000 0.53669  0.58770  0.42627  Biso   1.000  H
  C78      1.0000 0.58641  0.50581  0.40247  Biso   1.000  C
  N51      1.0000 0.56871  0.69251  0.39078  Biso   1.000  N
  N52      1.0000 0.64315  0.47555  0.47083  Biso   1.000  N
  O25      1.0000 0.70142  0.50315  0.60736  Biso   1.000  O
  N53      1.0000 0.58849  0.86558  0.45572  Biso   1.000  N
  C79      1.0000 0.64486  0.96248  0.57666  Biso   1.000  C
  H76      1.0000 0.57366  0.86639  0.53595  Biso   1.000  H
  N54      1.0000 0.69876  0.91738  0.64268  Biso   1.000  N
  O26      1.0000 0.73279  0.75254  0.70498  Biso   1.000  O
  H77      1.0000 0.55937  0.44457  0.38376  Biso   1.000  H
  N55      1.0000 0.58105  0.55503  0.33681  Biso   1.000  N
  C80      1.0000 0.54664  0.79498  0.39132  Biso   1.000  C
  C81      1.0000 0.57060  0.66347  0.33105  Biso   1.000  C
  C82      1.0000 0.66935  0.37607  0.47311  Biso   1.000  C
  C83      1.0000 0.60628  0.95756  0.44204  Biso   1.000  C
  N56      1.0000 0.64256  0.01009  0.51316  Biso   1.000  N
  H78      1.0000 0.63029  0.01331  0.59615  Biso   1.000  H
  C84      1.0000 0.74713  0.98209  0.70300  Biso   1.000  C
  C85      1.0000 0.58626  0.49766  0.28326  Biso   1.000  C
  H79      1.0000 0.52928  0.83177  0.33957  Biso   1.000  H
  H80      1.0000 0.51661  0.78207  0.39569  Biso   1.000  H
  O27      1.0000 0.56335  0.72277  0.27967  Biso   1.000  O
  H81      1.0000 0.63961  0.32128  0.43971  Biso   1.000  H
  H82      1.0000 0.69458  0.34888  0.52887  Biso   1.000  H
  N57      1.0000 0.70130  0.38874  0.44492  Biso   1.000  N
  O28      1.0000 0.59092  0.98757  0.37693  Biso   1.000  O
  C86      1.0000 0.66612  0.11473  0.51952  Biso   1.000  C
  H83      1.0000 0.77079  0.94037  0.75355  Biso   1.000  H
  H84      1.0000 0.73378  0.04736  0.71326  Biso   1.000  H
  N58      1.0000 0.78139  0.01501  0.68094  Biso   1.000  N
  H85      1.0000 0.56692  0.42730  0.27001  Biso   1.000  H
  H86      1.0000 0.56670  0.53929  0.23278  Biso   1.000  H
  N59      1.0000 0.64420  0.47902  0.31552  Biso   1.000  N
  C87      1.0000 0.67623  0.38430  0.36128  Biso   1.000  C
  C88      1.0000 0.75890  0.38212  0.49451  Biso   1.000  C
  H87      1.0000 0.66299  0.16161  0.55399  Biso   1.000  H
  H88      1.0000 0.64348  0.14797  0.46555  Biso   1.000  H
  N60      1.0000 0.72492  0.11078  0.55238  Biso   1.000  N
  C89      1.0000 0.77208  0.11304  0.63680  Biso   1.000  C
  C90      1.0000 0.83175  0.96732  0.71218  Biso   1.000  C
  C91      1.0000 0.66823  0.53268  0.28776  Biso   1.000  C
  H89      1.0000 0.65361  0.31693  0.33531  Biso   1.000  H
  C92      1.0000 0.72790  0.38696  0.36313  Biso   1.000  C
  N61      1.0000 0.77506  0.38922  0.44756  Biso   1.000  N
  O29      1.0000 0.79007  0.37066  0.56671  Biso   1.000  O
  C93      1.0000 0.74108  0.11788  0.50543  Biso   1.000  C
  C94      1.0000 0.82375  0.11570  0.63866  Biso   1.000  C
  H90      1.0000 0.77088  0.17807  0.66337  Biso   1.000  H
  O30      1.0000 0.85226  0.89059  0.75811  Biso   1.000  O
  N62      1.0000 0.85578  0.02098  0.68441  Biso   1.000  N
  N63      1.0000 0.71859  0.48499  0.31900  Biso   1.000  N
  O31      1.0000 0.64772  0.60941  0.24183  Biso   1.000  O
  H91      1.0000 0.72910  0.32193  0.33657  Biso   1.000  H
  C95      1.0000 0.83386  0.38527  0.48042  Biso   1.000  C
  N64      1.0000 0.79868  0.11126  0.55501  Biso   1.000  N
  O32      1.0000 0.70991  0.12934  0.43323  Biso   1.000  O
  H92      1.0000 0.84639  0.18307  0.66469  Biso   1.000  H
  C96      1.0000 0.91372  0.00234  0.71667  Biso   1.000  C
  C97      1.0000 0.75288  0.51791  0.29700  Biso   1.000  C
  H93      1.0000 0.83702  0.33839  0.44600  Biso   1.000  H
  H94      1.0000 0.85650  0.35203  0.53439  Biso   1.000  H
  N65      1.0000 0.85742  0.48991  0.48678  Biso   1.000  N
  C98      1.0000 0.83063  0.12393  0.52689  Biso   1.000  C
  H95      1.0000 0.93328  0.96071  0.76716  Biso   1.000  H
  N66      1.0000 0.91895  0.94497  0.66319  Biso   1.000  N
  H96      1.0000 0.93309  0.07270  0.72999  Biso   1.000  H
  H97      1.0000 0.72919  0.55963  0.24639  Biso   1.000  H
  H98      1.0000 0.76620  0.45264  0.28668  Biso   1.000  H
  N67      1.0000 0.80119  0.58262  0.35726  Biso   1.000  N
  C99      1.0000 0.85509  0.53752  0.42328  Biso   1.000  C
  C100     1.0000 0.89370  0.54244  0.55789  Biso   1.000  C
  H99      1.0000 0.86039  0.17872  0.56029  Biso   1.000  H
  H100     1.0000 0.80540  0.15112  0.47107  Biso   1.000  H
  N68      1.0000 0.85683  0.02445  0.52911  Biso   1.000  N
  C101     1.0000 0.91357  0.99419  0.59747  Biso   1.000  C
  C102     1.0000 0.92938  0.83653  0.66888  Biso   1.000  C
  C103     1.0000 0.80397  0.69146  0.35000  Biso   1.000  C
  H101     1.0000 0.86969  0.48669  0.40379  Biso   1.000  H
  C104     1.0000 0.89340  0.63797  0.46369  Biso   1.000  C
  N69      1.0000 0.91149  0.63442  0.54422  Biso   1.000  N
  O33      1.0000 0.90909  0.51243  0.62307  Biso   1.000  O
  C105     1.0000 0.84031  0.97467  0.46003  Biso   1.000  C
  C106     1.0000 0.92726  0.89963  0.56473  Biso   1.000  C
  H102     1.0000 0.94061  0.05543  0.61618  Biso   1.000  H
  N70      1.0000 0.93128  0.80749  0.60916  Biso   1.000  N
  O34      1.0000 0.93663  0.77723  0.72027  Biso   1.000  O
  N71      1.0000 0.85656  0.72592  0.41410  Biso   1.000  N
  O35      1.0000 0.76716  0.74746  0.29496  Biso   1.000  O
  H103     1.0000 0.92628  0.63361  0.46399  Biso   1.000  H
  C107     1.0000 0.95334  0.70502  0.60862  Biso   1.000  C
  N72      1.0000 0.87939  0.89834  0.48042  Biso   1.000  N
  O36      1.0000 0.79856  0.99685  0.39258  Biso   1.000  O
  H104     1.0000 0.96329  0.91230  0.57366  Biso   1.000  H
  C108     1.0000 0.87614  0.83540  0.42148  Biso   1.000  C
  H105     1.0000 0.97070  0.66823  0.66037  Biso   1.000  H
  H106     1.0000 0.98338  0.71793  0.60424  Biso   1.000  H
  H107     1.0000 0.91391  0.83282  0.43569  Biso   1.000  H
  H108     1.0000 0.85028  0.87171  0.36877  Biso   1.000  H
  C109     1.0000 0.37610  0.66460  0.92145  Biso   1.000  C
  N73      1.0000 0.35656  0.77408  0.91407  Biso   1.000  N
  H109     1.0000 0.41387  0.66718  0.93566  Biso   1.000  H
  H110     1.0000 0.35027  0.62829  0.86874  Biso   1.000  H
  N74      1.0000 0.37938  0.60166  0.98039  Biso   1.000  N
  C110     1.0000 0.30396  0.80854  0.84997  Biso   1.000  C
  C111     1.0000 0.39336  0.86203  0.96366  Biso   1.000  C
  C112     1.0000 0.34027  0.52533  0.96000  Biso   1.000  C
  C113     1.0000 0.42725  0.60037  0.06470  Biso   1.000  C
  O37      1.0000 0.26715  0.75254  0.79492  Biso   1.000  O
  N75      1.0000 0.30118  0.91738  0.85723  Biso   1.000  N
  C114     1.0000 0.35508  0.96248  0.92325  Biso   1.000  C
  H111     1.0000 0.42628  0.86639  0.96396  Biso   1.000  H
  N76      1.0000 0.41148  0.86558  0.04419  Biso   1.000  N
  O38      1.0000 0.29852  0.50315  0.89254  Biso   1.000  O
  N77      1.0000 0.35683  0.47555  0.02908  Biso   1.000  N
  N78      1.0000 0.43127  0.69251  0.10913  Biso   1.000  N
  H112     1.0000 0.46328  0.58770  0.07363  Biso   1.000  H
  C115     1.0000 0.41356  0.50581  0.09744  Biso   1.000  C
  C116     1.0000 0.25287  0.98209  0.79696  Biso   1.000  C
  H113     1.0000 0.36968  0.01331  0.90376  Biso   1.000  H
  N79      1.0000 0.35741  0.01009  0.98675  Biso   1.000  N
  C117     1.0000 0.39369  0.95756  0.05786  Biso   1.000  C
  C118     1.0000 0.45333  0.79498  0.10859  Biso   1.000  C
  C119     1.0000 0.33063  0.37607  0.02680  Biso   1.000  C
  C120     1.0000 0.42937  0.66347  0.16885  Biso   1.000  C
  H114     1.0000 0.44060  0.44457  0.11614  Biso   1.000  H
  N80      1.0000 0.41895  0.55503  0.16316  Biso   1.000  N
  H115     1.0000 0.22918  0.94037  0.74636  Biso   1.000  H
  H116     1.0000 0.26616  0.04736  0.78665  Biso   1.000  H
  N81      1.0000 0.21859  0.01501  0.81897  Biso   1.000  N
  C121     1.0000 0.33388  0.11473  0.98045  Biso   1.000  C
  O39      1.0000 0.40908  0.98757  0.12304  Biso   1.000  O
  H117     1.0000 0.47069  0.83177  0.16034  Biso   1.000  H
  H118     1.0000 0.48337  0.78207  0.10421  Biso   1.000  H
  H119     1.0000 0.30536  0.34888  0.97104  Biso   1.000  H
  H120     1.0000 0.36039  0.32128  0.06026  Biso   1.000  H
  N82      1.0000 0.29867  0.38874  0.05498  Biso   1.000  N
  O40      1.0000 0.43662  0.72277  0.22024  Biso   1.000  O
  C122     1.0000 0.41371  0.49766  0.21664  Biso   1.000  C
  C123     1.0000 0.16821  0.96732  0.78779  Biso   1.000  C
  C124     1.0000 0.22785  0.11304  0.86310  Biso   1.000  C
  H121     1.0000 0.33698  0.16161  0.94597  Biso   1.000  H
  N83      1.0000 0.27505  0.11078  0.94753  Biso   1.000  N
  H122     1.0000 0.35649  0.14797  0.03436  Biso   1.000  H
  C125     1.0000 0.32375  0.38430  0.13863  Biso   1.000  C
  C126     1.0000 0.24107  0.38212  0.00539  Biso   1.000  C
  H123     1.0000 0.43308  0.42730  0.22995  Biso   1.000  H
  H124     1.0000 0.43327  0.53929  0.26713  Biso   1.000  H
  N84      1.0000 0.35577  0.47902  0.18438  Biso   1.000  N
  O41      1.0000 0.14768  0.89059  0.74180  Biso   1.000  O
  N85      1.0000 0.14419  0.02098  0.81549  Biso   1.000  N
  C127     1.0000 0.17618  0.11570  0.86124  Biso   1.000  C
  H125     1.0000 0.22906  0.17807  0.83654  Biso   1.000  H
  C128     1.0000 0.25889  0.11788  0.99448  Biso   1.000  C
  H126     1.0000 0.34639  0.31693  0.16465  Biso   1.000  H
  C129     1.0000 0.27208  0.38696  0.13677  Biso   1.000  C
  O42      1.0000 0.20987  0.37066  0.93320  Biso   1.000  O
  N86      1.0000 0.22491  0.38922  0.05234  Biso   1.000  N
  C130     1.0000 0.33174  0.53268  0.21215  Biso   1.000  C
  C131     1.0000 0.08622  0.00234  0.78323  Biso   1.000  C
  H127     1.0000 0.15357  0.18307  0.83528  Biso   1.000  H
  N87      1.0000 0.20126  0.11126  0.94489  Biso   1.000  N
  O43      1.0000 0.29006  0.12934  0.06668  Biso   1.000  O
  H128     1.0000 0.27087  0.32193  0.16334  Biso   1.000  H
  N88      1.0000 0.28138  0.48499  0.18090  Biso   1.000  N
  C132     1.0000 0.16611  0.38527  0.01949  Biso   1.000  C
  O44      1.0000 0.35228  0.60941  0.25808  Biso   1.000  O
  H129     1.0000 0.06666  0.96071  0.73274  Biso   1.000  H
  N89      1.0000 0.08101  0.94497  0.83678  Biso   1.000  N
  H130     1.0000 0.06688  0.07270  0.76998  Biso   1.000  H
  C133     1.0000 0.16934  0.12393  0.97307  Biso   1.000  C
  C134     1.0000 0.24709  0.51791  0.20291  Biso   1.000  C
  H131     1.0000 0.14350  0.35203  0.96558  Biso   1.000  H
  H132     1.0000 0.16298  0.33839  0.05396  Biso   1.000  H
  N90      1.0000 0.14255  0.48991  0.01313  Biso   1.000  N
  C135     1.0000 0.08639  0.99419  0.90250  Biso   1.000  C
  C136     1.0000 0.07059  0.83653  0.83102  Biso   1.000  C
  H133     1.0000 0.13957  0.17872  0.93967  Biso   1.000  H
  N91      1.0000 0.14310  0.02445  0.97080  Biso   1.000  N
  H134     1.0000 0.19457  0.15112  0.02884  Biso   1.000  H
  H135     1.0000 0.27078  0.55963  0.25352  Biso   1.000  H
  H136     1.0000 0.23377  0.45264  0.21322  Biso   1.000  H
  N92      1.0000 0.19878  0.58262  0.14265  Biso   1.000  N
  C137     1.0000 0.10627  0.54244  0.94201  Biso   1.000  C
  C138     1.0000 0.14488  0.53752  0.07663  Biso   1.000  C
  C139     1.0000 0.07271  0.89963  0.93518  Biso   1.000  C
  H137     1.0000 0.05936  0.05543  0.88373  Biso   1.000  H
  N93      1.0000 0.06866  0.80749  0.89075  Biso   1.000  N
  O45      1.0000 0.06331  0.77723  0.77963  Biso   1.000  O
  C140     1.0000 0.15966  0.97467  0.03987  Biso   1.000  C
  C141     1.0000 0.19600  0.69146  0.14990  Biso   1.000  C
  N94      1.0000 0.08848  0.63442  0.95568  Biso   1.000  N
  O46      1.0000 0.09087  0.51243  0.87689  Biso   1.000  O
  C142     1.0000 0.10657  0.63797  0.03621  Biso   1.000  C
  H138     1.0000 0.13028  0.48669  0.09612  Biso   1.000  H
  H139     1.0000 0.03668  0.91230  0.92624  Biso   1.000  H
  N95      1.0000 0.12061  0.89834  0.01955  Biso   1.000  N
  C143     1.0000 0.04663  0.70502  0.89128  Biso   1.000  C
  O47      1.0000 0.20141  0.99685  0.10733  Biso   1.000  O
  N96      1.0000 0.14341  0.72592  0.08580  Biso   1.000  N
  O48      1.0000 0.23281  0.74746  0.20495  Biso   1.000  O
  H140     1.0000 0.07369  0.63361  0.03591  Biso   1.000  H
  C144     1.0000 0.12383  0.83540  0.07843  Biso   1.000  C
  H141     1.0000 0.02927  0.66823  0.83954  Biso   1.000  H
  H142     1.0000 0.01656  0.71793  0.89566  Biso   1.000  H
  H143     1.0000 0.08606  0.83282  0.06422  Biso   1.000  H
  H144     1.0000 0.14969  0.87171  0.13114  Biso   1.000  H
  Ne1      1.0000 0.24999  0.25000  0.49997  Biso   1.000  Ne
  He1      1.0000 0.32402  0.11812  0.66220  Biso   1.000  He
  He2      1.0000 0.17774  0.37912  0.34199  Biso   1.000  He
  Ar1      1.0000 0.24999  0.25001  0.49997  Biso   1.000  Ar
  Ne2      1.0000 0.74999  0.75000  0.49997  Biso   1.000  Ne
  He3      1.0000 0.82402  0.61811  0.66220  Biso   1.000  He
  He4      1.0000 0.67841  0.87451  0.34022  Biso   1.000  He
  Ar2      1.0000 0.74999  0.75000  0.49997  Biso   1.000  Ar
  Ne3      1.0000 0.74998  0.25000  0.99994  Biso   1.000  Ne
  He5      1.0000 0.82221  0.37907  0.15786  Biso   1.000  He
  He6      1.0000 0.67603  0.11818  0.83793  Biso   1.000  He
  Ar3      1.0000 0.74998  0.25002  0.99995  Biso   1.000  Ar
  Ne4      1.0000 0.24998  0.75000  0.99994  Biso   1.000  Ne
  He7      1.0000 0.32220  0.87901  0.15789  Biso   1.000  He
  He8      1.0000 0.17601  0.61825  0.83791  Biso   1.000  He
  Ar4      1.0000 0.24997  0.75001  0.99994  Biso   1.000  Ar
