data_image0
_cell_length_a       30.442
_cell_length_b       12.394
_cell_length_c       21.405
_cell_angle_alpha    90
_cell_angle_beta     128.82
_cell_angle_gamma    90

_symmetry_space_group_name_H-M    "P 1"
_symmetry_int_tables_number       1

loop_
  _symmetry_equiv_pos_as_xyz
  'x, y, z'

loop_
  _atom_site_label
  _atom_site_occupancy
  _atom_site_fract_x
  _atom_site_fract_y
  _atom_site_fract_z
  _atom_site_thermal_displace_type
  _atom_site_B_iso_or_equiv
  _atom_site_type_symbol
  C1       1.0000 0.58626  0.49766  0.28326  Biso   1.000  C
  N1       1.0000 0.58105  0.55503  0.33681  Biso   1.000  N
  H1       1.0000 0.56692  0.42730  0.27001  Biso   1.000  H
  H2       1.0000 0.56670  0.53929  0.23278  Biso   1.000  H
  N2       1.0000 0.64420  0.47902  0.31552  Biso   1.000  N
  C2       1.0000 0.58641  0.50581  0.40247  Biso   1.000  C
  C3       1.0000 0.57060  0.66347  0.33105  Biso   1.000  C
  C4       1.0000 0.67623  0.38430  0.36128  Biso   1.000  C
  C5       1.0000 0.66823  0.53268  0.28776  Biso   1.000  C
  C6       1.0000 0.57272  0.60037  0.43521  Biso   1.000  C
  H3       1.0000 0.55937  0.44457  0.38376  Biso   1.000  H
  N3       1.0000 0.64315  0.47555  0.47083  Biso   1.000  N
  N4       1.0000 0.56871  0.69251  0.39078  Biso   1.000  N
  O1       1.0000 0.56335  0.72277  0.27967  Biso   1.000  O
  N5       1.0000 0.70130  0.38874  0.44492  Biso   1.000  N
  H4       1.0000 0.65361  0.31693  0.33531  Biso   1.000  H
  C7       1.0000 0.72790  0.38696  0.36313  Biso   1.000  C
  N6       1.0000 0.71859  0.48499  0.31900  Biso   1.000  N
  O2       1.0000 0.64772  0.60941  0.24183  Biso   1.000  O
  H5       1.0000 0.53669  0.58770  0.42627  Biso   1.000  H
  N7       1.0000 0.62062  0.60166  0.51958  Biso   1.000  N
  C8       1.0000 0.65967  0.52533  0.53990  Biso   1.000  C
  C9       1.0000 0.66935  0.37607  0.47311  Biso   1.000  C
  C10      1.0000 0.54664  0.79498  0.39132  Biso   1.000  C
  C11      1.0000 0.75890  0.38212  0.49451  Biso   1.000  C
  N8       1.0000 0.77506  0.38922  0.44756  Biso   1.000  N
  H6       1.0000 0.72910  0.32193  0.33657  Biso   1.000  H
  C12      1.0000 0.75288  0.51791  0.29700  Biso   1.000  C
  C13      1.0000 0.62384  0.66460  0.57846  Biso   1.000  C
  O3       1.0000 0.70142  0.50315  0.60736  Biso   1.000  O
  H7       1.0000 0.63961  0.32128  0.43971  Biso   1.000  H
  H8       1.0000 0.69458  0.34888  0.52887  Biso   1.000  H
  H9       1.0000 0.52928  0.83177  0.33957  Biso   1.000  H
  H10      1.0000 0.51661  0.78207  0.39569  Biso   1.000  H
  N9       1.0000 0.58849  0.86558  0.45572  Biso   1.000  N
  O4       1.0000 0.79007  0.37066  0.56671  Biso   1.000  O
  C14      1.0000 0.83386  0.38527  0.48042  Biso   1.000  C
  N10      1.0000 0.80119  0.58262  0.35726  Biso   1.000  N
  H11      1.0000 0.72919  0.55963  0.24639  Biso   1.000  H
  H12      1.0000 0.76620  0.45264  0.28668  Biso   1.000  H
  H13      1.0000 0.58607  0.66718  0.56425  Biso   1.000  H
  H14      1.0000 0.64970  0.62829  0.63117  Biso   1.000  H
  N11      1.0000 0.64342  0.77408  0.58584  Biso   1.000  N
  C15      1.0000 0.60658  0.86203  0.53625  Biso   1.000  C
  C16      1.0000 0.60628  0.95756  0.44204  Biso   1.000  C
  N12      1.0000 0.85742  0.48991  0.48678  Biso   1.000  N
  H15      1.0000 0.83702  0.33839  0.44600  Biso   1.000  H
  H16      1.0000 0.85650  0.35203  0.53439  Biso   1.000  H
  C17      1.0000 0.85509  0.53752  0.42328  Biso   1.000  C
  C18      1.0000 0.80397  0.69146  0.35000  Biso   1.000  C
  C19      1.0000 0.69601  0.80854  0.64994  Biso   1.000  C
  C20      1.0000 0.64486  0.96248  0.57666  Biso   1.000  C
  H17      1.0000 0.57366  0.86639  0.53595  Biso   1.000  H
  O5       1.0000 0.59092  0.98757  0.37693  Biso   1.000  O
  N13      1.0000 0.64256  0.01009  0.51316  Biso   1.000  N
  C21      1.0000 0.89370  0.54244  0.55789  Biso   1.000  C
  H18      1.0000 0.86969  0.48669  0.40379  Biso   1.000  H
  C22      1.0000 0.89340  0.63797  0.46369  Biso   1.000  C
  N14      1.0000 0.85656  0.72592  0.41410  Biso   1.000  N
  O6       1.0000 0.76716  0.74746  0.29496  Biso   1.000  O
  N15      1.0000 0.69876  0.91738  0.64268  Biso   1.000  N
  O7       1.0000 0.73279  0.75254  0.70498  Biso   1.000  O
  H19      1.0000 0.63029  0.01331  0.59615  Biso   1.000  H
  C23      1.0000 0.66612  0.11473  0.51952  Biso   1.000  C
  N16      1.0000 0.91149  0.63442  0.54422  Biso   1.000  N
  O8       1.0000 0.90909  0.51243  0.62307  Biso   1.000  O
  H20      1.0000 0.92628  0.63361  0.46399  Biso   1.000  H
  C24      1.0000 0.87614  0.83540  0.42148  Biso   1.000  C
  C25      1.0000 0.74713  0.98209  0.70300  Biso   1.000  C
  H21      1.0000 0.66299  0.16161  0.55399  Biso   1.000  H
  H22      1.0000 0.64348  0.14797  0.46555  Biso   1.000  H
  N17      1.0000 0.72492  0.11078  0.55238  Biso   1.000  N
  C26      1.0000 0.95334  0.70502  0.60862  Biso   1.000  C
  H23      1.0000 0.91391  0.83282  0.43569  Biso   1.000  H
  H24      1.0000 0.85028  0.87171  0.36877  Biso   1.000  H
  N18      1.0000 0.87939  0.89834  0.48042  Biso   1.000  N
  H25      1.0000 0.77079  0.94037  0.75355  Biso   1.000  H
  H26      1.0000 0.73378  0.04736  0.71326  Biso   1.000  H
  N19      1.0000 0.78139  0.01501  0.68094  Biso   1.000  N
  C27      1.0000 0.77208  0.11304  0.63680  Biso   1.000  C
  C28      1.0000 0.74108  0.11788  0.50543  Biso   1.000  C
  H27      1.0000 0.97070  0.66823  0.66037  Biso   1.000  H
  H28      1.0000 0.98338  0.71793  0.60424  Biso   1.000  H
  N20      1.0000 0.93128  0.80749  0.60916  Biso   1.000  N
  C29      1.0000 0.84031  0.97467  0.46003  Biso   1.000  C
  C30      1.0000 0.92726  0.89963  0.56473  Biso   1.000  C
  C31      1.0000 0.83175  0.96732  0.71218  Biso   1.000  C
  C32      1.0000 0.82375  0.11570  0.63866  Biso   1.000  C
  H29      1.0000 0.77088  0.17807  0.66337  Biso   1.000  H
  N21      1.0000 0.79868  0.11126  0.55501  Biso   1.000  N
  O9       1.0000 0.70991  0.12934  0.43323  Biso   1.000  O
  C33      1.0000 0.92938  0.83653  0.66888  Biso   1.000  C
  N22      1.0000 0.85683  0.02445  0.52911  Biso   1.000  N
  O10      1.0000 0.79856  0.99685  0.39258  Biso   1.000  O
  C34      1.0000 0.91357  0.99419  0.59747  Biso   1.000  C
  H30      1.0000 0.96329  0.91230  0.57366  Biso   1.000  H
  O11      1.0000 0.85226  0.89059  0.75811  Biso   1.000  O
  N23      1.0000 0.85578  0.02098  0.68441  Biso   1.000  N
  H31      1.0000 0.84639  0.18307  0.66469  Biso   1.000  H
  C35      1.0000 0.83063  0.12393  0.52689  Biso   1.000  C
  N24      1.0000 0.91895  0.94497  0.66319  Biso   1.000  N
  O12      1.0000 0.93663  0.77723  0.72027  Biso   1.000  O
  H32      1.0000 0.94061  0.05543  0.61618  Biso   1.000  H
  C36      1.0000 0.91372  0.00234  0.71667  Biso   1.000  C
  H33      1.0000 0.86039  0.17872  0.56029  Biso   1.000  H
  H34      1.0000 0.80540  0.15112  0.47107  Biso   1.000  H
  H35      1.0000 0.93328  0.96071  0.76716  Biso   1.000  H
  H36      1.0000 0.93309  0.07270  0.72999  Biso   1.000  H
  C37      1.0000 0.41373  0.49766  0.21671  Biso   1.000  C
  C38      1.0000 0.41376  0.49766  0.21671  Biso   1.000  C
  C39      1.0000 0.42939  0.66347  0.16891  Biso   1.000  C
  C40      1.0000 0.41362  0.50581  0.09750  Biso   1.000  C
  N25      1.0000 0.35582  0.47902  0.18445  Biso   1.000  N
  N26      1.0000 0.41896  0.55503  0.16322  Biso   1.000  N
  H37      1.0000 0.43313  0.42730  0.23002  Biso   1.000  H
  H38      1.0000 0.43332  0.53929  0.26719  Biso   1.000  H
  N27      1.0000 0.43128  0.69251  0.10919  Biso   1.000  N
  N28      1.0000 0.43134  0.69251  0.10925  Biso   1.000  N
  O13      1.0000 0.43667  0.72277  0.22030  Biso   1.000  O
  N29      1.0000 0.35684  0.47555  0.02914  Biso   1.000  N
  N30      1.0000 0.35688  0.47555  0.02914  Biso   1.000  N
  C41      1.0000 0.42727  0.60037  0.06476  Biso   1.000  C
  H39      1.0000 0.44062  0.44457  0.11621  Biso   1.000  H
  C42      1.0000 0.33176  0.53268  0.21221  Biso   1.000  C
  C43      1.0000 0.33179  0.53268  0.21221  Biso   1.000  C
  C44      1.0000 0.32376  0.38430  0.13869  Biso   1.000  C
  C45      1.0000 0.32382  0.38430  0.13875  Biso   1.000  C
  C46      1.0000 0.45338  0.79498  0.10871  Biso   1.000  C
  C47      1.0000 0.33064  0.37607  0.02686  Biso   1.000  C
  C48      1.0000 0.33067  0.37607  0.02692  Biso   1.000  C
  C49      1.0000 0.34026  0.52533  0.96000  Biso   1.000  C
  N31      1.0000 0.37931  0.60166  0.98033  Biso   1.000  N
  N32      1.0000 0.37937  0.60166  0.98039  Biso   1.000  N
  H40      1.0000 0.46330  0.58770  0.07369  Biso   1.000  H
  N33      1.0000 0.28140  0.48499  0.18097  Biso   1.000  N
  O14      1.0000 0.35230  0.60941  0.25814  Biso   1.000  O
  C50      1.0000 0.27209  0.38696  0.13683  Biso   1.000  C
  C51      1.0000 0.27213  0.38696  0.13683  Biso   1.000  C
  N34      1.0000 0.29869  0.38874  0.05505  Biso   1.000  N
  H41      1.0000 0.34644  0.31693  0.16472  Biso   1.000  H
  N35      1.0000 0.29872  0.38874  0.05505  Biso   1.000  N
  H42      1.0000 0.47071  0.83177  0.16040  Biso   1.000  H
  N36      1.0000 0.41150  0.86558  0.04425  Biso   1.000  N
  H43      1.0000 0.48338  0.78207  0.10428  Biso   1.000  H
  H44      1.0000 0.48344  0.78207  0.10434  Biso   1.000  H
  H45      1.0000 0.30535  0.34888  0.97104  Biso   1.000  H
  H46      1.0000 0.36044  0.32128  0.06032  Biso   1.000  H
  O15      1.0000 0.29851  0.50315  0.89255  Biso   1.000  O
  C52      1.0000 0.37609  0.66460  0.92145  Biso   1.000  C
  C53      1.0000 0.24711  0.51791  0.20297  Biso   1.000  C
  C54      1.0000 0.24714  0.51791  0.20303  Biso   1.000  C
  N37      1.0000 0.22493  0.38922  0.05241  Biso   1.000  N
  H47      1.0000 0.27093  0.32193  0.16340  Biso   1.000  H
  C55      1.0000 0.24109  0.38212  0.00546  Biso   1.000  C
  C56      1.0000 0.39335  0.86203  0.96366  Biso   1.000  C
  C57      1.0000 0.39371  0.95756  0.05792  Biso   1.000  C
  C58      1.0000 0.39373  0.95756  0.05798  Biso   1.000  C
  H48      1.0000 0.41386  0.66718  0.93566  Biso   1.000  H
  N38      1.0000 0.35655  0.77408  0.91407  Biso   1.000  N
  H49      1.0000 0.35026  0.62829  0.86874  Biso   1.000  H
  H50      1.0000 0.27080  0.55963  0.25358  Biso   1.000  H
  H51      1.0000 0.23379  0.45264  0.21329  Biso   1.000  H
  N39      1.0000 0.19883  0.58262  0.14277  Biso   1.000  N
  H52      1.0000 0.23382  0.45264  0.21329  Biso   1.000  H
  C59      1.0000 0.16613  0.38527  0.01955  Biso   1.000  C
  O16      1.0000 0.20986  0.37066  0.93320  Biso   1.000  O
  C60      1.0000 0.35507  0.96248  0.92325  Biso   1.000  C
  H53      1.0000 0.42627  0.86639  0.96396  Biso   1.000  H
  O17      1.0000 0.40910  0.98757  0.12310  Biso   1.000  O
  O18      1.0000 0.40913  0.98757  0.12310  Biso   1.000  O
  N40      1.0000 0.35741  0.01009  0.98675  Biso   1.000  N
  C61      1.0000 0.30395  0.80854  0.84997  Biso   1.000  C
  C62      1.0000 0.14490  0.53752  0.07669  Biso   1.000  C
  C63      1.0000 0.19602  0.69146  0.14997  Biso   1.000  C
  N41      1.0000 0.14257  0.48991  0.01319  Biso   1.000  N
  H54      1.0000 0.14343  0.35203  0.96552  Biso   1.000  H
  H55      1.0000 0.14349  0.35203  0.96558  Biso   1.000  H
  H56      1.0000 0.16300  0.33839  0.05403  Biso   1.000  H
  H57      1.0000 0.16303  0.33839  0.05403  Biso   1.000  H
  N42      1.0000 0.30117  0.91738  0.85723  Biso   1.000  N
  H58      1.0000 0.36967  0.01331  0.90376  Biso   1.000  H
  C64      1.0000 0.33381  0.11473  0.98039  Biso   1.000  C
  C65      1.0000 0.33387  0.11473  0.98045  Biso   1.000  C
  O19      1.0000 0.26714  0.75254  0.79493  Biso   1.000  O
  H59      1.0000 0.13030  0.48669  0.09618  Biso   1.000  H
  C66      1.0000 0.10662  0.63797  0.03628  Biso   1.000  C
  N43      1.0000 0.14343  0.72592  0.08587  Biso   1.000  N
  O20      1.0000 0.23283  0.74746  0.20501  Biso   1.000  O
  C67      1.0000 0.10623  0.54244  0.94202  Biso   1.000  C
  C68      1.0000 0.10627  0.54244  0.94202  Biso   1.000  C
  C69      1.0000 0.25283  0.98209  0.79697  Biso   1.000  C
  C70      1.0000 0.25286  0.98209  0.79697  Biso   1.000  C
  H60      1.0000 0.33694  0.16161  0.94591  Biso   1.000  H
  H61      1.0000 0.33697  0.16161  0.94597  Biso   1.000  H
  N44      1.0000 0.27505  0.11078  0.94753  Biso   1.000  N
  H62      1.0000 0.35654  0.14797  0.03442  Biso   1.000  H
  N45      1.0000 0.08848  0.63442  0.95569  Biso   1.000  N
  H63      1.0000 0.07371  0.63361  0.03598  Biso   1.000  H
  H64      1.0000 0.07373  0.63361  0.03604  Biso   1.000  H
  C71      1.0000 0.12388  0.83540  0.07849  Biso   1.000  C
  O21      1.0000 0.09087  0.51243  0.87690  Biso   1.000  O
  H65      1.0000 0.22914  0.94037  0.74636  Biso   1.000  H
  H66      1.0000 0.22918  0.94037  0.74636  Biso   1.000  H
  H67      1.0000 0.26615  0.04736  0.78665  Biso   1.000  H
  N46      1.0000 0.21858  0.01501  0.81897  Biso   1.000  N
  C72      1.0000 0.25889  0.11788  0.99448  Biso   1.000  C
  C73      1.0000 0.22785  0.11304  0.86311  Biso   1.000  C
  C74      1.0000 0.04659  0.70502  0.89129  Biso   1.000  C
  C75      1.0000 0.04662  0.70502  0.89129  Biso   1.000  C
  H68      1.0000 0.14971  0.87171  0.13120  Biso   1.000  H
  N47      1.0000 0.12063  0.89834  0.01961  Biso   1.000  N
  H69      1.0000 0.08612  0.83282  0.06428  Biso   1.000  H
  C76      1.0000 0.16821  0.96732  0.78779  Biso   1.000  C
  N48      1.0000 0.20125  0.11126  0.94489  Biso   1.000  N
  O22      1.0000 0.29008  0.12934  0.06674  Biso   1.000  O
  O23      1.0000 0.29011  0.12934  0.06674  Biso   1.000  O
  C77      1.0000 0.17618  0.11570  0.86125  Biso   1.000  C
  H70      1.0000 0.22905  0.17807  0.83654  Biso   1.000  H
  H71      1.0000 0.01656  0.71793  0.89566  Biso   1.000  H
  N49      1.0000 0.06866  0.80749  0.89075  Biso   1.000  N
  H72      1.0000 0.02927  0.66823  0.83954  Biso   1.000  H
  C78      1.0000 0.07267  0.89963  0.93518  Biso   1.000  C
  C79      1.0000 0.07270  0.89963  0.93518  Biso   1.000  C
  C80      1.0000 0.15971  0.97467  0.03994  Biso   1.000  C
  N50      1.0000 0.14415  0.02098  0.81549  Biso   1.000  N
  N51      1.0000 0.14418  0.02098  0.81549  Biso   1.000  N
  O24      1.0000 0.14767  0.89059  0.74180  Biso   1.000  O
  C81      1.0000 0.16933  0.12393  0.97308  Biso   1.000  C
  H73      1.0000 0.15354  0.18307  0.83522  Biso   1.000  H
  H74      1.0000 0.15356  0.18307  0.83528  Biso   1.000  H
  C82      1.0000 0.07055  0.83653  0.83103  Biso   1.000  C
  C83      1.0000 0.07058  0.83653  0.83103  Biso   1.000  C
  C84      1.0000 0.08636  0.99419  0.90244  Biso   1.000  C
  H75      1.0000 0.03667  0.91230  0.92625  Biso   1.000  H
  C85      1.0000 0.08638  0.99419  0.90250  Biso   1.000  C
  O25      1.0000 0.20143  0.99685  0.10739  Biso   1.000  O
  O26      1.0000 0.20149  0.99685  0.10745  Biso   1.000  O
  N52      1.0000 0.14310  0.02445  0.97080  Biso   1.000  N
  C86      1.0000 0.08621  0.00234  0.78323  Biso   1.000  C
  H76      1.0000 0.13956  0.17872  0.93968  Biso   1.000  H
  H77      1.0000 0.19459  0.15112  0.02890  Biso   1.000  H
  H78      1.0000 0.19463  0.15112  0.02890  Biso   1.000  H
  O27      1.0000 0.06330  0.77723  0.77964  Biso   1.000  O
  N53      1.0000 0.08100  0.94497  0.83678  Biso   1.000  N
  H79      1.0000 0.05936  0.05543  0.88373  Biso   1.000  H
  H80      1.0000 0.06665  0.96071  0.73275  Biso   1.000  H
  H81      1.0000 0.06684  0.07270  0.76992  Biso   1.000  H
  H82      1.0000 0.06687  0.07270  0.76998  Biso   1.000  H
  C87      1.0000 0.62388  0.33540  0.07849  Biso   1.000  C
  H83      1.0000 0.64971  0.37171  0.13120  Biso   1.000  H
  N54      1.0000 0.64343  0.22592  0.08587  Biso   1.000  N
  H84      1.0000 0.58608  0.33282  0.06428  Biso   1.000  H
  N55      1.0000 0.62063  0.39834  0.01961  Biso   1.000  N
  H85      1.0000 0.58612  0.33282  0.06428  Biso   1.000  H
  N56      1.0000 0.62066  0.39834  0.01961  Biso   1.000  N
  C88      1.0000 0.60659  0.13797  0.03628  Biso   1.000  C
  C89      1.0000 0.69602  0.19146  0.14997  Biso   1.000  C
  C90      1.0000 0.60662  0.13797  0.03628  Biso   1.000  C
  C91      1.0000 0.69605  0.19146  0.14997  Biso   1.000  C
  C92      1.0000 0.57270  0.39963  0.93518  Biso   1.000  C
  C93      1.0000 0.65968  0.47467  0.03994  Biso   1.000  C
  C94      1.0000 0.65971  0.47467  0.03994  Biso   1.000  C
  C95      1.0000 0.64490  0.03752  0.07669  Biso   1.000  C
  N57      1.0000 0.58844  0.13442  0.95569  Biso   1.000  N
  N58      1.0000 0.58848  0.13442  0.95569  Biso   1.000  N
  H86      1.0000 0.57371  0.13361  0.03598  Biso   1.000  H
  H87      1.0000 0.57373  0.13361  0.03604  Biso   1.000  H
  O28      1.0000 0.73283  0.24746  0.20501  Biso   1.000  O
  N59      1.0000 0.69883  0.08262  0.14277  Biso   1.000  N
  H88      1.0000 0.53664  0.41230  0.92625  Biso   1.000  H
  C96      1.0000 0.58636  0.49419  0.90244  Biso   1.000  C
  N60      1.0000 0.56866  0.30749  0.89075  Biso   1.000  N
  H89      1.0000 0.53667  0.41230  0.92625  Biso   1.000  H
  C97      1.0000 0.58638  0.49419  0.90250  Biso   1.000  C
  N61      1.0000 0.64313  0.52445  0.97080  Biso   1.000  N
  O29      1.0000 0.70143  0.49685  0.10739  Biso   1.000  O
  O30      1.0000 0.70149  0.49685  0.10745  Biso   1.000  O
  H90      1.0000 0.63030  0.98669  0.09618  Biso   1.000  H
  N62      1.0000 0.64257  0.98991  0.01319  Biso   1.000  N
  N63      1.0000 0.64260  0.98991  0.01319  Biso   1.000  N
  C98      1.0000 0.60623  0.04244  0.94202  Biso   1.000  C
  C99      1.0000 0.54662  0.20502  0.89129  Biso   1.000  C
  C100     1.0000 0.60627  0.04244  0.94202  Biso   1.000  C
  C101     1.0000 0.74711  0.01791  0.20297  Biso   1.000  C
  C102     1.0000 0.74714  0.01791  0.20303  Biso   1.000  C
  H91      1.0000 0.55936  0.55543  0.88373  Biso   1.000  H
  N64      1.0000 0.58098  0.44497  0.83672  Biso   1.000  N
  N65      1.0000 0.58104  0.44497  0.83678  Biso   1.000  N
  C103     1.0000 0.57058  0.33653  0.83103  Biso   1.000  C
  C104     1.0000 0.66933  0.62393  0.97308  Biso   1.000  C
  C105     1.0000 0.66613  0.88527  0.01955  Biso   1.000  C
  C106     1.0000 0.66616  0.88527  0.01955  Biso   1.000  C
  O31      1.0000 0.59087  0.01243  0.87690  Biso   1.000  O
  H92      1.0000 0.52923  0.16823  0.83954  Biso   1.000  H
  H93      1.0000 0.51656  0.21793  0.89566  Biso   1.000  H
  H94      1.0000 0.52927  0.16823  0.83954  Biso   1.000  H
  H95      1.0000 0.51659  0.21793  0.89566  Biso   1.000  H
  H96      1.0000 0.77080  0.05963  0.25358  Biso   1.000  H
  H97      1.0000 0.73379  0.95264  0.21329  Biso   1.000  H
  H98      1.0000 0.73382  0.95264  0.21329  Biso   1.000  H
  N66      1.0000 0.78143  0.98499  0.18097  Biso   1.000  N
  C107     1.0000 0.58621  0.50234  0.78323  Biso   1.000  C
  O32      1.0000 0.56330  0.27723  0.77964  Biso   1.000  O
  O33      1.0000 0.56334  0.27723  0.77964  Biso   1.000  O
  N67      1.0000 0.70125  0.61126  0.94489  Biso   1.000  N
  H99      1.0000 0.63956  0.67872  0.93968  Biso   1.000  H
  N68      1.0000 0.70129  0.61126  0.94489  Biso   1.000  N
  H100     1.0000 0.69463  0.65112  0.02890  Biso   1.000  H
  H101     1.0000 0.64343  0.85203  0.96552  Biso   1.000  H
  H102     1.0000 0.64349  0.85203  0.96558  Biso   1.000  H
  H103     1.0000 0.66303  0.83839  0.05403  Biso   1.000  H
  N69      1.0000 0.72493  0.88922  0.05241  Biso   1.000  N
  N70      1.0000 0.72496  0.88922  0.05241  Biso   1.000  N
  C108     1.0000 0.83179  0.03268  0.21221  Biso   1.000  C
  C109     1.0000 0.77213  0.88696  0.13683  Biso   1.000  C
  H104     1.0000 0.56684  0.57270  0.76992  Biso   1.000  H
  H105     1.0000 0.56665  0.46071  0.73275  Biso   1.000  H
  H106     1.0000 0.56687  0.57270  0.76998  Biso   1.000  H
  H107     1.0000 0.56668  0.46071  0.73275  Biso   1.000  H
  N71      1.0000 0.64418  0.52098  0.81549  Biso   1.000  N
  C110     1.0000 0.75889  0.61788  0.99448  Biso   1.000  C
  C111     1.0000 0.67621  0.61570  0.86125  Biso   1.000  C
  C112     1.0000 0.74109  0.88212  0.00546  Biso   1.000  C
  O34      1.0000 0.85230  0.10941  0.25814  Biso   1.000  O
  N72      1.0000 0.85582  0.97902  0.18445  Biso   1.000  N
  C113     1.0000 0.82376  0.88430  0.13869  Biso   1.000  C
  H108     1.0000 0.77089  0.82193  0.16340  Biso   1.000  H
  C114     1.0000 0.82382  0.88430  0.13875  Biso   1.000  C
  H109     1.0000 0.77093  0.82193  0.16340  Biso   1.000  H
  C115     1.0000 0.66821  0.46732  0.78779  Biso   1.000  C
  H110     1.0000 0.65354  0.68307  0.83522  Biso   1.000  H
  C116     1.0000 0.72785  0.61304  0.86311  Biso   1.000  C
  H111     1.0000 0.65360  0.68307  0.83528  Biso   1.000  H
  N73      1.0000 0.77505  0.61078  0.94753  Biso   1.000  N
  O35      1.0000 0.79008  0.62934  0.06674  Biso   1.000  O
  O36      1.0000 0.79011  0.62934  0.06674  Biso   1.000  O
  O37      1.0000 0.70986  0.87066  0.93320  Biso   1.000  O
  O38      1.0000 0.70990  0.87066  0.93320  Biso   1.000  O
  N74      1.0000 0.79869  0.88874  0.05505  Biso   1.000  N
  N75      1.0000 0.79872  0.88874  0.05505  Biso   1.000  N
  C117     1.0000 0.91376  0.99766  0.21671  Biso   1.000  C
  H112     1.0000 0.84644  0.81693  0.16472  Biso   1.000  H
  O39      1.0000 0.64767  0.39059  0.74180  Biso   1.000  O
  N76      1.0000 0.71858  0.51501  0.81897  Biso   1.000  N
  H113     1.0000 0.72905  0.67807  0.83654  Biso   1.000  H
  H114     1.0000 0.72908  0.67807  0.83654  Biso   1.000  H
  C118     1.0000 0.83381  0.61473  0.98039  Biso   1.000  C
  C119     1.0000 0.83387  0.61473  0.98045  Biso   1.000  C
  C120     1.0000 0.83064  0.87607  0.02686  Biso   1.000  C
  C121     1.0000 0.83067  0.87607  0.02692  Biso   1.000  C
  H115     1.0000 0.93310  0.92730  0.23002  Biso   1.000  H
  H116     1.0000 0.93313  0.92730  0.23002  Biso   1.000  H
  H117     1.0000 0.93329  0.03929  0.26719  Biso   1.000  H
  N77      1.0000 0.91896  0.05503  0.16322  Biso   1.000  N
  H118     1.0000 0.93332  0.03929  0.26719  Biso   1.000  H
  N78      1.0000 0.91900  0.05503  0.16322  Biso   1.000  N
  C122     1.0000 0.75283  0.48209  0.79697  Biso   1.000  C
  C123     1.0000 0.75286  0.48209  0.79697  Biso   1.000  C
  H119     1.0000 0.83694  0.66161  0.94591  Biso   1.000  H
  N79      1.0000 0.85737  0.51009  0.98675  Biso   1.000  N
  H120     1.0000 0.83697  0.66161  0.94597  Biso   1.000  H
  N80      1.0000 0.85741  0.51009  0.98675  Biso   1.000  N
  H121     1.0000 0.85651  0.64797  0.03442  Biso   1.000  H
  H122     1.0000 0.85654  0.64797  0.03442  Biso   1.000  H
  H123     1.0000 0.80535  0.84888  0.97104  Biso   1.000  H
  H124     1.0000 0.86040  0.82128  0.06032  Biso   1.000  H
  H125     1.0000 0.86044  0.82128  0.06032  Biso   1.000  H
  N81      1.0000 0.85688  0.97555  0.02914  Biso   1.000  N
  C124     1.0000 0.92939  0.16347  0.16891  Biso   1.000  C
  C125     1.0000 0.91358  0.00581  0.09750  Biso   1.000  C
  C126     1.0000 0.91362  0.00581  0.09750  Biso   1.000  C
  H126     1.0000 0.76615  0.54736  0.78665  Biso   1.000  H
  N82      1.0000 0.80117  0.41738  0.85723  Biso   1.000  N
  H127     1.0000 0.72918  0.44037  0.74636  Biso   1.000  H
  H128     1.0000 0.76619  0.54736  0.78665  Biso   1.000  H
  C127     1.0000 0.85507  0.46248  0.92325  Biso   1.000  C
  C128     1.0000 0.89371  0.45756  0.05792  Biso   1.000  C
  C129     1.0000 0.89373  0.45756  0.05798  Biso   1.000  C
  C130     1.0000 0.84026  0.02533  0.96000  Biso   1.000  C
  N83      1.0000 0.93132  0.19251  0.10919  Biso   1.000  N
  O40      1.0000 0.93664  0.22277  0.22030  Biso   1.000  O
  N84      1.0000 0.93134  0.19251  0.10925  Biso   1.000  N
  O41      1.0000 0.93667  0.22277  0.22030  Biso   1.000  O
  C131     1.0000 0.92727  0.10037  0.06476  Biso   1.000  C
  H129     1.0000 0.94062  0.94457  0.11621  Biso   1.000  H
  C132     1.0000 0.80395  0.30854  0.84997  Biso   1.000  C
  H130     1.0000 0.86967  0.51331  0.90376  Biso   1.000  H
  C133     1.0000 0.89335  0.36203  0.96366  Biso   1.000  C
  C134     1.0000 0.89338  0.36203  0.96366  Biso   1.000  C
  O42      1.0000 0.90913  0.48757  0.12310  Biso   1.000  O
  N85      1.0000 0.91150  0.36558  0.04425  Biso   1.000  N
  N86      1.0000 0.91153  0.36558  0.04425  Biso   1.000  N
  N87      1.0000 0.87931  0.10166  0.98033  Biso   1.000  N
  O43      1.0000 0.79851  0.00315  0.89255  Biso   1.000  O
  N88      1.0000 0.87937  0.10166  0.98039  Biso   1.000  N
  O44      1.0000 0.79854  0.00315  0.89255  Biso   1.000  O
  C135     1.0000 0.95338  0.29498  0.10871  Biso   1.000  C
  H131     1.0000 0.96330  0.08770  0.07369  Biso   1.000  H
  H132     1.0000 0.96334  0.08770  0.07369  Biso   1.000  H
  N89      1.0000 0.85655  0.27408  0.91407  Biso   1.000  N
  O45      1.0000 0.76714  0.25254  0.79493  Biso   1.000  O
  H133     1.0000 0.92627  0.36639  0.96396  Biso   1.000  H
  C136     1.0000 0.87609  0.16460  0.92145  Biso   1.000  C
  H134     1.0000 0.97071  0.33177  0.16040  Biso   1.000  H
  H135     1.0000 0.98338  0.28207  0.10428  Biso   1.000  H
  H136     1.0000 0.98344  0.28207  0.10434  Biso   1.000  H
  H137     1.0000 0.91386  0.16718  0.93566  Biso   1.000  H
  H138     1.0000 0.85026  0.12829  0.86874  Biso   1.000  H
  C137     1.0000 0.37611  0.33540  0.42148  Biso   1.000  C
  N90      1.0000 0.35656  0.22592  0.41410  Biso   1.000  N
  H139     1.0000 0.41391  0.33282  0.43569  Biso   1.000  H
  H140     1.0000 0.35028  0.37171  0.36877  Biso   1.000  H
  N91      1.0000 0.37939  0.39834  0.48042  Biso   1.000  N
  C138     1.0000 0.30397  0.19146  0.35000  Biso   1.000  C
  C139     1.0000 0.39340  0.13797  0.46369  Biso   1.000  C
  C140     1.0000 0.42726  0.39963  0.56473  Biso   1.000  C
  C141     1.0000 0.34031  0.47467  0.46003  Biso   1.000  C
  O46      1.0000 0.26716  0.24746  0.29496  Biso   1.000  O
  N92      1.0000 0.30119  0.08262  0.35726  Biso   1.000  N
  C142     1.0000 0.35509  0.03752  0.42328  Biso   1.000  C
  H141     1.0000 0.42628  0.13361  0.46399  Biso   1.000  H
  N93      1.0000 0.41149  0.13442  0.54422  Biso   1.000  N
  N94      1.0000 0.43128  0.30749  0.60916  Biso   1.000  N
  H142     1.0000 0.46329  0.41230  0.57366  Biso   1.000  H
  C143     1.0000 0.41357  0.49419  0.59747  Biso   1.000  C
  N95      1.0000 0.35683  0.52445  0.52911  Biso   1.000  N
  O47      1.0000 0.29856  0.49685  0.39258  Biso   1.000  O
  C144     1.0000 0.25288  0.01791  0.29700  Biso   1.000  C
  H143     1.0000 0.36969  0.98669  0.40379  Biso   1.000  H
  N96      1.0000 0.35742  0.98991  0.48678  Biso   1.000  N
  C145     1.0000 0.39370  0.04244  0.55789  Biso   1.000  C
  C146     1.0000 0.45331  0.20502  0.60862  Biso   1.000  C
  C147     1.0000 0.42935  0.33653  0.66888  Biso   1.000  C
  H144     1.0000 0.44058  0.55543  0.61618  Biso   1.000  H
  N97      1.0000 0.41895  0.44497  0.66319  Biso   1.000  N
  C148     1.0000 0.33063  0.62393  0.52689  Biso   1.000  C
  H145     1.0000 0.22919  0.05963  0.24639  Biso   1.000  H
  H146     1.0000 0.26620  0.95264  0.28668  Biso   1.000  H
  N98      1.0000 0.21859  0.98499  0.31900  Biso   1.000  N
  C149     1.0000 0.33386  0.88527  0.48042  Biso   1.000  C
  O48      1.0000 0.40909  0.01243  0.62307  Biso   1.000  O
  H147     1.0000 0.47070  0.16823  0.66037  Biso   1.000  H
  H148     1.0000 0.48338  0.21793  0.60424  Biso   1.000  H
  O49      1.0000 0.43663  0.27723  0.72027  Biso   1.000  O
  C150     1.0000 0.41372  0.50234  0.71667  Biso   1.000  C
  H149     1.0000 0.36039  0.67872  0.56029  Biso   1.000  H
  H150     1.0000 0.30540  0.65112  0.47107  Biso   1.000  H
  N99      1.0000 0.29868  0.61126  0.55501  Biso   1.000  N
  C151     1.0000 0.16820  0.03268  0.28776  Biso   1.000  C
  C152     1.0000 0.22786  0.88696  0.36313  Biso   1.000  C
  H151     1.0000 0.33699  0.83839  0.44600  Biso   1.000  H
  H152     1.0000 0.35650  0.85203  0.53439  Biso   1.000  H
  N100     1.0000 0.27506  0.88922  0.44756  Biso   1.000  N
  H153     1.0000 0.43309  0.57270  0.72999  Biso   1.000  H
  H154     1.0000 0.43328  0.46071  0.76716  Biso   1.000  H
  N101     1.0000 0.35578  0.52098  0.68441  Biso   1.000  N
  C153     1.0000 0.32375  0.61570  0.63866  Biso   1.000  C
  C154     1.0000 0.24105  0.61788  0.50543  Biso   1.000  C
  O50      1.0000 0.14769  0.10941  0.24183  Biso   1.000  O
  N102     1.0000 0.14420  0.97902  0.31552  Biso   1.000  N
  C155     1.0000 0.17623  0.88430  0.36128  Biso   1.000  C
  H155     1.0000 0.22910  0.82193  0.33657  Biso   1.000  H
  C156     1.0000 0.25890  0.88212  0.49451  Biso   1.000  C
  C157     1.0000 0.33175  0.46732  0.71218  Biso   1.000  C
  H156     1.0000 0.34639  0.68307  0.66469  Biso   1.000  H
  C158     1.0000 0.27208  0.61304  0.63680  Biso   1.000  C
  N103     1.0000 0.22492  0.61078  0.55238  Biso   1.000  N
  O51      1.0000 0.20991  0.62934  0.43323  Biso   1.000  O
  C159     1.0000 0.08626  0.99766  0.28326  Biso   1.000  C
  H157     1.0000 0.15361  0.81693  0.33531  Biso   1.000  H
  N104     1.0000 0.20130  0.88874  0.44492  Biso   1.000  N
  O52      1.0000 0.29007  0.87066  0.56671  Biso   1.000  O
  N105     1.0000 0.28139  0.51501  0.68094  Biso   1.000  N
  O53      1.0000 0.35226  0.39059  0.75811  Biso   1.000  O
  H158     1.0000 0.27088  0.67807  0.66337  Biso   1.000  H
  C160     1.0000 0.16612  0.61473  0.51952  Biso   1.000  C
  H159     1.0000 0.06670  0.03929  0.23278  Biso   1.000  H
  N106     1.0000 0.08105  0.05503  0.33681  Biso   1.000  N
  H160     1.0000 0.06692  0.92730  0.27001  Biso   1.000  H
  C161     1.0000 0.16935  0.87607  0.47311  Biso   1.000  C
  C162     1.0000 0.24713  0.48209  0.70300  Biso   1.000  C
  H161     1.0000 0.16299  0.66161  0.55399  Biso   1.000  H
  H162     1.0000 0.14348  0.64797  0.46555  Biso   1.000  H
  N107     1.0000 0.14256  0.51009  0.51316  Biso   1.000  N
  C163     1.0000 0.08641  0.00581  0.40247  Biso   1.000  C
  C164     1.0000 0.07060  0.16347  0.33105  Biso   1.000  C
  H163     1.0000 0.13961  0.82128  0.43971  Biso   1.000  H
  H164     1.0000 0.19458  0.84888  0.52887  Biso   1.000  H
  N108     1.0000 0.14315  0.97555  0.47083  Biso   1.000  N
  H165     1.0000 0.27079  0.44037  0.75355  Biso   1.000  H
  H166     1.0000 0.23378  0.54736  0.71326  Biso   1.000  H
  N109     1.0000 0.19876  0.41738  0.64268  Biso   1.000  N
  C165     1.0000 0.10628  0.45756  0.44204  Biso   1.000  C
  C166     1.0000 0.14486  0.46248  0.57666  Biso   1.000  C
  C167     1.0000 0.07272  0.10037  0.43521  Biso   1.000  C
  H167     1.0000 0.05937  0.94457  0.38376  Biso   1.000  H
  N110     1.0000 0.06867  0.19251  0.39078  Biso   1.000  N
  O54      1.0000 0.06335  0.22277  0.27967  Biso   1.000  O
  C168     1.0000 0.15967  0.02533  0.53990  Biso   1.000  C
  C169     1.0000 0.19601  0.30854  0.64994  Biso   1.000  C
  N111     1.0000 0.08849  0.36558  0.45572  Biso   1.000  N
  O55      1.0000 0.09088  0.48757  0.37693  Biso   1.000  O
  C170     1.0000 0.10658  0.36203  0.53625  Biso   1.000  C
  H168     1.0000 0.13026  0.51331  0.59615  Biso   1.000  H
  H169     1.0000 0.03669  0.08770  0.42627  Biso   1.000  H
  N112     1.0000 0.12062  0.10166  0.51958  Biso   1.000  N
  C171     1.0000 0.04664  0.29498  0.39132  Biso   1.000  C
  O56      1.0000 0.20142  0.00315  0.60736  Biso   1.000  O
  N113     1.0000 0.14338  0.27408  0.58584  Biso   1.000  N
  O57      1.0000 0.23279  0.25254  0.70498  Biso   1.000  O
  H170     1.0000 0.07366  0.36639  0.53595  Biso   1.000  H
  C172     1.0000 0.12384  0.16460  0.57846  Biso   1.000  C
  H171     1.0000 0.02928  0.33177  0.33957  Biso   1.000  H
  H172     1.0000 0.01661  0.28207  0.39569  Biso   1.000  H
  H173     1.0000 0.08607  0.16718  0.56425  Biso   1.000  H
  H174     1.0000 0.14967  0.12829  0.63117  Biso   1.000  H
