data_image0
_cell_length_a       17.247
_cell_length_b       18.304
_cell_length_c       23.696
_cell_angle_alpha    79.92
_cell_angle_beta     75.04
_cell_angle_gamma    68.58

_symmetry_space_group_name_H-M    "P 1"
_symmetry_int_tables_number       1

loop_
  _symmetry_equiv_pos_as_xyz
  'x, y, z'

loop_
  _atom_site_label
  _atom_site_occupancy
  _atom_site_fract_x
  _atom_site_fract_y
  _atom_site_fract_z
  _atom_site_thermal_displace_type
  _atom_site_B_iso_or_equiv
  _atom_site_type_symbol
  C1       1.0000 0.53247  0.52926  0.42548  Biso   1.000  C
  C2       1.0000 0.47476  0.51027  0.40197  Biso   1.000  C
  C3       1.0000 0.50889  0.60455  0.44547  Biso   1.000  C
  C4       1.0000 0.61608  0.47393  0.42298  Biso   1.000  C
  C5       1.0000 0.38889  0.56714  0.40341  Biso   1.000  C
  C6       1.0000 0.50656  0.44275  0.37105  Biso   1.000  C
  C7       1.0000 0.43458  0.66097  0.43754  Biso   1.000  C
  H1       1.0000 0.54896  0.62405  0.45898  Biso   1.000  H
  H2       1.0000 0.65000  0.49306  0.44100  Biso   1.000  H
  C8       1.0000 0.64462  0.40692  0.39416  Biso   1.000  C
  C9       1.0000 0.32197  0.55106  0.38684  Biso   1.000  C
  C10      1.0000 0.37414  0.64415  0.41398  Biso   1.000  C
  C11      1.0000 0.59052  0.39262  0.36486  Biso   1.000  C
  H3       1.0000 0.46499  0.44003  0.35131  Biso   1.000  H
  H4       1.0000 0.41397  0.71206  0.46499  Biso   1.000  H
  H5       1.0000 0.70800  0.36804  0.39201  Biso   1.000  H
  C12      1.0000 0.31077  0.47392  0.39973  Biso   1.000  C
  C13      1.0000 0.26085  0.61385  0.36206  Biso   1.000  C
  C14      1.0000 0.30276  0.70655  0.39828  Biso   1.000  C
  C15      1.0000 0.62099  0.32815  0.32570  Biso   1.000  C
  C16      1.0000 0.25031  0.45943  0.37727  Biso   1.000  C
  C17      1.0000 0.34849  0.41762  0.44368  Biso   1.000  C
  C18      1.0000 0.19835  0.59885  0.33806  Biso   1.000  C
  C19      1.0000 0.25196  0.69224  0.36995  Biso   1.000  C
  H6       1.0000 0.29294  0.76007  0.40802  Biso   1.000  H
  C20      1.0000 0.59508  0.34084  0.27355  Biso   1.000  C
  C21      1.0000 0.67410  0.25105  0.34210  Biso   1.000  C
  C22      1.0000 0.24811  0.37953  0.38578  Biso   1.000  C
  C23      1.0000 0.18718  0.52545  0.35201  Biso   1.000  C
  C24      1.0000 0.32880  0.35083  0.46214  Biso   1.000  C
  H7       1.0000 0.38801  0.43503  0.46328  Biso   1.000  H
  C25      1.0000 0.14229  0.65963  0.30464  Biso   1.000  C
  H8       1.0000 0.20596  0.73706  0.35701  Biso   1.000  H
  C26      1.0000 0.61421  0.28011  0.23741  Biso   1.000  C
  H9       1.0000 0.55796  0.39902  0.25921  Biso   1.000  H
  C27      1.0000 0.69093  0.19072  0.30907  Biso   1.000  C
  H10      1.0000 0.69103  0.24302  0.37898  Biso   1.000  H
  C28      1.0000 0.22249  0.34764  0.34460  Biso   1.000  C
  C29      1.0000 0.28010  0.32825  0.43188  Biso   1.000  C
  C30      1.0000 0.10636  0.52084  0.35034  Biso   1.000  C
  H11      1.0000 0.34998  0.31806  0.49302  Biso   1.000  H
  C31      1.0000 0.06157  0.65525  0.30684  Biso   1.000  C
  C32      1.0000 0.16775  0.71983  0.26386  Biso   1.000  C
  C33      1.0000 0.58240  0.29289  0.18447  Biso   1.000  C
  C34      1.0000 0.65857  0.20216  0.25850  Biso   1.000  C
  H12      1.0000 0.72300  0.14304  0.31899  Biso   1.000  H
  C35      1.0000 0.20827  0.27351  0.36122  Biso   1.000  C
  C36      1.0000 0.22427  0.37903  0.28583  Biso   1.000  C
  C37      1.0000 0.26467  0.25484  0.44789  Biso   1.000  C
  H13      1.0000 0.09395  0.47507  0.36539  Biso   1.000  H
  C38      1.0000 0.04416  0.58523  0.33324  Biso   1.000  C
  C39      1.0000 0.00042  0.71965  0.28087  Biso   1.000  C
  C40      1.0000 0.10453  0.78394  0.23978  Biso   1.000  C
  C41      1.0000 0.25448  0.71181  0.24127  Biso   1.000  C
  C42      1.0000 0.54677  0.37074  0.15557  Biso   1.000  C
  C43      1.0000 0.57727  0.22805  0.16355  Biso   1.000  C
  C44      1.0000 0.66338  0.13762  0.22965  Biso   1.000  C
  C45      1.0000 0.18369  0.24261  0.32061  Biso   1.000  C
  C46      1.0000 0.22570  0.23086  0.41508  Biso   1.000  C
  C47      1.0000 0.20909  0.34345  0.24504  Biso   1.000  C
  H14      1.0000 0.23800  0.42801  0.27482  Biso   1.000  H
  H15      1.0000 0.28399  0.21902  0.48600  Biso   1.000  H
  H16      1.0000 0.97995  0.58103  0.33741  Biso   1.000  H
  C48      1.0000 0.01925  0.78342  0.25144  Biso   1.000  C
  H17      1.0000 0.94894  0.71102  0.28000  Biso   1.000  H
  C49      1.0000 0.13113  0.84251  0.20035  Biso   1.000  C
  C50      1.0000 0.27916  0.76645  0.19894  Biso   1.000  C
  H18      1.0000 0.30096  0.66503  0.25451  Biso   1.000  H
  C51      1.0000 0.48276  0.38324  0.12491  Biso   1.000  C
  C52      1.0000 0.58200  0.43361  0.15101  Biso   1.000  C
  C53      1.0000 0.52646  0.24164  0.12193  Biso   1.000  C
  C54      1.0000 0.62250  0.15009  0.18561  Biso   1.000  C
  H19      1.0000 0.69581  0.08540  0.24171  Biso   1.000  H
  C55      1.0000 0.18388  0.27603  0.26443  Biso   1.000  C
  H20      1.0000 0.17797  0.18601  0.32960  Biso   1.000  H
  H21      1.0000 0.21398  0.17803  0.42201  Biso   1.000  H
  C56      1.0000 0.22256  0.37380  0.18223  Biso   1.000  C
  H22      1.0000 0.97398  0.82803  0.22899  Biso   1.000  H
  H23      1.0000 0.07896  0.89400  0.18899  Biso   1.000  H
  C57      1.0000 0.21574  0.83453  0.18092  Biso   1.000  C
  C58      1.0000 0.37166  0.75015  0.17500  Biso   1.000  C
  C59      1.0000 0.43708  0.46239  0.10263  Biso   1.000  C
  C60      1.0000 0.47447  0.31561  0.10759  Biso   1.000  C
  C61      1.0000 0.53885  0.51004  0.12899  Biso   1.000  C
  C62      1.0000 0.66702  0.41529  0.15837  Biso   1.000  C
  H24      1.0000 0.52601  0.19003  0.10899  Biso   1.000  H
  H25      1.0000 0.61298  0.11799  0.16662  Biso   1.000  H
  H26      1.0000 0.16500  0.25305  0.23798  Biso   1.000  H
  C63      1.0000 0.16635  0.37862  0.14614  Biso   1.000  C
  C64      1.0000 0.28936  0.40295  0.15807  Biso   1.000  C
  H27      1.0000 0.23396  0.87301  0.14798  Biso   1.000  H
  C65      1.0000 0.42394  0.67483  0.16008  Biso   1.000  C
  C66      1.0000 0.40948  0.80831  0.17057  Biso   1.000  C
  C67      1.0000 0.36377  0.47943  0.07820  Biso   1.000  C
  C68      1.0000 0.47199  0.52220  0.09824  Biso   1.000  C
  H28      1.0000 0.43197  0.32601  0.08118  Biso   1.000  H
  C69      1.0000 0.56916  0.57281  0.13399  Biso   1.000  C
  H29      1.0000 0.70698  0.35801  0.16570  Biso   1.000  H
  C70      1.0000 0.70392  0.47209  0.14627  Biso   1.000  C
  C71      1.0000 0.17279  0.41762  0.09193  Biso   1.000  C
  H30      1.0000 0.11897  0.35704  0.16649  Biso   1.000  H
  H31      1.0000 0.33097  0.39504  0.18131  Biso   1.000  H
  C72      1.0000 0.29878  0.44182  0.10145  Biso   1.000  C
  C73      1.0000 0.51327  0.65382  0.14307  Biso   1.000  C
  H32      1.0000 0.39799  0.63402  0.16180  Biso   1.000  H
  C74      1.0000 0.49575  0.78900  0.15605  Biso   1.000  C
  H33      1.0000 0.36794  0.86703  0.18298  Biso   1.000  H
  C75      1.0000 0.34856  0.54062  0.03311  Biso   1.000  C
  C76      1.0000 0.45009  0.58790  0.05566  Biso   1.000  C
  C77      1.0000 0.65458  0.55261  0.13706  Biso   1.000  C
  H34      1.0000 0.75499  0.46104  0.14890  Biso   1.000  H
  C78      1.0000 0.23634  0.45372  0.06846  Biso   1.000  C
  H35      1.0000 0.13798  0.42104  0.06601  Biso   1.000  H
  C79      1.0000 0.54976  0.71140  0.14399  Biso   1.000  C
  H36      1.0000 0.52496  0.83201  0.15798  Biso   1.000  H
  C80      1.0000 0.28639  0.54960  0.00044  Biso   1.000  C
  C81      1.0000 0.39634  0.59320  0.02092  Biso   1.000  C
  H37      1.0000 0.47495  0.63003  0.04741  Biso   1.000  H
  C82      1.0000 0.69029  0.61303  0.13482  Biso   1.000  C
  C83      1.0000 0.23477  0.50511  0.01610  Biso   1.000  C
  C84      1.0000 0.64027  0.68942  0.13644  Biso   1.000  C
  H38      1.0000 0.27991  0.58914  0.96798  Biso   1.000  H
  H39      1.0000 0.39491  0.63412  0.98531  Biso   1.000  H
  H40      1.0000 0.75199  0.59805  0.13399  Biso   1.000  H
  H41      1.0000 0.18891  0.51112  0.99399  Biso   1.000  H
  H42      1.0000 0.66094  0.73102  0.13702  Biso   1.000  H
  C85      1.0000 0.46746  0.47085  0.57451  Biso   1.000  C
  C86      1.0000 0.49109  0.39556  0.55451  Biso   1.000  C
  C87      1.0000 0.38388  0.52618  0.57705  Biso   1.000  C
  C88      1.0000 0.52515  0.48984  0.59806  Biso   1.000  C
  C89      1.0000 0.56540  0.33915  0.56245  Biso   1.000  C
  H43      1.0000 0.45097  0.37607  0.54100  Biso   1.000  H
  H44      1.0000 0.34999  0.50706  0.55898  Biso   1.000  H
  C90      1.0000 0.35538  0.59313  0.60582  Biso   1.000  C
  C91      1.0000 0.61108  0.43297  0.59661  Biso   1.000  C
  C92      1.0000 0.49336  0.55736  0.62894  Biso   1.000  C
  C93      1.0000 0.62579  0.35597  0.58600  Biso   1.000  C
  H45      1.0000 0.58601  0.28806  0.53499  Biso   1.000  H
  H46      1.0000 0.29197  0.63207  0.60802  Biso   1.000  H
  C94      1.0000 0.40949  0.60744  0.63512  Biso   1.000  C
  C95      1.0000 0.67801  0.44905  0.61315  Biso   1.000  C
  H47      1.0000 0.53498  0.56008  0.64872  Biso   1.000  H
  C96      1.0000 0.69717  0.29357  0.60170  Biso   1.000  C
  C97      1.0000 0.37894  0.67196  0.67429  Biso   1.000  C
  C98      1.0000 0.73907  0.38626  0.63793  Biso   1.000  C
  C99      1.0000 0.68918  0.52614  0.60025  Biso   1.000  C
  C100     1.0000 0.74801  0.30787  0.63008  Biso   1.000  C
  H48      1.0000 0.70697  0.24004  0.59201  Biso   1.000  H
  C101     1.0000 0.32588  0.74906  0.65788  Biso   1.000  C
  C102     1.0000 0.40484  0.65928  0.72643  Biso   1.000  C
  C103     1.0000 0.80157  0.40127  0.66192  Biso   1.000  C
  C104     1.0000 0.74967  0.54068  0.62271  Biso   1.000  C
  C105     1.0000 0.65150  0.58243  0.55635  Biso   1.000  C
  H49      1.0000 0.79401  0.26305  0.64302  Biso   1.000  H
  C106     1.0000 0.30905  0.80940  0.69091  Biso   1.000  C
  H50      1.0000 0.30895  0.75709  0.62100  Biso   1.000  H
  H51      1.0000 0.44197  0.60109  0.74078  Biso   1.000  H
  C107     1.0000 0.38577  0.72000  0.76257  Biso   1.000  C
  C108     1.0000 0.81280  0.47467  0.64797  Biso   1.000  C
  C109     1.0000 0.85769  0.34049  0.69534  Biso   1.000  C
  C110     1.0000 0.75187  0.62058  0.61420  Biso   1.000  C
  H52      1.0000 0.61199  0.56503  0.53670  Biso   1.000  H
  C111     1.0000 0.67118  0.64928  0.53784  Biso   1.000  C
  C112     1.0000 0.34135  0.79796  0.74148  Biso   1.000  C
  H53      1.0000 0.27692  0.85707  0.68100  Biso   1.000  H
  C113     1.0000 0.41754  0.70716  0.81551  Biso   1.000  C
  C114     1.0000 0.89357  0.47928  0.64964  Biso   1.000  C
  C115     1.0000 0.93841  0.34486  0.69315  Biso   1.000  C
  C116     1.0000 0.83217  0.28029  0.73613  Biso   1.000  C
  C117     1.0000 0.71988  0.67186  0.56810  Biso   1.000  C
  C118     1.0000 0.77748  0.65247  0.65543  Biso   1.000  C
  H54      1.0000 0.64999  0.68205  0.50701  Biso   1.000  H
  C119     1.0000 0.33654  0.86249  0.77034  Biso   1.000  C
  C120     1.0000 0.45315  0.62938  0.84442  Biso   1.000  C
  C121     1.0000 0.42266  0.77207  0.83643  Biso   1.000  C
  H55      1.0000 0.90598  0.52505  0.63459  Biso   1.000  H
  C122     1.0000 0.95577  0.41489  0.66674  Biso   1.000  C
  C123     1.0000 0.99949  0.28045  0.71915  Biso   1.000  C
  C124     1.0000 0.89539  0.21617  0.76021  Biso   1.000  C
  C125     1.0000 0.74553  0.28824  0.75871  Biso   1.000  C
  C126     1.0000 0.73524  0.74527  0.55214  Biso   1.000  C
  C127     1.0000 0.79167  0.72654  0.63876  Biso   1.000  C
  C128     1.0000 0.77566  0.62109  0.71415  Biso   1.000  C
  C129     1.0000 0.37743  0.84996  0.81442  Biso   1.000  C
  H56      1.0000 0.30414  0.91465  0.75828  Biso   1.000  H
  C130     1.0000 0.41797  0.56650  0.84902  Biso   1.000  C
  C131     1.0000 0.51717  0.61688  0.87507  Biso   1.000  C
  C132     1.0000 0.47345  0.75847  0.87810  Biso   1.000  C
  H57      1.0000 0.01998  0.41909  0.66258  Biso   1.000  H
  C133     1.0000 0.98069  0.21664  0.74854  Biso   1.000  C
  H58      1.0000 0.05101  0.28904  0.71999  Biso   1.000  H
  C134     1.0000 0.86878  0.15759  0.79968  Biso   1.000  C
  C135     1.0000 0.72077  0.23366  0.80104  Biso   1.000  C
  H59      1.0000 0.69895  0.33508  0.74551  Biso   1.000  H
  H60      1.0000 0.71595  0.78103  0.51398  Biso   1.000  H
  C136     1.0000 0.77428  0.76925  0.58490  Biso   1.000  C
  C137     1.0000 0.81625  0.75744  0.67942  Biso   1.000  C
  C138     1.0000 0.79089  0.65666  0.75494  Biso   1.000  C
  H61      1.0000 0.76199  0.57204  0.72521  Biso   1.000  H
  H62      1.0000 0.38695  0.88206  0.83341  Biso   1.000  H
  C139     1.0000 0.46106  0.49007  0.87104  Biso   1.000  C
  C140     1.0000 0.33298  0.58476  0.84161  Biso   1.000  C
  C141     1.0000 0.56286  0.53766  0.89740  Biso   1.000  C
  C142     1.0000 0.52546  0.68451  0.89240  Biso   1.000  C
  H63      1.0000 0.47397  0.81009  0.89099  Biso   1.000  H
  H64      1.0000 0.02600  0.17209  0.77100  Biso   1.000  H
  H65      1.0000 0.92098  0.10605  0.81099  Biso   1.000  H
  C143     1.0000 0.78419  0.16558  0.81906  Biso   1.000  C
  C144     1.0000 0.62831  0.24996  0.82503  Biso   1.000  C
  H66      1.0000 0.78593  0.82208  0.57802  Biso   1.000  H
  H67      1.0000 0.82198  0.81405  0.67038  Biso   1.000  H
  C145     1.0000 0.81603  0.72408  0.73560  Biso   1.000  C
  C146     1.0000 0.77738  0.62626  0.81775  Biso   1.000  C
  C147     1.0000 0.52796  0.47786  0.90174  Biso   1.000  C
  C148     1.0000 0.43076  0.42730  0.86599  Biso   1.000  C
  H68      1.0000 0.29295  0.64210  0.83428  Biso   1.000  H
  C149     1.0000 0.29609  0.52796  0.85371  Biso   1.000  C
  C150     1.0000 0.63615  0.52068  0.92183  Biso   1.000  C
  H69      1.0000 0.56796  0.67410  0.91880  Biso   1.000  H
  H70      1.0000 0.76599  0.12705  0.85200  Biso   1.000  H
  C151     1.0000 0.59050  0.19180  0.82942  Biso   1.000  C
  C152     1.0000 0.57598  0.32528  0.83990  Biso   1.000  C
  H71      1.0000 0.83498  0.74707  0.76200  Biso   1.000  H
  C153     1.0000 0.83357  0.62149  0.85384  Biso   1.000  C
  C154     1.0000 0.71057  0.59717  0.84192  Biso   1.000  C
  C155     1.0000 0.54988  0.41221  0.94437  Biso   1.000  C
  C156     1.0000 0.48666  0.34629  0.85691  Biso   1.000  C
  C157     1.0000 0.34540  0.44751  0.86292  Biso   1.000  C
  H72      1.0000 0.24499  0.53908  0.85108  Biso   1.000  H
  C158     1.0000 0.70120  0.55829  0.89854  Biso   1.000  C
  C159     1.0000 0.65135  0.45949  0.96691  Biso   1.000  C
  C160     1.0000 0.50418  0.21105  0.84398  Biso   1.000  C
  H73      1.0000 0.63198  0.13309  0.81700  Biso   1.000  H
  H74      1.0000 0.60199  0.36610  0.83819  Biso   1.000  H
  C161     1.0000 0.82718  0.58249  0.90810  Biso   1.000  C
  H75      1.0000 0.88095  0.64308  0.83349  Biso   1.000  H
  H76      1.0000 0.66894  0.60507  0.81871  Biso   1.000  H
  H77      1.0000 0.52496  0.37008  0.95261  Biso   1.000  H
  C162     1.0000 0.60357  0.40691  0.97911  Biso   1.000  C
  C163     1.0000 0.45018  0.28866  0.85599  Biso   1.000  C
  C164     1.0000 0.30969  0.38708  0.86516  Biso   1.000  C
  C165     1.0000 0.76358  0.54639  0.93152  Biso   1.000  C
  C166     1.0000 0.71359  0.45051  0.99954  Biso   1.000  C
  H78      1.0000 0.47497  0.16810  0.84200  Biso   1.000  H
  H79      1.0000 0.86200  0.57908  0.93397  Biso   1.000  H
  H80      1.0000 0.60501  0.36600  0.01468  Biso   1.000  H
  C167     1.0000 0.35971  0.31069  0.86354  Biso   1.000  C
  H81      1.0000 0.24799  0.40206  0.86599  Biso   1.000  H
  C168     1.0000 0.76516  0.49500  0.98389  Biso   1.000  C
  H82      1.0000 0.72001  0.41097  0.03200  Biso   1.000  H
  H83      1.0000 0.33897  0.26909  0.86301  Biso   1.000  H
  H84      1.0000 0.81102  0.48899  0.00599  Biso   1.000  H
  C169     1.0000 0.57831  0.60032  0.28640  Biso   1.000  C
  C170     1.0000 0.51485  0.67016  0.29223  Biso   1.000  C
  H85      1.0000 0.56400  0.55302  0.28298  Biso   1.000  H
  C171     1.0000 0.66536  0.59462  0.27916  Biso   1.000  C
  C172     1.0000 0.52985  0.73973  0.29881  Biso   1.000  C
  H86      1.0000 0.45897  0.66705  0.29999  Biso   1.000  H
  C173     1.0000 0.73487  0.52622  0.26386  Biso   1.000  C
  C174     1.0000 0.68258  0.66484  0.28140  Biso   1.000  C
  C175     1.0000 0.46364  0.81474  0.30315  Biso   1.000  C
  C176     1.0000 0.61307  0.73515  0.29986  Biso   1.000  C
  H87      1.0000 0.71798  0.48501  0.26399  Biso   1.000  H
  C177     1.0000 0.81601  0.52742  0.24320  Biso   1.000  C
  C178     1.0000 0.76629  0.66535  0.25719  Biso   1.000  C
  C179     1.0000 0.48199  0.88112  0.30311  Biso   1.000  C
  H88      1.0000 0.40796  0.81804  0.30499  Biso   1.000  H
  C180     1.0000 0.62594  0.80264  0.31486  Biso   1.000  C
  H89      1.0000 0.86699  0.47503  0.22701  Biso   1.000  H
  C181     1.0000 0.83237  0.59972  0.23543  Biso   1.000  C
  H90      1.0000 0.78195  0.71705  0.25232  Biso   1.000  H
  C182     1.0000 0.56486  0.87763  0.30671  Biso   1.000  C
  H91      1.0000 0.42896  0.93606  0.30548  Biso   1.000  H
  C183     1.0000 0.69598  0.79393  0.34140  Biso   1.000  C
  C184     1.0000 0.91530  0.60791  0.20307  Biso   1.000  C
  C185     1.0000 0.58134  0.94753  0.31350  Biso   1.000  C
  C186     1.0000 0.71488  0.86144  0.34561  Biso   1.000  C
  C187     1.0000 0.73759  0.72212  0.37236  Biso   1.000  C
  C188     1.0000 0.99401  0.54994  0.20978  Biso   1.000  C
  C189     1.0000 0.91513  0.67524  0.16592  Biso   1.000  C
  C190     1.0000 0.65094  0.93876  0.33758  Biso   1.000  C
  C191     1.0000 0.52518  0.02796  0.30008  Biso   1.000  C
  C192     1.0000 0.79317  0.84963  0.36320  Biso   1.000  C
  H92      1.0000 0.71700  0.67602  0.37600  Biso   1.000  H
  C193     1.0000 0.79749  0.71693  0.40219  Biso   1.000  C
  H93      1.0000 0.99803  0.49701  0.23798  Biso   1.000  H
  C194     1.0000 0.06891  0.56392  0.18342  Biso   1.000  C
  H94      1.0000 0.85998  0.71301  0.16131  Biso   1.000  H
  C195     1.0000 0.99138  0.68961  0.13631  Biso   1.000  C
  C196     1.0000 0.64780  0.00282  0.36600  Biso   1.000  C
  C197     1.0000 0.52113  0.08746  0.33232  Biso   1.000  C
  C198     1.0000 0.48268  0.05075  0.25131  Biso   1.000  C
  C199     1.0000 0.82899  0.78003  0.39631  Biso   1.000  C
  C200     1.0000 0.84284  0.90314  0.34289  Biso   1.000  C
  H95      1.0000 0.82299  0.66906  0.42398  Biso   1.000  H
  C201     1.0000 0.06937  0.63375  0.14750  Biso   1.000  C
  H96      1.0000 0.12301  0.52100  0.18991  Biso   1.000  H
  C202     1.0000 0.99150  0.76369  0.10162  Biso   1.000  C
  H97      1.0000 0.69198  0.99102  0.38741  Biso   1.000  H
  C203     1.0000 0.58047  0.07145  0.36771  Biso   1.000  C
  C204     1.0000 0.45968  0.16554  0.32526  Biso   1.000  C
  C205     1.0000 0.42407  0.12966  0.24469  Biso   1.000  C
  C206     1.0000 0.50479  0.00433  0.20456  Biso   1.000  C
  C207     1.0000 0.89903  0.77147  0.42201  Biso   1.000  C
  C208     1.0000 0.91208  0.89263  0.36872  Biso   1.000  C
  C209     1.0000 0.83306  0.95654  0.29280  Biso   1.000  C
  C210     1.0000 0.14628  0.65160  0.12693  Biso   1.000  C
  C211     1.0000 0.91724  0.82244  0.08267  Biso   1.000  C
  C212     1.0000 0.06596  0.78322  0.09153  Biso   1.000  C
  H98      1.0000 0.57497  0.11007  0.39302  Biso   1.000  H
  H99      1.0000 0.45702  0.20105  0.35298  Biso   1.000  H
  C213     1.0000 0.41182  0.18376  0.28517  Biso   1.000  C
  C214     1.0000 0.38502  0.15306  0.19614  Biso   1.000  C
  H100     1.0000 0.55095  0.94902  0.20631  Biso   1.000  H
  C215     1.0000 0.47002  0.02963  0.15544  Biso   1.000  C
  H101     1.0000 0.92600  0.72402  0.44898  Biso   1.000  H
  C216     1.0000 0.93589  0.82805  0.41122  Biso   1.000  C
  C217     1.0000 0.96066  0.94322  0.34780  Biso   1.000  C
  H102     1.0000 0.79297  0.96202  0.27021  Biso   1.000  H
  C218     1.0000 0.88573  0.00161  0.26947  Biso   1.000  C
  C219     1.0000 0.14398  0.72431  0.10219  Biso   1.000  C
  H103     1.0000 0.19896  0.61400  0.13702  Biso   1.000  H
  C220     1.0000 0.90998  0.90253  0.07741  Biso   1.000  C
  C221     1.0000 0.85389  0.80311  0.06333  Biso   1.000  C
  C222     1.0000 0.06105  0.86321  0.07403  Biso   1.000  C
  H104     1.0000 0.37197  0.23802  0.28100  Biso   1.000  H
  H105     1.0000 0.34700  0.20906  0.19359  Biso   1.000  H
  C223     1.0000 0.40589  0.10454  0.15272  Biso   1.000  C
  C224     1.0000 0.50374  0.97962  0.10539  Biso   1.000  C
  H106     1.0000 0.97297  0.82806  0.43499  Biso   1.000  H
  C225     1.0000 0.94874  0.99594  0.29991  Biso   1.000  C
  H107     1.0000 0.00293  0.94045  0.36780  Biso   1.000  H
  C226     1.0000 0.87733  0.05123  0.21329  Biso   1.000  C
  H108     1.0000 0.19899  0.73903  0.09202  Biso   1.000  H
  C227     1.0000 0.83224  0.96410  0.06715  Biso   1.000  C
  C228     1.0000 0.98608  0.92085  0.07153  Biso   1.000  C
  C229     1.0000 0.78026  0.86232  0.04978  Biso   1.000  C
  C230     1.0000 0.87307  0.72521  0.04697  Biso   1.000  C
  H109     1.0000 0.10898  0.87604  0.06741  Biso   1.000  H
  H110     1.0000 0.38300  0.12300  0.11601  Biso   1.000  H
  C231     1.0000 0.44896  0.96703  0.07544  Biso   1.000  C
  C232     1.0000 0.59003  0.94134  0.08947  Biso   1.000  C
  H111     1.0000 0.98271  0.02897  0.28688  Biso   1.000  H
  C233     1.0000 0.87641  0.13041  0.20684  Biso   1.000  C
  C234     1.0000 0.86303  0.02363  0.16767  Biso   1.000  C
  C235     1.0000 0.77415  0.94430  0.04592  Biso   1.000  C
  C236     1.0000 0.81552  0.04630  0.07267  Biso   1.000  C
  H112     1.0000 0.97797  0.97704  0.06110  Biso   1.000  H
  C237     1.0000 0.71596  0.83990  0.03618  Biso   1.000  C
  H113     1.0000 0.92996  0.68203  0.05180  Biso   1.000  H
  C238     1.0000 0.82121  0.70919  0.01978  Biso   1.000  C
  C239     1.0000 0.48219  0.91122  0.03605  Biso   1.000  C
  H114     1.0000 0.38497  0.99703  0.08609  Biso   1.000  H
  H115     1.0000 0.62592  0.94805  0.10829  Biso   1.000  H
  C240     1.0000 0.62586  0.88541  0.04807  Biso   1.000  C
  C241     1.0000 0.85319  0.17951  0.15930  Biso   1.000  C
  H116     1.0000 0.88500  0.15106  0.23899  Biso   1.000  H
  H117     1.0000 0.86497  0.96902  0.17039  Biso   1.000  H
  C242     1.0000 0.84150  0.07251  0.11710  Biso   1.000  C
  C243     1.0000 0.71941  0.00480  0.01285  Biso   1.000  C
  C244     1.0000 0.76302  0.10450  0.03824  Biso   1.000  C
  C245     1.0000 0.73980  0.76559  0.01487  Biso   1.000  C
  H118     1.0000 0.83699  0.65099  0.00601  Biso   1.000  H
  C246     1.0000 0.56885  0.86631  0.02403  Biso   1.000  C
  H119     1.0000 0.44497  0.89799  0.01632  Biso   1.000  H
  C247     1.0000 0.83089  0.15374  0.11465  Biso   1.000  C
  H120     1.0000 0.84700  0.23804  0.15381  Biso   1.000  H
  H121     1.0000 0.68261  0.99223  0.99548  Biso   1.000  H
  C248     1.0000 0.71903  0.08024  0.00588  Biso   1.000  C
  C249     1.0000 0.75411  0.18550  0.03715  Biso   1.000  C
  C250     1.0000 0.68133  0.74650  0.99167  Biso   1.000  C
  C251     1.0000 0.60042  0.79744  0.99311  Biso   1.000  C
  C252     1.0000 0.79021  0.20864  0.07158  Biso   1.000  C
  H122     1.0000 0.68101  0.12209  0.98101  Biso   1.000  H
  H123     1.0000 0.71903  0.21801  0.00798  Biso   1.000  H
  H124     1.0000 0.70592  0.69312  0.97202  Biso   1.000  H
  H125     1.0000 0.55590  0.78911  0.97702  Biso   1.000  H
  H126     1.0000 0.78702  0.26101  0.06798  Biso   1.000  H
  C253     1.0000 0.42167  0.39979  0.71358  Biso   1.000  C
  C254     1.0000 0.48507  0.32995  0.70775  Biso   1.000  C
  C255     1.0000 0.33456  0.40549  0.72082  Biso   1.000  C
  H127     1.0000 0.43599  0.44709  0.71700  Biso   1.000  H
  C256     1.0000 0.47007  0.26038  0.70117  Biso   1.000  C
  H128     1.0000 0.54101  0.33306  0.69999  Biso   1.000  H
  C257     1.0000 0.31739  0.33527  0.71863  Biso   1.000  C
  C258     1.0000 0.26504  0.47389  0.73617  Biso   1.000  C
  C259     1.0000 0.38690  0.26496  0.70016  Biso   1.000  C
  C260     1.0000 0.53629  0.18538  0.69683  Biso   1.000  C
  C261     1.0000 0.23370  0.33476  0.74279  Biso   1.000  C
  H129     1.0000 0.28196  0.51505  0.73600  Biso   1.000  H
  C262     1.0000 0.18397  0.47269  0.75678  Biso   1.000  C
  C263     1.0000 0.37397  0.19746  0.68516  Biso   1.000  C
  C264     1.0000 0.51801  0.11894  0.69687  Biso   1.000  C
  H130     1.0000 0.59197  0.18208  0.69499  Biso   1.000  H
  C265     1.0000 0.16755  0.40039  0.76455  Biso   1.000  C
  H131     1.0000 0.21796  0.28306  0.74771  Biso   1.000  H
  H132     1.0000 0.13298  0.52508  0.77301  Biso   1.000  H
  C266     1.0000 0.30399  0.20618  0.65863  Biso   1.000  C
  C267     1.0000 0.43512  0.12248  0.69328  Biso   1.000  C
  H133     1.0000 0.57103  0.06406  0.69451  Biso   1.000  H
  C268     1.0000 0.08467  0.39220  0.79696  Biso   1.000  C
  C269     1.0000 0.26242  0.27794  0.62762  Biso   1.000  C
  C270     1.0000 0.28509  0.13867  0.65442  Biso   1.000  C
  C271     1.0000 0.41857  0.05258  0.68652  Biso   1.000  C
  C272     1.0000 0.00598  0.45017  0.79021  Biso   1.000  C
  C273     1.0000 0.08478  0.32486  0.83411  Biso   1.000  C
  C274     1.0000 0.20249  0.28318  0.59780  Biso   1.000  C
  H134     1.0000 0.28301  0.32404  0.62398  Biso   1.000  H
  C275     1.0000 0.20681  0.15048  0.63679  Biso   1.000  C
  C276     1.0000 0.34898  0.06136  0.66240  Biso   1.000  C
  C277     1.0000 0.47474  0.97215  0.69990  Biso   1.000  C
  H135     1.0000 0.00198  0.50305  0.76200  Biso   1.000  H
  C278     1.0000 0.93108  0.43620  0.81656  Biso   1.000  C
  H136     1.0000 0.13999  0.28710  0.83871  Biso   1.000  H
  C279     1.0000 0.00854  0.31050  0.86367  Biso   1.000  C
  C280     1.0000 0.17102  0.22003  0.60367  Biso   1.000  C
  H137     1.0000 0.17699  0.33106  0.57600  Biso   1.000  H
  C281     1.0000 0.15708  0.09697  0.65714  Biso   1.000  C
  C282     1.0000 0.35214  0.99724  0.63398  Biso   1.000  C
  C283     1.0000 0.47885  0.91266  0.66766  Biso   1.000  C
  C284     1.0000 0.51723  0.94936  0.74871  Biso   1.000  C
  C285     1.0000 0.93056  0.36637  0.85249  Biso   1.000  C
  H138     1.0000 0.87699  0.47906  0.81007  Biso   1.000  H
  C286     1.0000 0.00849  0.23636  0.89841  Biso   1.000  C
  C287     1.0000 0.10088  0.22864  0.57802  Biso   1.000  C
  C288     1.0000 0.08790  0.10749  0.63126  Biso   1.000  C
  C289     1.0000 0.16692  0.04357  0.70718  Biso   1.000  C
  H139     1.0000 0.30802  0.00903  0.61258  Biso   1.000  H
  C290     1.0000 0.41945  0.92866  0.63227  Biso   1.000  C
  C291     1.0000 0.54023  0.83457  0.67477  Biso   1.000  C
  C292     1.0000 0.57586  0.87045  0.75529  Biso   1.000  C
  C293     1.0000 0.49512  0.99578  0.79547  Biso   1.000  C
  C294     1.0000 0.85367  0.34845  0.87305  Biso   1.000  C
  C295     1.0000 0.08269  0.17768  0.91731  Biso   1.000  C
  C296     1.0000 0.93396  0.21689  0.90849  Biso   1.000  C
  H140     1.0000 0.07401  0.27603  0.55100  Biso   1.000  H
  C297     1.0000 0.06409  0.17206  0.58876  Biso   1.000  C
  C298     1.0000 0.03929  0.05684  0.65218  Biso   1.000  C
  H141     1.0000 0.20700  0.03809  0.72981  Biso   1.000  H
  C299     1.0000 0.11426  0.99844  0.73056  Biso   1.000  C
  H142     1.0000 0.42494  0.89004  0.60701  Biso   1.000  H
  H143     1.0000 0.54296  0.79907  0.64701  Biso   1.000  H
  C300     1.0000 0.58816  0.81636  0.71481  Biso   1.000  C
  C301     1.0000 0.61496  0.84705  0.80385  Biso   1.000  C
  H144     1.0000 0.44897  0.05109  0.79371  Biso   1.000  H
  C302     1.0000 0.52996  0.97049  0.84455  Biso   1.000  C
  C303     1.0000 0.85595  0.27581  0.89779  Biso   1.000  C
  H145     1.0000 0.80097  0.38605  0.86301  Biso   1.000  H
  C304     1.0000 0.08999  0.09758  0.92262  Biso   1.000  C
  C305     1.0000 0.14608  0.19700  0.93669  Biso   1.000  C
  C306     1.0000 0.93888  0.13691  0.92595  Biso   1.000  C
  H146     1.0000 0.02701  0.17205  0.56499  Biso   1.000  H
  C307     1.0000 0.05118  0.00417  0.70008  Biso   1.000  C
  H147     1.0000 0.99699  0.05966  0.63218  Biso   1.000  H
  C308     1.0000 0.12264  0.94888  0.78674  Biso   1.000  C
  H148     1.0000 0.62798  0.76204  0.71898  Biso   1.000  H
  H149     1.0000 0.65299  0.79105  0.80639  Biso   1.000  H
  C309     1.0000 0.59404  0.89557  0.84727  Biso   1.000  C
  C310     1.0000 0.49619  0.02050  0.89459  Biso   1.000  C
  H150     1.0000 0.80098  0.26108  0.90801  Biso   1.000  H
  C311     1.0000 0.16771  0.03596  0.93283  Biso   1.000  C
  C312     1.0000 0.01390  0.07927  0.92845  Biso   1.000  C
  C313     1.0000 0.21966  0.13779  0.95020  Biso   1.000  C
  C314     1.0000 0.12685  0.27490  0.95301  Biso   1.000  C
  H151     1.0000 0.89099  0.12407  0.93262  Biso   1.000  H
  H152     1.0000 0.01727  0.97114  0.71310  Biso   1.000  H
  C315     1.0000 0.12354  0.86965  0.79314  Biso   1.000  C
  C316     1.0000 0.13695  0.97648  0.83231  Biso   1.000  C
  H153     1.0000 0.61695  0.87706  0.88398  Biso   1.000  H
  C317     1.0000 0.55101  0.03308  0.92459  Biso   1.000  C
  C318     1.0000 0.40990  0.05878  0.91051  Biso   1.000  C
  C319     1.0000 0.18443  0.95376  0.92731  Biso   1.000  C
  C320     1.0000 0.22580  0.05575  0.95406  Biso   1.000  C
  H154     1.0000 0.02201  0.02308  0.93889  Biso   1.000  H
  C321     1.0000 0.28395  0.16021  0.96384  Biso   1.000  C
  C322     1.0000 0.17880  0.29087  0.98020  Biso   1.000  C
  H155     1.0000 0.06996  0.31809  0.94819  Biso   1.000  H
  C323     1.0000 0.14676  0.82054  0.84069  Biso   1.000  C
  H156     1.0000 0.11498  0.84905  0.76100  Biso   1.000  H
  H157     1.0000 0.13501  0.03110  0.82959  Biso   1.000  H
  C324     1.0000 0.15843  0.92760  0.88288  Biso   1.000  C
  C325     1.0000 0.51779  0.08890  0.96393  Biso   1.000  C
  H158     1.0000 0.61501  0.00309  0.91389  Biso   1.000  H
  H159     1.0000 0.37400  0.05207  0.89169  Biso   1.000  H
  C326     1.0000 0.37410  0.11469  0.95196  Biso   1.000  C
  C327     1.0000 0.23698  0.89555  0.96174  Biso   1.000  C
  C328     1.0000 0.28052  0.99531  0.98713  Biso   1.000  C
  C329     1.0000 0.26020  0.23447  0.98511  Biso   1.000  C
  H160     1.0000 0.16301  0.34907  0.99397  Biso   1.000  H
  C330     1.0000 0.16903  0.84638  0.88534  Biso   1.000  C
  H161     1.0000 0.15297  0.76207  0.84621  Biso   1.000  H
  C331     1.0000 0.43107  0.13381  0.97595  Biso   1.000  C
  H162     1.0000 0.55502  0.10206  0.98371  Biso   1.000  H
  C332     1.0000 0.24584  0.81455  0.96283  Biso   1.000  C
  C333     1.0000 0.28096  0.91988  0.99411  Biso   1.000  C
  H163     1.0000 0.31732  0.00789  0.00450  Biso   1.000  H
  C334     1.0000 0.31862  0.25356  0.00832  Biso   1.000  C
  C335     1.0000 0.20977  0.79147  0.92840  Biso   1.000  C
  C336     1.0000 0.39956  0.20267  0.00687  Biso   1.000  C
  H164     1.0000 0.28095  0.78210  0.99200  Biso   1.000  H
  H165     1.0000 0.31891  0.87803  0.01897  Biso   1.000  H
  H166     1.0000 0.29400  0.30699  0.02801  Biso   1.000  H
  H167     1.0000 0.21296  0.73910  0.93200  Biso   1.000  H
  H168     1.0000 0.44401  0.21100  0.02301  Biso   1.000  H
  Ne1      1.0000 0.38242  0.49205  0.24851  Biso   1.000  Ne
  He1      1.0000 0.40785  0.35830  0.28779  Biso   1.000  He
  He2      1.0000 0.45579  0.56716  0.27129  Biso   1.000  He
  He3      1.0000 0.24104  0.57829  0.18219  Biso   1.000  He
  Ar1      1.0000 0.38264  0.49247  0.24813  Biso   1.000  Ar
  Ne2      1.0000 0.25616  0.12254  0.80388  Biso   1.000  Ne
  He4      1.0000 0.33444  0.94354  0.81224  Biso   1.000  He
  He5      1.0000 0.32391  0.20152  0.82884  Biso   1.000  He
  He6      1.0000 0.13929  0.18924  0.76157  Biso   1.000  He
  Ar2      1.0000 0.25440  0.12069  0.80377  Biso   1.000  Ar
  Ne3      1.0000 0.74379  0.87756  0.19612  Biso   1.000  Ne
  He7      1.0000 0.86170  0.81049  0.23858  Biso   1.000  He
  He8      1.0000 0.68193  0.01353  0.19841  Biso   1.000  He
  He9      1.0000 0.67621  0.79854  0.17103  Biso   1.000  He
  Ar3      1.0000 0.74556  0.87936  0.19622  Biso   1.000  Ar
  Ne4      1.0000 0.61753  0.50805  0.75149  Biso   1.000  Ne
  He10     1.0000 0.72169  0.43933  0.80893  Biso   1.000  He
  He11     1.0000 0.59237  0.64066  0.71227  Biso   1.000  He
  He12     1.0000 0.54691  0.43450  0.72892  Biso   1.000  He
  Ar4      1.0000 0.61733  0.50763  0.75187  Biso   1.000  Ar
