data_image0
_cell_length_a       12.382
_cell_length_b       15.472
_cell_length_c       26.328
_cell_angle_alpha    90
_cell_angle_beta     90
_cell_angle_gamma    90

_symmetry_space_group_name_H-M    "P 1"
_symmetry_int_tables_number       1

loop_
  _symmetry_equiv_pos_as_xyz
  'x, y, z'

loop_
  _atom_site_label
  _atom_site_occupancy
  _atom_site_fract_x
  _atom_site_fract_y
  _atom_site_fract_z
  _atom_site_thermal_displace_type
  _atom_site_B_iso_or_equiv
  _atom_site_type_symbol
  O1       1.0000 0.46115  0.55209  0.44356  Biso   1.000  O
  C1       1.0000 0.37579  0.51752  0.45267  Biso   1.000  C
  N1       1.0000 0.34122  0.44009  0.43345  Biso   1.000  N
  N2       1.0000 0.29721  0.54886  0.48447  Biso   1.000  N
  C2       1.0000 0.41205  0.38566  0.40368  Biso   1.000  C
  C3       1.0000 0.24309  0.41010  0.45826  Biso   1.000  C
  C4       1.0000 0.21136  0.48759  0.49286  Biso   1.000  C
  C5       1.0000 0.31433  0.62649  0.51379  Biso   1.000  C
  N3       1.0000 0.39267  0.39071  0.34982  Biso   1.000  N
  H1       1.0000 0.48789  0.40260  0.41048  Biso   1.000  H
  H2       1.0000 0.40300  0.32497  0.41481  Biso   1.000  H
  N4       1.0000 0.15070  0.40021  0.42483  Biso   1.000  N
  H3       1.0000 0.25642  0.35658  0.47858  Biso   1.000  H
  N5       1.0000 0.10717  0.51338  0.47242  Biso   1.000  N
  H4       1.0000 0.20619  0.47020  0.52940  Biso   1.000  H
  H5       1.0000 0.28307  0.61821  0.54809  Biso   1.000  H
  H6       1.0000 0.39291  0.63579  0.51778  Biso   1.000  H
  N6       1.0000 0.26708  0.70237  0.49123  Biso   1.000  N
  C6       1.0000 0.30698  0.34449  0.32289  Biso   1.000  C
  C7       1.0000 0.44468  0.44888  0.31852  Biso   1.000  C
  C8       1.0000 0.14481  0.33881  0.38358  Biso   1.000  C
  C9       1.0000 0.07236  0.46032  0.43391  Biso   1.000  C
  C10      1.0000 0.04490  0.58467  0.49069  Biso   1.000  C
  C11      1.0000 0.32337  0.75756  0.46092  Biso   1.000  C
  C12      1.0000 0.15321  0.72622  0.49487  Biso   1.000  C
  C13      1.0000 0.31732  0.37959  0.26819  Biso   1.000  C
  H7       1.0000 0.31837  0.28051  0.32418  Biso   1.000  H
  N7       1.0000 0.19900  0.36757  0.33820  Biso   1.000  N
  N8       1.0000 0.40107  0.44396  0.27199  Biso   1.000  N
  O2       1.0000 0.52011  0.49522  0.33174  Biso   1.000  O
  H8       1.0000 0.17727  0.28361  0.39479  Biso   1.000  H
  H9       1.0000 0.06792  0.32769  0.37561  Biso   1.000  H
  O3       1.0000 0.98619  0.46549  0.41211  Biso   1.000  O
  H10      1.0000 0.05064  0.58719  0.52818  Biso   1.000  H
  N9       1.0000 0.08020  0.66649  0.46954  Biso   1.000  N
  H11      1.0000 0.96810  0.57536  0.48188  Biso   1.000  H
  N10      1.0000 0.25408  0.81851  0.44200  Biso   1.000  N
  O4       1.0000 0.42021  0.75446  0.45237  Biso   1.000  O
  C14      1.0000 0.14529  0.80901  0.46297  Biso   1.000  C
  H12      1.0000 0.13108  0.73669  0.53088  Biso   1.000  H
  H13      1.0000 0.33767  0.33267  0.24388  Biso   1.000  H
  N11      1.0000 0.20990  0.41216  0.25782  Biso   1.000  N
  C15      1.0000 0.14150  0.40221  0.29752  Biso   1.000  C
  C16      1.0000 0.44427  0.49270  0.22915  Biso   1.000  C
  C17      1.0000 0.02173  0.70747  0.43251  Biso   1.000  C
  C18      1.0000 0.28889  0.88799  0.40991  Biso   1.000  C
  N12      1.0000 0.06251  0.78981  0.42593  Biso   1.000  N
  H14      1.0000 0.12510  0.85988  0.48439  Biso   1.000  H
  C19      1.0000 0.17542  0.45340  0.21088  Biso   1.000  C
  O5       1.0000 0.04563  0.41960  0.29812  Biso   1.000  O
  H15      1.0000 0.52189  0.50440  0.23530  Biso   1.000  H
  H16      1.0000 0.43886  0.45676  0.19808  Biso   1.000  H
  N13      1.0000 0.38992  0.57349  0.22037  Biso   1.000  N
  O6       1.0000 0.94516  0.67768  0.40922  Biso   1.000  O
  N14      1.0000 0.27112  0.87138  0.35646  Biso   1.000  N
  H17      1.0000 0.36690  0.89840  0.41560  Biso   1.000  H
  H18      1.0000 0.24972  0.94118  0.41971  Biso   1.000  H
  C20      1.0000 0.02068  0.84960  0.38826  Biso   1.000  C
  H19      1.0000 0.21232  0.42496  0.18201  Biso   1.000  H
  H20      1.0000 0.09683  0.44448  0.20659  Biso   1.000  H
  N15      1.0000 0.19827  0.54479  0.20951  Biso   1.000  N
  C21      1.0000 0.42408  0.65176  0.23940  Biso   1.000  C
  C22      1.0000 0.29503  0.58150  0.18839  Biso   1.000  C
  C23      1.0000 0.35035  0.84217  0.32460  Biso   1.000  C
  C24      1.0000 0.17461  0.89698  0.32832  Biso   1.000  C
  N16      1.0000 0.07842  0.84818  0.34021  Biso   1.000  N
  H21      1.0000 0.02366  0.90887  0.40231  Biso   1.000  H
  H22      1.0000 0.94379  0.83557  0.38180  Biso   1.000  H
  C25      1.0000 0.11848  0.60600  0.21756  Biso   1.000  C
  N17      1.0000 0.35245  0.71316  0.22493  Biso   1.000  N
  O7       1.0000 0.50485  0.66287  0.26508  Biso   1.000  O
  H23      1.0000 0.30875  0.56017  0.15311  Biso   1.000  H
  C26      1.0000 0.27225  0.68078  0.18942  Biso   1.000  C
  N18      1.0000 0.31110  0.83978  0.27609  Biso   1.000  N
  O8       1.0000 0.44258  0.82329  0.33702  Biso   1.000  O
  C27      1.0000 0.19989  0.86989  0.27313  Biso   1.000  C
  H24      1.0000 0.16136  0.96057  0.33098  Biso   1.000  H
  C28      1.0000 0.04813  0.79486  0.30112  Biso   1.000  C
  N19      1.0000 0.16249  0.68498  0.20708  Biso   1.000  N
  O9       1.0000 0.02592  0.59087  0.23089  Biso   1.000  O
  C29      1.0000 0.37215  0.80410  0.23447  Biso   1.000  C
  H25      1.0000 0.28049  0.70747  0.15501  Biso   1.000  H
  N20      1.0000 0.12058  0.80500  0.26295  Biso   1.000  N
  H26      1.0000 0.19278  0.91986  0.24920  Biso   1.000  H
  O10      1.0000 0.96794  0.74916  0.30002  Biso   1.000  O
  C30      1.0000 0.10370  0.76499  0.21380  Biso   1.000  C
  H27      1.0000 0.45009  0.81218  0.24161  Biso   1.000  H
  H28      1.0000 0.35479  0.83706  0.20328  Biso   1.000  H
  H29      1.0000 0.02560  0.75336  0.20940  Biso   1.000  H
  H30      1.0000 0.12591  0.80610  0.18691  Biso   1.000  H
  C31      1.0000 0.64529  0.69099  0.53699  Biso   1.000  C
  H31      1.0000 0.62510  0.64006  0.51561  Biso   1.000  H
  C32      1.0000 0.65321  0.77378  0.50509  Biso   1.000  C
  N21      1.0000 0.75408  0.68149  0.55796  Biso   1.000  N
  N22      1.0000 0.56251  0.71019  0.57407  Biso   1.000  N
  H32      1.0000 0.63108  0.76331  0.46908  Biso   1.000  H
  N23      1.0000 0.76708  0.79757  0.50877  Biso   1.000  N
  N24      1.0000 0.58020  0.83351  0.53042  Biso   1.000  N
  C33      1.0000 0.78889  0.61201  0.59006  Biso   1.000  C
  C34      1.0000 0.82337  0.74237  0.53905  Biso   1.000  C
  C35      1.0000 0.52068  0.65040  0.61174  Biso   1.000  C
  C36      1.0000 0.52164  0.79246  0.56749  Biso   1.000  C
  C37      1.0000 0.81425  0.87351  0.48621  Biso   1.000  C
  C38      1.0000 0.54490  0.91527  0.50931  Biso   1.000  C
  H33      1.0000 0.86690  0.60160  0.58440  Biso   1.000  H
  H34      1.0000 0.74964  0.55882  0.58029  Biso   1.000  H
  N25      1.0000 0.77104  0.62862  0.64354  Biso   1.000  N
  O11      1.0000 0.92013  0.74548  0.54763  Biso   1.000  O
  H35      1.0000 0.52366  0.59107  0.59769  Biso   1.000  H
  H36      1.0000 0.44379  0.66436  0.61820  Biso   1.000  H
  N26      1.0000 0.57834  0.65176  0.65979  Biso   1.000  N
  O12      1.0000 0.44516  0.82226  0.59078  Biso   1.000  O
  H37      1.0000 0.78307  0.88179  0.45188  Biso   1.000  H
  H38      1.0000 0.89283  0.86421  0.48219  Biso   1.000  H
  N27      1.0000 0.79721  0.95107  0.51553  Biso   1.000  N
  H39      1.0000 0.55056  0.91281  0.47178  Biso   1.000  H
  H40      1.0000 0.46810  0.92457  0.51808  Biso   1.000  H
  N28      1.0000 0.60717  0.98656  0.52754  Biso   1.000  N
  C39      1.0000 0.85035  0.65777  0.67540  Biso   1.000  C
  C40      1.0000 0.67461  0.60296  0.67164  Biso   1.000  C
  C41      1.0000 0.54805  0.70508  0.69884  Biso   1.000  C
  C42      1.0000 0.87579  0.98248  0.54733  Biso   1.000  C
  C43      1.0000 0.71136  0.01241  0.50714  Biso   1.000  C
  C44      1.0000 0.57236  0.03968  0.56609  Biso   1.000  C
  N29      1.0000 0.81110  0.66016  0.72391  Biso   1.000  N
  O13      1.0000 0.94258  0.67671  0.66298  Biso   1.000  O
  C45      1.0000 0.69989  0.63011  0.72687  Biso   1.000  C
  H41      1.0000 0.66136  0.53936  0.66898  Biso   1.000  H
  N30      1.0000 0.62058  0.69500  0.73705  Biso   1.000  N
  O14      1.0000 0.46786  0.75078  0.69998  Biso   1.000  O
  O15      1.0000 0.96115  0.94791  0.55640  Biso   1.000  O
  N31      1.0000 0.84114  0.05985  0.56651  Biso   1.000  N
  H42      1.0000 0.70619  0.02980  0.47060  Biso   1.000  H
  C46      1.0000 0.74309  0.08990  0.54170  Biso   1.000  C
  N32      1.0000 0.65070  0.09979  0.57517  Biso   1.000  N
  O16      1.0000 0.48619  0.03445  0.58789  Biso   1.000  O
  C47      1.0000 0.87215  0.69590  0.76550  Biso   1.000  C
  H43      1.0000 0.69278  0.58008  0.75080  Biso   1.000  H
  C48      1.0000 0.60370  0.73501  0.78620  Biso   1.000  C
  C49      1.0000 0.91205  0.11427  0.59629  Biso   1.000  C
  H44      1.0000 0.75634  0.14336  0.52138  Biso   1.000  H
  C50      1.0000 0.64481  0.16119  0.61638  Biso   1.000  C
  H45      1.0000 0.95009  0.68776  0.75839  Biso   1.000  H
  H46      1.0000 0.85479  0.66287  0.79668  Biso   1.000  H
  N33      1.0000 0.85245  0.78678  0.77507  Biso   1.000  N
  H47      1.0000 0.52560  0.74657  0.79060  Biso   1.000  H
  H48      1.0000 0.62591  0.69390  0.81309  Biso   1.000  H
  N34      1.0000 0.66249  0.81496  0.79292  Biso   1.000  N
  H49      1.0000 0.98789  0.09740  0.58949  Biso   1.000  H
  H50      1.0000 0.90292  0.17496  0.58519  Biso   1.000  H
  N35      1.0000 0.89267  0.10929  0.65018  Biso   1.000  N
  H51      1.0000 0.67727  0.21639  0.60517  Biso   1.000  H
  H52      1.0000 0.56784  0.17225  0.62439  Biso   1.000  H
  N36      1.0000 0.69900  0.13237  0.66180  Biso   1.000  N
  C51      1.0000 0.92408  0.84818  0.76056  Biso   1.000  C
  C52      1.0000 0.77225  0.81916  0.81058  Biso   1.000  C
  C53      1.0000 0.61848  0.89400  0.78244  Biso   1.000  C
  C54      1.0000 0.94468  0.05106  0.68144  Biso   1.000  C
  C55      1.0000 0.80698  0.15551  0.67707  Biso   1.000  C
  C56      1.0000 0.64150  0.09779  0.70248  Biso   1.000  C
  N37      1.0000 0.88984  0.92651  0.77963  Biso   1.000  N
  O17      1.0000 0.00485  0.83706  0.73492  Biso   1.000  O
  C57      1.0000 0.79494  0.91850  0.81157  Biso   1.000  C
  H53      1.0000 0.78049  0.79246  0.84499  Biso   1.000  H
  N38      1.0000 0.69827  0.95521  0.79045  Biso   1.000  N
  O18      1.0000 0.52584  0.90906  0.76911  Biso   1.000  O
  N39      1.0000 0.90107  0.05597  0.72801  Biso   1.000  N
  O19      1.0000 0.02011  0.00478  0.66822  Biso   1.000  O
  H54      1.0000 0.81837  0.21949  0.67578  Biso   1.000  H
  C58      1.0000 0.81723  0.12035  0.73177  Biso   1.000  C
  N40      1.0000 0.70990  0.08777  0.74218  Biso   1.000  N
  O20      1.0000 0.54555  0.08040  0.70188  Biso   1.000  O
  C59      1.0000 0.94427  0.00730  0.77085  Biso   1.000  C
  H55      1.0000 0.80875  0.93976  0.84689  Biso   1.000  H
  C60      1.0000 0.67534  0.04660  0.78912  Biso   1.000  C
  H56      1.0000 0.83767  0.16727  0.75608  Biso   1.000  H
  H57      1.0000 0.93886  0.04317  0.80188  Biso   1.000  H
  H58      1.0000 0.02189  0.99560  0.76470  Biso   1.000  H
  H59      1.0000 0.71224  0.07497  0.81799  Biso   1.000  H
  H60      1.0000 0.59675  0.05546  0.79338  Biso   1.000  H
  C61      1.0000 0.32458  0.54660  0.71088  Biso   1.000  C
  N41      1.0000 0.30165  0.45521  0.70951  Biso   1.000  N
  H61      1.0000 0.28768  0.57497  0.68197  Biso   1.000  H
  H62      1.0000 0.40317  0.55552  0.70659  Biso   1.000  H
  N42      1.0000 0.29010  0.58777  0.75782  Biso   1.000  N
  C62      1.0000 0.20497  0.41850  0.68839  Biso   1.000  C
  C63      1.0000 0.38152  0.39400  0.71756  Biso   1.000  C
  C64      1.0000 0.18268  0.62041  0.76819  Biso   1.000  C
  C65      1.0000 0.35850  0.59779  0.79752  Biso   1.000  C
  C66      1.0000 0.22767  0.31922  0.68942  Biso   1.000  C
  H63      1.0000 0.19116  0.43976  0.65311  Biso   1.000  H
  N43      1.0000 0.11008  0.42651  0.72034  Biso   1.000  N
  N44      1.0000 0.33751  0.31502  0.70708  Biso   1.000  N
  O21      1.0000 0.47408  0.40906  0.73089  Biso   1.000  O
  N45      1.0000 0.09893  0.55597  0.77195  Biso   1.000  N
  C67      1.0000 0.19302  0.65551  0.82289  Biso   1.000  C
  H64      1.0000 0.16233  0.66727  0.74388  Biso   1.000  H
  N46      1.0000 0.30100  0.63237  0.83820  Biso   1.000  N
  O22      1.0000 0.45437  0.58040  0.79812  Biso   1.000  O
  H65      1.0000 0.21951  0.29246  0.65501  Biso   1.000  H
  N47      1.0000 0.14747  0.28678  0.72493  Biso   1.000  N
  C68      1.0000 0.07592  0.34818  0.73940  Biso   1.000  C
  C69      1.0000 0.05573  0.50730  0.72915  Biso   1.000  C
  C70      1.0000 0.39630  0.23501  0.71376  Biso   1.000  C
  C71      1.0000 0.05532  0.55106  0.81852  Biso   1.000  C
  N48      1.0000 0.10733  0.60929  0.84978  Biso   1.000  N
  H66      1.0000 0.18155  0.71949  0.82418  Biso   1.000  H
  C72      1.0000 0.35519  0.66119  0.88358  Biso   1.000  C
  C73      1.0000 0.12777  0.19590  0.73447  Biso   1.000  C
  O23      1.0000 0.99507  0.33713  0.76508  Biso   1.000  O
  H67      1.0000 0.06114  0.54317  0.69808  Biso   1.000  H
  H68      1.0000 0.97811  0.49560  0.73530  Biso   1.000  H
  H69      1.0000 0.47440  0.24657  0.70940  Biso   1.000  H
  H70      1.0000 0.37409  0.19390  0.68687  Biso   1.000  H
  N49      1.0000 0.37942  0.19500  0.76295  Biso   1.000  N
  O24      1.0000 0.97989  0.50478  0.83174  Biso   1.000  O
  C74      1.0000 0.08787  0.61427  0.90368  Biso   1.000  C
  H71      1.0000 0.32273  0.71639  0.89479  Biso   1.000  H
  H72      1.0000 0.43208  0.67231  0.87557  Biso   1.000  H
  N50      1.0000 0.34930  0.59979  0.92483  Biso   1.000  N
  H73      1.0000 0.04991  0.18782  0.74161  Biso   1.000  H
  H74      1.0000 0.14521  0.16287  0.70328  Biso   1.000  H
  N51      1.0000 0.18890  0.16022  0.77609  Biso   1.000  N
  C75      1.0000 0.30011  0.13011  0.77309  Biso   1.000  C
  C76      1.0000 0.45187  0.20508  0.80112  Biso   1.000  C
  H75      1.0000 0.01211  0.59740  0.91048  Biso   1.000  H
  H76      1.0000 0.09700  0.67496  0.91477  Biso   1.000  H
  N52      1.0000 0.15878  0.55991  0.93345  Biso   1.000  N
  C77      1.0000 0.25691  0.58990  0.95826  Biso   1.000  C
  C78      1.0000 0.42756  0.53968  0.93391  Biso   1.000  C
  C79      1.0000 0.14957  0.15777  0.82460  Biso   1.000  C
  H77      1.0000 0.30722  0.08008  0.74920  Biso   1.000  H
  C80      1.0000 0.32539  0.10302  0.82832  Biso   1.000  C
  N53      1.0000 0.42158  0.15182  0.84017  Biso   1.000  N
  O25      1.0000 0.53206  0.25078  0.79998  Biso   1.000  O
  C81      1.0000 0.12421  0.48248  0.95267  Biso   1.000  C
  C82      1.0000 0.28856  0.51241  0.99282  Biso   1.000  C
  H78      1.0000 0.24358  0.64336  0.97858  Biso   1.000  H
  N54      1.0000 0.39275  0.48662  0.97242  Biso   1.000  N
  O26      1.0000 0.51381  0.53451  0.91207  Biso   1.000  O
  N55      1.0000 0.22888  0.12862  0.85646  Biso   1.000  N
  O27      1.0000 0.05742  0.17671  0.83698  Biso   1.000  O
  H79      1.0000 0.33856  0.03943  0.83098  Biso   1.000  H
  C83      1.0000 0.47924  0.15040  0.88822  Biso   1.000  C
  N56      1.0000 0.20279  0.45107  0.98443  Biso   1.000  N
  O28      1.0000 0.03877  0.44791  0.94356  Biso   1.000  O
  H80      1.0000 0.29381  0.52980  0.02940  Biso   1.000  H
  C84      1.0000 0.45510  0.41527  0.99069  Biso   1.000  C
  C85      1.0000 0.21111  0.11201  0.90991  Biso   1.000  C
  H81      1.0000 0.47626  0.09107  0.90227  Biso   1.000  H
  H82      1.0000 0.55621  0.16443  0.88180  Biso   1.000  H
  N57      1.0000 0.43749  0.21019  0.92593  Biso   1.000  N
  C86      1.0000 0.18567  0.37351  0.01379  Biso   1.000  C
  N58      1.0000 0.41980  0.33351  0.96954  Biso   1.000  N
  H83      1.0000 0.53190  0.42457  0.98188  Biso   1.000  H
  H84      1.0000 0.44936  0.41281  0.02818  Biso   1.000  H
  H85      1.0000 0.13310  0.10160  0.91560  Biso   1.000  H
  H86      1.0000 0.25028  0.05882  0.91967  Biso   1.000  H
  N59      1.0000 0.24592  0.18149  0.94200  Biso   1.000  N
  C87      1.0000 0.35471  0.19099  0.96297  Biso   1.000  C
  C88      1.0000 0.47827  0.29246  0.93247  Biso   1.000  C
  N60      1.0000 0.23292  0.29757  0.99123  Biso   1.000  N
  H87      1.0000 0.21693  0.38179  0.04809  Biso   1.000  H
  H88      1.0000 0.10709  0.36421  0.01778  Biso   1.000  H
  C89      1.0000 0.34679  0.27378  0.99487  Biso   1.000  C
  C90      1.0000 0.17663  0.24237  0.96092  Biso   1.000  C
  H89      1.0000 0.37490  0.14012  0.98439  Biso   1.000  H
  O29      1.0000 0.55476  0.32232  0.90922  Biso   1.000  O
  H90      1.0000 0.36892  0.26331  0.03088  Biso   1.000  H
  O30      1.0000 0.07979  0.24548  0.95237  Biso   1.000  O
  C91      1.0000 0.62777  0.30410  0.26553  Biso   1.000  C
  N61      1.0000 0.64747  0.21322  0.27507  Biso   1.000  N
  H91      1.0000 0.54991  0.31218  0.25839  Biso   1.000  H
  H92      1.0000 0.64521  0.33713  0.29668  Biso   1.000  H
  N62      1.0000 0.68890  0.33978  0.22391  Biso   1.000  N
  C92      1.0000 0.57592  0.15182  0.26056  Biso   1.000  C
  C93      1.0000 0.72767  0.18078  0.31058  Biso   1.000  C
  C94      1.0000 0.64957  0.34217  0.17540  Biso   1.000  C
  C95      1.0000 0.80003  0.36989  0.22687  Biso   1.000  C
  O31      1.0000 0.49507  0.16287  0.23492  Biso   1.000  O
  N63      1.0000 0.61008  0.07349  0.27963  Biso   1.000  N
  C96      1.0000 0.70497  0.08150  0.31161  Biso   1.000  C
  H93      1.0000 0.71943  0.20747  0.34499  Biso   1.000  H
  N64      1.0000 0.83751  0.18498  0.29292  Biso   1.000  N
  N65      1.0000 0.72888  0.37138  0.14354  Biso   1.000  N
  O32      1.0000 0.55734  0.32329  0.16298  Biso   1.000  O
  H94      1.0000 0.80714  0.41992  0.25080  Biso   1.000  H
  C97      1.0000 0.82539  0.39698  0.17164  Biso   1.000  C
  N66      1.0000 0.87934  0.30500  0.23705  Biso   1.000  N
  C98      1.0000 0.55565  0.99270  0.27085  Biso   1.000  C
  H95      1.0000 0.69116  0.06017  0.34689  Biso   1.000  H
  N67      1.0000 0.80165  0.04479  0.29049  Biso   1.000  N
  C99      1.0000 0.88144  0.10600  0.28244  Biso   1.000  C
  C100     1.0000 0.89630  0.26499  0.28620  Biso   1.000  C
  C101     1.0000 0.71103  0.38799  0.09009  Biso   1.000  C
  H96      1.0000 0.83856  0.46057  0.16898  Biso   1.000  H
  N68      1.0000 0.92158  0.34818  0.15979  Biso   1.000  N
  C102     1.0000 0.95187  0.29492  0.19888  Biso   1.000  C
  H97      1.0000 0.47811  0.00440  0.26470  Biso   1.000  H
  H98      1.0000 0.56106  0.95683  0.30188  Biso   1.000  H
  N69      1.0000 0.59885  0.94403  0.22801  Biso   1.000  N
  C103     1.0000 0.82458  0.95340  0.28912  Biso   1.000  C
  O33      1.0000 0.97408  0.09087  0.26911  Biso   1.000  O
  H99      1.0000 0.97440  0.25343  0.29060  Biso   1.000  H
  H100     1.0000 0.87409  0.30610  0.31309  Biso   1.000  H
  H101     1.0000 0.63310  0.39840  0.08440  Biso   1.000  H
  H102     1.0000 0.75028  0.44118  0.08029  Biso   1.000  H
  N70      1.0000 0.74584  0.31851  0.05796  Biso   1.000  N
  C104     1.0000 0.97924  0.34960  0.11174  Biso   1.000  C
  O34      1.0000 0.03206  0.24922  0.19998  Biso   1.000  O
  C105     1.0000 0.55524  0.94888  0.18148  Biso   1.000  C
  C106     1.0000 0.68268  0.87959  0.23177  Biso   1.000  C
  H103     1.0000 0.78768  0.92503  0.31799  Biso   1.000  H
  H104     1.0000 0.90317  0.94448  0.29341  Biso   1.000  H
  N71      1.0000 0.79010  0.91223  0.24218  Biso   1.000  N
  C107     1.0000 0.67655  0.25763  0.03905  Biso   1.000  C
  C108     1.0000 0.85463  0.30901  0.03699  Biso   1.000  C
  H105     1.0000 0.97626  0.40887  0.09769  Biso   1.000  H
  N72      1.0000 0.93749  0.28981  0.07407  Biso   1.000  N
  H106     1.0000 0.05613  0.33557  0.11820  Biso   1.000  H
  N73      1.0000 0.60725  0.89071  0.15018  Biso   1.000  N
  O35      1.0000 0.47989  0.99522  0.16822  Biso   1.000  O
  C109     1.0000 0.69294  0.84449  0.17711  Biso   1.000  C
  H107     1.0000 0.66225  0.83273  0.25608  Biso   1.000  H
  C110     1.0000 0.85850  0.90221  0.20248  Biso   1.000  C
  N74      1.0000 0.73284  0.20237  0.00877  Biso   1.000  N
  O36      1.0000 0.57979  0.25452  0.04763  Biso   1.000  O
  H108     1.0000 0.87490  0.35988  0.01561  Biso   1.000  H
  C111     1.0000 0.84679  0.22622  0.00513  Biso   1.000  C
  C112     1.0000 0.97827  0.20747  0.06749  Biso   1.000  C
  C113     1.0000 0.58787  0.88573  0.09632  Biso   1.000  C
  H109     1.0000 0.68155  0.78051  0.17578  Biso   1.000  H
  N75      1.0000 0.80100  0.86763  0.16180  Biso   1.000  N
  O37      1.0000 0.95437  0.91960  0.20188  Biso   1.000  O
  C114     1.0000 0.68567  0.12649  0.98621  Biso   1.000  C
  N76      1.0000 0.91980  0.16649  0.03046  Biso   1.000  N
  H110     1.0000 0.86884  0.23669  0.96908  Biso   1.000  H
  O38      1.0000 0.05484  0.17768  0.09078  Biso   1.000  O
  H111     1.0000 0.51211  0.90260  0.08949  Biso   1.000  H
  H112     1.0000 0.59700  0.82497  0.08519  Biso   1.000  H
  N77      1.0000 0.65878  0.94009  0.06651  Biso   1.000  N
  C115     1.0000 0.85519  0.83881  0.11642  Biso   1.000  C
  N78      1.0000 0.70279  0.04893  0.01553  Biso   1.000  N
  H113     1.0000 0.71685  0.11821  0.95191  Biso   1.000  H
  H114     1.0000 0.60709  0.13579  0.98219  Biso   1.000  H
  C116     1.0000 0.95510  0.08467  0.00931  Biso   1.000  C
  C117     1.0000 0.62421  0.01752  0.04733  Biso   1.000  C
  C118     1.0000 0.75691  0.91010  0.04170  Biso   1.000  C
  H115     1.0000 0.82265  0.78361  0.10521  Biso   1.000  H
  H116     1.0000 0.93208  0.82769  0.12439  Biso   1.000  H
  N79      1.0000 0.84930  0.90021  0.07517  Biso   1.000  N
  C119     1.0000 0.78856  0.98759  0.00714  Biso   1.000  C
  N80      1.0000 0.89275  0.01338  0.02758  Biso   1.000  N
  H117     1.0000 0.94936  0.08719  0.97182  Biso   1.000  H
  H118     1.0000 0.03190  0.07543  0.01812  Biso   1.000  H
  O39      1.0000 0.53877  0.05209  0.05640  Biso   1.000  O
  H119     1.0000 0.74358  0.85658  0.02138  Biso   1.000  H
  C120     1.0000 0.92756  0.96032  0.06609  Biso   1.000  C
  H120     1.0000 0.79373  0.97020  0.97060  Biso   1.000  H
  O40      1.0000 0.01373  0.96549  0.08789  Biso   1.000  O
  Ne1      1.0000 0.23212  0.61882  0.34793  Biso   1.000  Ne
  He1      1.0000 0.48327  0.66129  0.36587  Biso   1.000  He
  He2      1.0000 0.98980  0.57651  0.33019  Biso   1.000  He
  Ar1      1.0000 0.23028  0.62069  0.34686  Biso   1.000  Ar
  Ne2      1.0000 0.76784  0.11883  0.15206  Biso   1.000  Ne
  He3      1.0000 0.01281  0.07609  0.16999  Biso   1.000  He
  He4      1.0000 0.51839  0.16103  0.13427  Biso   1.000  He
  Ar2      1.0000 0.76630  0.12466  0.15345  Biso   1.000  Ar
  Ne3      1.0000 0.73210  0.88115  0.65206  Biso   1.000  Ne
  He5      1.0000 0.48692  0.92392  0.67001  Biso   1.000  He
  He6      1.0000 0.97642  0.83968  0.63470  Biso   1.000  He
  Ar3      1.0000 0.73024  0.87926  0.65312  Biso   1.000  Ar
  Ne4      1.0000 0.26786  0.38116  0.84792  Biso   1.000  Ne
  He7      1.0000 0.02187  0.33942  0.86543  Biso   1.000  He
  He8      1.0000 0.51269  0.42389  0.83001  Biso   1.000  He
  Ar4      1.0000 0.26970  0.37931  0.84685  Biso   1.000  Ar
