data_image0
_cell_length_a       24.069
_cell_length_b       24.069
_cell_length_c       10.954
_cell_angle_alpha    90
_cell_angle_beta     90
_cell_angle_gamma    90

_symmetry_space_group_name_H-M    "P 1"
_symmetry_int_tables_number       1

loop_
  _symmetry_equiv_pos_as_xyz
  'x, y, z'

loop_
  _atom_site_label
  _atom_site_occupancy
  _atom_site_fract_x
  _atom_site_fract_y
  _atom_site_fract_z
  _atom_site_thermal_displace_type
  _atom_site_B_iso_or_equiv
  _atom_site_type_symbol
  C1       1.0000 0.18829  0.18829  0.16268  Biso   1.000  C
  H1       1.0000 0.18302  0.18302  0.25160  Biso   1.000  H
  H2       1.0000 0.21708  0.21708  0.15136  Biso   1.000  H
  N1       1.0000 0.20790  0.13690  0.11055  Biso   1.000  N
  H3       1.0000 0.21708  0.21713  0.15136  Biso   1.000  H
  N2       1.0000 0.13690  0.20790  0.11055  Biso   1.000  N
  H4       1.0000 0.21713  0.21708  0.15136  Biso   1.000  H
  N3       1.0000 0.20794  0.13690  0.11055  Biso   1.000  N
  N4       1.0000 0.13690  0.20794  0.11055  Biso   1.000  N
  H5       1.0000 0.21713  0.21713  0.15136  Biso   1.000  H
  C2       1.0000 0.24035  0.13357  0.00000  Biso   1.000  C
  C3       1.0000 0.24035  0.13362  0.00000  Biso   1.000  C
  C4       1.0000 0.20927  0.08862  0.17528  Biso   1.000  C
  C5       1.0000 0.20931  0.08862  0.17528  Biso   1.000  C
  C6       1.0000 0.13357  0.24035  0.00000  Biso   1.000  C
  C7       1.0000 0.13362  0.24035  0.00000  Biso   1.000  C
  C8       1.0000 0.08862  0.20927  0.17528  Biso   1.000  C
  C9       1.0000 0.08862  0.20931  0.17528  Biso   1.000  C
  C10      1.0000 0.26133  0.07271  0.00000  Biso   1.000  C
  N5       1.0000 0.20790  0.13690  0.88945  Biso   1.000  N
  H6       1.0000 0.27180  0.16083  0.00000  Biso   1.000  H
  N6       1.0000 0.20794  0.13690  0.88945  Biso   1.000  N
  N7       1.0000 0.23798  0.05023  0.11064  Biso   1.000  N
  O1       1.0000 0.18896  0.08152  0.27734  Biso   1.000  O
  C11      1.0000 0.07271  0.26133  0.00000  Biso   1.000  C
  N8       1.0000 0.13690  0.20790  0.88945  Biso   1.000  N
  H7       1.0000 0.16083  0.27180  0.00000  Biso   1.000  H
  N9       1.0000 0.13690  0.20794  0.88945  Biso   1.000  N
  N10      1.0000 0.05023  0.23798  0.11064  Biso   1.000  N
  O2       1.0000 0.08152  0.18896  0.27734  Biso   1.000  O
  C12      1.0000 0.18829  0.18829  0.83732  Biso   1.000  C
  C13      1.0000 0.20927  0.08862  0.82472  Biso   1.000  C
  C14      1.0000 0.20931  0.08862  0.82472  Biso   1.000  C
  N11      1.0000 0.23798  0.05023  0.88945  Biso   1.000  N
  H8       1.0000 0.30280  0.07063  0.00000  Biso   1.000  H
  C15      1.0000 0.25946  0.00000  0.16606  Biso   1.000  C
  C16      1.0000 0.25946  0.00000  0.16615  Biso   1.000  C
  C17      1.0000 0.25946  0.00004  0.16606  Biso   1.000  C
  C18      1.0000 0.25946  0.00004  0.16615  Biso   1.000  C
  C19      1.0000 0.25950  0.00000  0.16606  Biso   1.000  C
  C20      1.0000 0.25950  0.00000  0.16615  Biso   1.000  C
  C21      1.0000 0.25950  0.00004  0.16606  Biso   1.000  C
  C22      1.0000 0.25950  0.00004  0.16615  Biso   1.000  C
  C23      1.0000 0.08862  0.20927  0.82472  Biso   1.000  C
  C24      1.0000 0.08862  0.20931  0.82472  Biso   1.000  C
  N12      1.0000 0.05023  0.23798  0.88945  Biso   1.000  N
  H9       1.0000 0.07063  0.30280  0.00000  Biso   1.000  H
  C25      1.0000 0.00000  0.25946  0.16606  Biso   1.000  C
  C26      1.0000 0.00000  0.25946  0.16615  Biso   1.000  C
  C27      1.0000 0.00000  0.25950  0.16606  Biso   1.000  C
  C28      1.0000 0.00000  0.25950  0.16615  Biso   1.000  C
  C29      1.0000 0.00004  0.25946  0.16606  Biso   1.000  C
  C30      1.0000 0.00004  0.25946  0.16615  Biso   1.000  C
  C31      1.0000 0.00004  0.25950  0.16606  Biso   1.000  C
  C32      1.0000 0.00004  0.25950  0.16615  Biso   1.000  C
  O3       1.0000 0.18896  0.08152  0.72266  Biso   1.000  O
  H10      1.0000 0.21708  0.21708  0.84873  Biso   1.000  H
  H11      1.0000 0.18302  0.18302  0.74840  Biso   1.000  H
  H12      1.0000 0.21708  0.21713  0.84873  Biso   1.000  H
  H13      1.0000 0.21713  0.21708  0.84873  Biso   1.000  H
  H14      1.0000 0.21713  0.21713  0.84873  Biso   1.000  H
  C33      1.0000 0.25946  0.00000  0.83394  Biso   1.000  C
  C34      1.0000 0.25946  0.00004  0.83394  Biso   1.000  C
  C35      1.0000 0.25950  0.00000  0.83394  Biso   1.000  C
  C36      1.0000 0.25950  0.00004  0.83394  Biso   1.000  C
  N13      1.0000 0.23798  0.94973  0.11064  Biso   1.000  N
  H15      1.0000 0.30051  0.00000  0.15930  Biso   1.000  H
  H16      1.0000 0.30051  0.00004  0.15930  Biso   1.000  H
  H17      1.0000 0.24986  0.00000  0.25406  Biso   1.000  H
  H18      1.0000 0.24986  0.00004  0.25406  Biso   1.000  H
  O4       1.0000 0.08152  0.18896  0.72266  Biso   1.000  O
  C37      1.0000 0.00000  0.25946  0.83394  Biso   1.000  C
  C38      1.0000 0.00000  0.25950  0.83394  Biso   1.000  C
  C39      1.0000 0.00004  0.25946  0.83394  Biso   1.000  C
  C40      1.0000 0.00004  0.25950  0.83394  Biso   1.000  C
  N14      1.0000 0.94973  0.23798  0.11064  Biso   1.000  N
  H19      1.0000 0.00000  0.30051  0.15930  Biso   1.000  H
  H20      1.0000 0.00000  0.24986  0.25406  Biso   1.000  H
  H21      1.0000 0.00004  0.30051  0.15930  Biso   1.000  H
  H22      1.0000 0.00004  0.24986  0.25406  Biso   1.000  H
  N15      1.0000 0.23798  0.94973  0.88945  Biso   1.000  N
  H23      1.0000 0.30051  0.00000  0.84070  Biso   1.000  H
  H24      1.0000 0.30051  0.00004  0.84070  Biso   1.000  H
  H25      1.0000 0.24986  0.00000  0.74603  Biso   1.000  H
  H26      1.0000 0.24986  0.00004  0.74603  Biso   1.000  H
  C41      1.0000 0.26133  0.92729  0.00000  Biso   1.000  C
  C42      1.0000 0.20927  0.91138  0.17528  Biso   1.000  C
  C43      1.0000 0.20931  0.91138  0.17528  Biso   1.000  C
  N16      1.0000 0.94973  0.23798  0.88945  Biso   1.000  N
  H27      1.0000 0.00000  0.30051  0.84070  Biso   1.000  H
  H28      1.0000 0.00000  0.24986  0.74603  Biso   1.000  H
  H29      1.0000 0.00004  0.30051  0.84070  Biso   1.000  H
  H30      1.0000 0.00004  0.24986  0.74603  Biso   1.000  H
  C44      1.0000 0.92729  0.26133  0.00000  Biso   1.000  C
  C45      1.0000 0.91138  0.20927  0.17528  Biso   1.000  C
  C46      1.0000 0.91138  0.20931  0.17528  Biso   1.000  C
  C47      1.0000 0.20927  0.91138  0.82472  Biso   1.000  C
  C48      1.0000 0.20931  0.91138  0.82472  Biso   1.000  C
  H31      1.0000 0.30280  0.92937  0.00000  Biso   1.000  H
  C49      1.0000 0.24035  0.86643  0.00000  Biso   1.000  C
  C50      1.0000 0.24035  0.86638  0.00000  Biso   1.000  C
  N17      1.0000 0.20790  0.86310  0.11055  Biso   1.000  N
  O5       1.0000 0.18896  0.91848  0.27734  Biso   1.000  O
  N18      1.0000 0.20794  0.86310  0.11055  Biso   1.000  N
  C51      1.0000 0.91138  0.20927  0.82472  Biso   1.000  C
  C52      1.0000 0.91138  0.20931  0.82472  Biso   1.000  C
  C53      1.0000 0.86643  0.24035  0.00000  Biso   1.000  C
  H32      1.0000 0.92937  0.30280  0.00000  Biso   1.000  H
  C54      1.0000 0.86638  0.24035  0.00000  Biso   1.000  C
  N19      1.0000 0.86310  0.20790  0.11055  Biso   1.000  N
  N20      1.0000 0.86310  0.20794  0.11055  Biso   1.000  N
  O6       1.0000 0.91848  0.18896  0.27734  Biso   1.000  O
  N21      1.0000 0.20790  0.86310  0.88945  Biso   1.000  N
  O7       1.0000 0.18896  0.91848  0.72266  Biso   1.000  O
  N22      1.0000 0.20794  0.86310  0.88945  Biso   1.000  N
  H33      1.0000 0.27180  0.83917  0.00000  Biso   1.000  H
  C55      1.0000 0.18829  0.81171  0.16268  Biso   1.000  C
  N23      1.0000 0.86310  0.20790  0.88945  Biso   1.000  N
  N24      1.0000 0.86310  0.20794  0.88945  Biso   1.000  N
  O8       1.0000 0.91848  0.18896  0.72266  Biso   1.000  O
  H34      1.0000 0.83917  0.27180  0.00000  Biso   1.000  H
  C56      1.0000 0.81171  0.18829  0.16268  Biso   1.000  C
  C57      1.0000 0.18829  0.81171  0.83732  Biso   1.000  C
  H35      1.0000 0.18302  0.81698  0.25160  Biso   1.000  H
  H36      1.0000 0.21708  0.78292  0.15136  Biso   1.000  H
  H37      1.0000 0.21708  0.78287  0.15136  Biso   1.000  H
  N25      1.0000 0.13690  0.79210  0.11055  Biso   1.000  N
  H38      1.0000 0.21713  0.78292  0.15136  Biso   1.000  H
  N26      1.0000 0.13690  0.79206  0.11055  Biso   1.000  N
  H39      1.0000 0.21713  0.78287  0.15136  Biso   1.000  H
  C58      1.0000 0.81171  0.18829  0.83732  Biso   1.000  C
  H40      1.0000 0.81698  0.18302  0.25160  Biso   1.000  H
  H41      1.0000 0.78292  0.21708  0.15136  Biso   1.000  H
  N27      1.0000 0.79210  0.13690  0.11055  Biso   1.000  N
  H42      1.0000 0.78292  0.21713  0.15136  Biso   1.000  H
  H43      1.0000 0.78287  0.21708  0.15136  Biso   1.000  H
  N28      1.0000 0.79206  0.13690  0.11055  Biso   1.000  N
  H44      1.0000 0.78287  0.21713  0.15136  Biso   1.000  H
  H45      1.0000 0.21708  0.78292  0.84873  Biso   1.000  H
  H46      1.0000 0.18302  0.81698  0.74840  Biso   1.000  H
  H47      1.0000 0.21708  0.78287  0.84873  Biso   1.000  H
  N29      1.0000 0.13690  0.79210  0.88945  Biso   1.000  N
  H48      1.0000 0.21713  0.78292  0.84873  Biso   1.000  H
  N30      1.0000 0.13690  0.79206  0.88945  Biso   1.000  N
  H49      1.0000 0.21713  0.78287  0.84873  Biso   1.000  H
  C59      1.0000 0.13357  0.75961  0.00000  Biso   1.000  C
  C60      1.0000 0.13362  0.75961  0.00000  Biso   1.000  C
  C61      1.0000 0.08862  0.79073  0.17528  Biso   1.000  C
  C62      1.0000 0.08862  0.79069  0.17528  Biso   1.000  C
  H50      1.0000 0.78292  0.21708  0.84873  Biso   1.000  H
  H51      1.0000 0.81698  0.18302  0.74840  Biso   1.000  H
  N31      1.0000 0.79210  0.13690  0.88945  Biso   1.000  N
  H52      1.0000 0.78292  0.21713  0.84873  Biso   1.000  H
  H53      1.0000 0.78287  0.21708  0.84873  Biso   1.000  H
  N32      1.0000 0.79206  0.13690  0.88945  Biso   1.000  N
  H54      1.0000 0.78287  0.21713  0.84873  Biso   1.000  H
  C63      1.0000 0.75961  0.13357  0.00000  Biso   1.000  C
  C64      1.0000 0.75961  0.13362  0.00000  Biso   1.000  C
  C65      1.0000 0.79073  0.08862  0.17528  Biso   1.000  C
  C66      1.0000 0.79069  0.08862  0.17528  Biso   1.000  C
  C67      1.0000 0.08862  0.79073  0.82472  Biso   1.000  C
  C68      1.0000 0.08862  0.79069  0.82472  Biso   1.000  C
  C69      1.0000 0.07271  0.73867  0.00000  Biso   1.000  C
  H55      1.0000 0.16083  0.72816  0.00000  Biso   1.000  H
  H56      1.0000 0.16083  0.72820  0.00000  Biso   1.000  H
  N33      1.0000 0.05023  0.76202  0.11064  Biso   1.000  N
  O9       1.0000 0.08152  0.81104  0.27734  Biso   1.000  O
  C70      1.0000 0.79073  0.08862  0.82472  Biso   1.000  C
  C71      1.0000 0.79069  0.08862  0.82472  Biso   1.000  C
  C72      1.0000 0.73867  0.07271  0.00000  Biso   1.000  C
  H57      1.0000 0.72816  0.16083  0.00000  Biso   1.000  H
  H58      1.0000 0.72820  0.16083  0.00000  Biso   1.000  H
  N34      1.0000 0.76202  0.05023  0.11064  Biso   1.000  N
  O10      1.0000 0.81104  0.08152  0.27734  Biso   1.000  O
  N35      1.0000 0.05023  0.76202  0.88945  Biso   1.000  N
  O11      1.0000 0.08152  0.81104  0.72266  Biso   1.000  O
  H59      1.0000 0.07063  0.69720  0.00000  Biso   1.000  H
  C73      1.0000 0.00000  0.74054  0.16606  Biso   1.000  C
  C74      1.0000 0.00000  0.74054  0.16615  Biso   1.000  C
  C75      1.0000 0.00000  0.74050  0.16606  Biso   1.000  C
  C76      1.0000 0.00000  0.74050  0.16615  Biso   1.000  C
  C77      1.0000 0.00004  0.74054  0.16606  Biso   1.000  C
  C78      1.0000 0.00004  0.74054  0.16615  Biso   1.000  C
  C79      1.0000 0.00004  0.74050  0.16606  Biso   1.000  C
  C80      1.0000 0.00004  0.74050  0.16615  Biso   1.000  C
  N36      1.0000 0.76202  0.05023  0.88945  Biso   1.000  N
  O12      1.0000 0.81104  0.08152  0.72266  Biso   1.000  O
  H60      1.0000 0.69720  0.07063  0.00000  Biso   1.000  H
  C81      1.0000 0.74054  0.00000  0.16606  Biso   1.000  C
  C82      1.0000 0.74054  0.00000  0.16615  Biso   1.000  C
  C83      1.0000 0.74054  0.00004  0.16606  Biso   1.000  C
  C84      1.0000 0.74054  0.00004  0.16615  Biso   1.000  C
  C85      1.0000 0.74050  0.00000  0.16606  Biso   1.000  C
  C86      1.0000 0.74050  0.00000  0.16615  Biso   1.000  C
  C87      1.0000 0.74050  0.00004  0.16606  Biso   1.000  C
  C88      1.0000 0.74050  0.00004  0.16615  Biso   1.000  C
  C89      1.0000 0.00000  0.74054  0.83394  Biso   1.000  C
  C90      1.0000 0.00000  0.74050  0.83394  Biso   1.000  C
  C91      1.0000 0.00004  0.74054  0.83394  Biso   1.000  C
  C92      1.0000 0.00004  0.74050  0.83394  Biso   1.000  C
  N37      1.0000 0.94973  0.76202  0.11064  Biso   1.000  N
  H61      1.0000 0.00000  0.69945  0.15930  Biso   1.000  H
  H62      1.0000 0.00000  0.75005  0.25406  Biso   1.000  H
  H63      1.0000 0.00000  0.69949  0.15930  Biso   1.000  H
  H64      1.0000 0.00000  0.75009  0.25406  Biso   1.000  H
  H65      1.0000 0.00004  0.69945  0.15930  Biso   1.000  H
  H66      1.0000 0.00004  0.75005  0.25406  Biso   1.000  H
  H67      1.0000 0.00004  0.69949  0.15930  Biso   1.000  H
  H68      1.0000 0.00004  0.75009  0.25406  Biso   1.000  H
  C93      1.0000 0.74054  0.00000  0.83394  Biso   1.000  C
  C94      1.0000 0.74054  0.00004  0.83394  Biso   1.000  C
  C95      1.0000 0.74050  0.00000  0.83394  Biso   1.000  C
  C96      1.0000 0.74050  0.00004  0.83394  Biso   1.000  C
  N38      1.0000 0.76202  0.94973  0.11064  Biso   1.000  N
  H69      1.0000 0.69945  0.00000  0.15930  Biso   1.000  H
  H70      1.0000 0.75005  0.00000  0.25406  Biso   1.000  H
  H71      1.0000 0.69945  0.00004  0.15930  Biso   1.000  H
  H72      1.0000 0.75005  0.00004  0.25406  Biso   1.000  H
  H73      1.0000 0.69949  0.00000  0.15930  Biso   1.000  H
  H74      1.0000 0.75009  0.00000  0.25406  Biso   1.000  H
  H75      1.0000 0.69949  0.00004  0.15930  Biso   1.000  H
  H76      1.0000 0.75009  0.00004  0.25406  Biso   1.000  H
  N39      1.0000 0.94973  0.76202  0.88945  Biso   1.000  N
  H77      1.0000 0.00000  0.75005  0.74603  Biso   1.000  H
  H78      1.0000 0.00000  0.69945  0.84070  Biso   1.000  H
  H79      1.0000 0.00000  0.75009  0.74603  Biso   1.000  H
  H80      1.0000 0.00000  0.69949  0.84070  Biso   1.000  H
  H81      1.0000 0.00004  0.75005  0.74603  Biso   1.000  H
  H82      1.0000 0.00004  0.69945  0.84070  Biso   1.000  H
  H83      1.0000 0.00004  0.75009  0.74603  Biso   1.000  H
  H84      1.0000 0.00004  0.69949  0.84070  Biso   1.000  H
  C97      1.0000 0.92729  0.73867  0.00000  Biso   1.000  C
  C98      1.0000 0.91138  0.79073  0.17528  Biso   1.000  C
  C99      1.0000 0.91138  0.79069  0.17528  Biso   1.000  C
  N40      1.0000 0.76202  0.94973  0.88945  Biso   1.000  N
  H85      1.0000 0.75005  0.00000  0.74603  Biso   1.000  H
  H86      1.0000 0.69945  0.00000  0.84070  Biso   1.000  H
  H87      1.0000 0.75005  0.00004  0.74603  Biso   1.000  H
  H88      1.0000 0.69945  0.00004  0.84070  Biso   1.000  H
  H89      1.0000 0.75009  0.00000  0.74603  Biso   1.000  H
  H90      1.0000 0.69949  0.00000  0.84070  Biso   1.000  H
  H91      1.0000 0.75009  0.00004  0.74603  Biso   1.000  H
  H92      1.0000 0.69949  0.00004  0.84070  Biso   1.000  H
  C100     1.0000 0.73867  0.92729  0.00000  Biso   1.000  C
  C101     1.0000 0.79073  0.91138  0.17528  Biso   1.000  C
  C102     1.0000 0.79069  0.91138  0.17528  Biso   1.000  C
  C103     1.0000 0.91138  0.79073  0.82472  Biso   1.000  C
  C104     1.0000 0.91138  0.79069  0.82472  Biso   1.000  C
  C105     1.0000 0.86643  0.75961  0.00000  Biso   1.000  C
  C106     1.0000 0.86638  0.75961  0.00000  Biso   1.000  C
  H93      1.0000 0.92937  0.69720  0.00000  Biso   1.000  H
  N41      1.0000 0.86310  0.79210  0.11055  Biso   1.000  N
  N42      1.0000 0.86310  0.79206  0.11055  Biso   1.000  N
  O13      1.0000 0.91848  0.81104  0.27734  Biso   1.000  O
  C107     1.0000 0.79073  0.91138  0.82472  Biso   1.000  C
  C108     1.0000 0.79069  0.91138  0.82472  Biso   1.000  C
  C109     1.0000 0.75961  0.86643  0.00000  Biso   1.000  C
  C110     1.0000 0.75961  0.86638  0.00000  Biso   1.000  C
  H94      1.0000 0.69720  0.92937  0.00000  Biso   1.000  H
  N43      1.0000 0.79210  0.86310  0.11055  Biso   1.000  N
  O14      1.0000 0.81104  0.91848  0.27734  Biso   1.000  O
  N44      1.0000 0.79206  0.86310  0.11055  Biso   1.000  N
  N45      1.0000 0.86310  0.79210  0.88945  Biso   1.000  N
  N46      1.0000 0.86310  0.79206  0.88945  Biso   1.000  N
  O15      1.0000 0.91848  0.81104  0.72266  Biso   1.000  O
  H95      1.0000 0.83917  0.72816  0.00000  Biso   1.000  H
  H96      1.0000 0.83917  0.72820  0.00000  Biso   1.000  H
  C111     1.0000 0.81171  0.81171  0.16268  Biso   1.000  C
  N47      1.0000 0.79210  0.86310  0.88945  Biso   1.000  N
  O16      1.0000 0.81104  0.91848  0.72266  Biso   1.000  O
  N48      1.0000 0.79206  0.86310  0.88945  Biso   1.000  N
  H97      1.0000 0.72816  0.83917  0.00000  Biso   1.000  H
  H98      1.0000 0.72820  0.83917  0.00000  Biso   1.000  H
  C112     1.0000 0.81171  0.81171  0.83732  Biso   1.000  C
  H99      1.0000 0.81698  0.81698  0.25160  Biso   1.000  H
  H100     1.0000 0.78292  0.78292  0.15136  Biso   1.000  H
  H101     1.0000 0.78292  0.78287  0.15136  Biso   1.000  H
  H102     1.0000 0.78287  0.78292  0.15136  Biso   1.000  H
  H103     1.0000 0.78287  0.78287  0.15136  Biso   1.000  H
  H104     1.0000 0.78292  0.78292  0.84873  Biso   1.000  H
  H105     1.0000 0.81698  0.81698  0.74840  Biso   1.000  H
  H106     1.0000 0.78292  0.78287  0.84873  Biso   1.000  H
  H107     1.0000 0.78287  0.78292  0.84873  Biso   1.000  H
  H108     1.0000 0.78287  0.78287  0.84873  Biso   1.000  H
  C113     1.0000 0.31173  0.31173  0.33732  Biso   1.000  C
  N49      1.0000 0.36312  0.29208  0.38945  Biso   1.000  N
  H109     1.0000 0.28290  0.28290  0.34873  Biso   1.000  H
  H110     1.0000 0.31701  0.31701  0.24840  Biso   1.000  H
  N50      1.0000 0.29208  0.36312  0.38945  Biso   1.000  N
  C114     1.0000 0.36640  0.25959  0.50000  Biso   1.000  C
  C115     1.0000 0.41140  0.29071  0.32472  Biso   1.000  C
  C116     1.0000 0.25959  0.36640  0.50000  Biso   1.000  C
  C117     1.0000 0.29071  0.41140  0.32472  Biso   1.000  C
  H111     1.0000 0.33919  0.22818  0.50000  Biso   1.000  H
  C118     1.0000 0.42731  0.23865  0.50000  Biso   1.000  C
  N51      1.0000 0.36312  0.29208  0.61055  Biso   1.000  N
  O17      1.0000 0.41851  0.31106  0.22266  Biso   1.000  O
  N52      1.0000 0.44975  0.26204  0.38945  Biso   1.000  N
  N53      1.0000 0.29208  0.36312  0.61055  Biso   1.000  N
  H112     1.0000 0.22818  0.33919  0.50000  Biso   1.000  H
  C119     1.0000 0.23865  0.42731  0.50000  Biso   1.000  C
  O18      1.0000 0.31106  0.41851  0.22266  Biso   1.000  O
  N54      1.0000 0.26204  0.44975  0.38945  Biso   1.000  N
  H113     1.0000 0.42939  0.19718  0.50000  Biso   1.000  H
  N55      1.0000 0.44975  0.26204  0.61064  Biso   1.000  N
  C120     1.0000 0.41140  0.29071  0.67528  Biso   1.000  C
  C121     1.0000 0.31173  0.31173  0.66268  Biso   1.000  C
  C122     1.0000 0.49998  0.24052  0.33394  Biso   1.000  C
  C123     1.0000 0.29071  0.41140  0.67528  Biso   1.000  C
  N56      1.0000 0.26204  0.44975  0.61064  Biso   1.000  N
  H114     1.0000 0.19718  0.42939  0.50000  Biso   1.000  H
  C124     1.0000 0.24052  0.49998  0.33394  Biso   1.000  C
  C125     1.0000 0.49998  0.24052  0.66615  Biso   1.000  C
  O19      1.0000 0.41851  0.31106  0.77734  Biso   1.000  O
  H115     1.0000 0.28290  0.28290  0.65127  Biso   1.000  H
  H116     1.0000 0.31701  0.31701  0.75160  Biso   1.000  H
  H117     1.0000 0.49998  0.25011  0.24603  Biso   1.000  H
  H118     1.0000 0.49998  0.19951  0.34070  Biso   1.000  H
  N57      1.0000 0.55025  0.26204  0.38945  Biso   1.000  N
  O20      1.0000 0.31106  0.41851  0.77734  Biso   1.000  O
  C126     1.0000 0.24052  0.49998  0.66615  Biso   1.000  C
  N58      1.0000 0.26204  0.55025  0.38945  Biso   1.000  N
  H119     1.0000 0.25011  0.49998  0.24603  Biso   1.000  H
  H120     1.0000 0.19951  0.49998  0.34070  Biso   1.000  H
  N59      1.0000 0.55025  0.26204  0.61064  Biso   1.000  N
  H121     1.0000 0.49998  0.25011  0.75397  Biso   1.000  H
  H122     1.0000 0.49998  0.19951  0.65930  Biso   1.000  H
  C127     1.0000 0.57269  0.23865  0.50000  Biso   1.000  C
  C128     1.0000 0.58860  0.29071  0.32472  Biso   1.000  C
  N60      1.0000 0.26204  0.55025  0.61064  Biso   1.000  N
  H123     1.0000 0.25011  0.49998  0.75397  Biso   1.000  H
  H124     1.0000 0.19951  0.49998  0.65930  Biso   1.000  H
  C129     1.0000 0.23865  0.57269  0.50000  Biso   1.000  C
  C130     1.0000 0.29071  0.58860  0.32472  Biso   1.000  C
  C131     1.0000 0.58860  0.29071  0.67528  Biso   1.000  C
  C132     1.0000 0.63355  0.25959  0.50000  Biso   1.000  C
  H125     1.0000 0.57057  0.19718  0.50000  Biso   1.000  H
  O21      1.0000 0.58149  0.31106  0.22266  Biso   1.000  O
  N61      1.0000 0.63688  0.29208  0.38945  Biso   1.000  N
  C133     1.0000 0.29071  0.58860  0.67528  Biso   1.000  C
  C134     1.0000 0.25959  0.63355  0.50000  Biso   1.000  C
  H126     1.0000 0.19718  0.57057  0.50000  Biso   1.000  H
  O22      1.0000 0.31106  0.58149  0.22266  Biso   1.000  O
  N62      1.0000 0.29208  0.63688  0.38945  Biso   1.000  N
  O23      1.0000 0.58149  0.31106  0.77734  Biso   1.000  O
  N63      1.0000 0.63688  0.29208  0.61055  Biso   1.000  N
  H127     1.0000 0.66077  0.22818  0.50000  Biso   1.000  H
  C135     1.0000 0.68827  0.31173  0.33732  Biso   1.000  C
  O24      1.0000 0.31106  0.58149  0.77734  Biso   1.000  O
  N64      1.0000 0.29208  0.63688  0.61055  Biso   1.000  N
  H128     1.0000 0.22818  0.66077  0.50000  Biso   1.000  H
  C136     1.0000 0.31173  0.68827  0.33732  Biso   1.000  C
  C137     1.0000 0.68827  0.31173  0.66268  Biso   1.000  C
  N65      1.0000 0.70788  0.36312  0.38945  Biso   1.000  N
  H129     1.0000 0.71710  0.28290  0.34873  Biso   1.000  H
  H130     1.0000 0.68299  0.31701  0.24840  Biso   1.000  H
  C138     1.0000 0.31173  0.68827  0.66268  Biso   1.000  C
  N66      1.0000 0.36312  0.70788  0.38945  Biso   1.000  N
  H131     1.0000 0.28290  0.71710  0.34873  Biso   1.000  H
  H132     1.0000 0.31701  0.68299  0.24840  Biso   1.000  H
  N67      1.0000 0.70788  0.36312  0.61055  Biso   1.000  N
  H133     1.0000 0.71710  0.28290  0.65127  Biso   1.000  H
  H134     1.0000 0.68299  0.31701  0.75160  Biso   1.000  H
  C139     1.0000 0.74037  0.36640  0.50000  Biso   1.000  C
  C140     1.0000 0.70929  0.41140  0.32472  Biso   1.000  C
  N68      1.0000 0.36312  0.70788  0.61055  Biso   1.000  N
  H135     1.0000 0.28290  0.71710  0.65127  Biso   1.000  H
  H136     1.0000 0.31701  0.68299  0.75160  Biso   1.000  H
  C141     1.0000 0.36640  0.74037  0.50000  Biso   1.000  C
  C142     1.0000 0.41140  0.70929  0.32472  Biso   1.000  C
  C143     1.0000 0.70929  0.41140  0.67528  Biso   1.000  C
  H137     1.0000 0.77178  0.33919  0.50000  Biso   1.000  H
  C144     1.0000 0.76131  0.42731  0.50000  Biso   1.000  C
  O25      1.0000 0.68894  0.41851  0.22266  Biso   1.000  O
  N69      1.0000 0.73796  0.44975  0.38945  Biso   1.000  N
  C145     1.0000 0.41140  0.70929  0.67528  Biso   1.000  C
  H138     1.0000 0.33919  0.77178  0.50000  Biso   1.000  H
  C146     1.0000 0.42731  0.76131  0.50000  Biso   1.000  C
  O26      1.0000 0.41851  0.68894  0.22266  Biso   1.000  O
  N70      1.0000 0.44975  0.73796  0.38945  Biso   1.000  N
  O27      1.0000 0.68894  0.41851  0.77734  Biso   1.000  O
  N71      1.0000 0.73796  0.44975  0.61064  Biso   1.000  N
  H139     1.0000 0.80278  0.42939  0.50000  Biso   1.000  H
  C147     1.0000 0.75944  0.49998  0.33394  Biso   1.000  C
  O28      1.0000 0.41851  0.68894  0.77734  Biso   1.000  O
  N72      1.0000 0.44975  0.73796  0.61064  Biso   1.000  N
  H140     1.0000 0.42939  0.80278  0.50000  Biso   1.000  H
  C148     1.0000 0.49998  0.75944  0.33394  Biso   1.000  C
  C149     1.0000 0.75944  0.49998  0.66615  Biso   1.000  C
  N73      1.0000 0.73796  0.55025  0.38945  Biso   1.000  N
  H141     1.0000 0.74989  0.49998  0.24603  Biso   1.000  H
  H142     1.0000 0.80049  0.49998  0.34070  Biso   1.000  H
  C150     1.0000 0.49998  0.75944  0.66615  Biso   1.000  C
  N74      1.0000 0.55025  0.73796  0.38945  Biso   1.000  N
  H143     1.0000 0.49998  0.74989  0.24603  Biso   1.000  H
  H144     1.0000 0.49998  0.80049  0.34070  Biso   1.000  H
  N75      1.0000 0.73796  0.55025  0.61064  Biso   1.000  N
  H145     1.0000 0.74989  0.49998  0.75397  Biso   1.000  H
  H146     1.0000 0.80049  0.49998  0.65930  Biso   1.000  H
  C151     1.0000 0.76131  0.57269  0.50000  Biso   1.000  C
  C152     1.0000 0.70929  0.58860  0.32472  Biso   1.000  C
  N76      1.0000 0.55025  0.73796  0.61064  Biso   1.000  N
  H147     1.0000 0.49998  0.74989  0.75397  Biso   1.000  H
  H148     1.0000 0.49998  0.80049  0.65930  Biso   1.000  H
  C153     1.0000 0.57269  0.76131  0.50000  Biso   1.000  C
  C154     1.0000 0.58860  0.70929  0.32472  Biso   1.000  C
  C155     1.0000 0.70929  0.58860  0.67528  Biso   1.000  C
  C156     1.0000 0.74037  0.63355  0.50000  Biso   1.000  C
  H149     1.0000 0.80278  0.57057  0.50000  Biso   1.000  H
  O29      1.0000 0.68894  0.58149  0.22266  Biso   1.000  O
  N77      1.0000 0.70788  0.63688  0.38945  Biso   1.000  N
  C157     1.0000 0.58860  0.70929  0.67528  Biso   1.000  C
  C158     1.0000 0.63355  0.74037  0.50000  Biso   1.000  C
  H150     1.0000 0.57057  0.80278  0.50000  Biso   1.000  H
  O30      1.0000 0.58149  0.68894  0.22266  Biso   1.000  O
  N78      1.0000 0.63688  0.70788  0.38945  Biso   1.000  N
  O31      1.0000 0.68894  0.58149  0.77734  Biso   1.000  O
  N79      1.0000 0.70788  0.63688  0.61055  Biso   1.000  N
  H151     1.0000 0.77178  0.66077  0.50000  Biso   1.000  H
  C159     1.0000 0.68827  0.68827  0.33732  Biso   1.000  C
  O32      1.0000 0.58149  0.68894  0.77734  Biso   1.000  O
  N80      1.0000 0.63688  0.70788  0.61055  Biso   1.000  N
  H152     1.0000 0.66077  0.77178  0.50000  Biso   1.000  H
  C160     1.0000 0.68827  0.68827  0.66268  Biso   1.000  C
  H153     1.0000 0.71710  0.71710  0.34873  Biso   1.000  H
  H154     1.0000 0.68299  0.68299  0.24840  Biso   1.000  H
  H155     1.0000 0.71710  0.71710  0.65127  Biso   1.000  H
  H156     1.0000 0.68299  0.68299  0.75160  Biso   1.000  H
  O33      1.0000 0.94458  0.90199  0.02903  Biso   1.000  O
  O34      1.0000 0.90199  0.94458  0.02903  Biso   1.000  O
  O35      1.0000 0.90199  0.94458  0.97106  Biso   1.000  O
  O36      1.0000 0.00004  0.89297  0.00000  Biso   1.000  O
  O37      1.0000 0.00000  0.89597  0.94997  Biso   1.000  O
  O38      1.0000 0.00004  0.89597  0.94997  Biso   1.000  O
  O39      1.0000 0.00000  0.89297  0.00000  Biso   1.000  O
  O40      1.0000 0.00004  0.89597  0.05003  Biso   1.000  O
  O41      1.0000 0.00000  0.89597  0.05003  Biso   1.000  O
  O42      1.0000 0.94458  0.90199  0.97106  Biso   1.000  O
  O43      1.0000 0.89297  0.00000  0.00000  Biso   1.000  O
  O44      1.0000 0.89597  0.00004  0.94997  Biso   1.000  O
  O45      1.0000 0.89597  0.00000  0.94997  Biso   1.000  O
  O46      1.0000 0.89297  0.00004  0.00000  Biso   1.000  O
  O47      1.0000 0.89597  0.00000  0.05003  Biso   1.000  O
  O48      1.0000 0.89597  0.00004  0.05003  Biso   1.000  O
  O49      1.0000 0.05538  0.90199  0.97106  Biso   1.000  O
  O50      1.0000 0.05538  0.90199  0.02903  Biso   1.000  O
  O51      1.0000 0.90199  0.05538  0.97106  Biso   1.000  O
  O52      1.0000 0.90199  0.05538  0.02903  Biso   1.000  O
  O53      1.0000 0.09801  0.94458  0.97106  Biso   1.000  O
  O54      1.0000 0.09801  0.94458  0.02903  Biso   1.000  O
  O55      1.0000 0.94458  0.09801  0.97106  Biso   1.000  O
  O56      1.0000 0.94458  0.09801  0.02903  Biso   1.000  O
  O57      1.0000 0.10698  0.00004  0.00000  Biso   1.000  O
  O58      1.0000 0.10399  0.00000  0.94997  Biso   1.000  O
  O59      1.0000 0.10399  0.00004  0.94997  Biso   1.000  O
  O60      1.0000 0.10698  0.00000  0.00000  Biso   1.000  O
  O61      1.0000 0.10399  0.00004  0.05003  Biso   1.000  O
  O62      1.0000 0.10399  0.00000  0.05003  Biso   1.000  O
  O63      1.0000 0.00000  0.10698  0.00000  Biso   1.000  O
  O64      1.0000 0.00004  0.10399  0.94997  Biso   1.000  O
  O65      1.0000 0.00000  0.10399  0.94997  Biso   1.000  O
  O66      1.0000 0.00004  0.10698  0.00000  Biso   1.000  O
  O67      1.0000 0.00000  0.10399  0.05003  Biso   1.000  O
  O68      1.0000 0.00004  0.10399  0.05003  Biso   1.000  O
  O69      1.0000 0.09801  0.05538  0.97106  Biso   1.000  O
  O70      1.0000 0.09801  0.05538  0.02903  Biso   1.000  O
  O71      1.0000 0.05538  0.09801  0.97106  Biso   1.000  O
  O72      1.0000 0.05538  0.09801  0.02903  Biso   1.000  O
