data_image0
_cell_length_a       14.449
_cell_length_b       14.449
_cell_length_c       10.518
_cell_angle_alpha    90
_cell_angle_beta     90
_cell_angle_gamma    120

_symmetry_space_group_name_H-M    "P 1"
_symmetry_int_tables_number       1

loop_
  _symmetry_equiv_pos_as_xyz
  'x, y, z'

loop_
  _atom_site_label
  _atom_site_occupancy
  _atom_site_fract_x
  _atom_site_fract_y
  _atom_site_fract_z
  _atom_site_thermal_displace_type
  _atom_site_B_iso_or_equiv
  _atom_site_type_symbol
  O1       1.0000 0.75962  0.75960  0.28960  Biso   1.000  O
  O2       1.0000 0.75955  0.75960  0.28960  Biso   1.000  O
  N1       1.0000 0.65687  0.74457  0.11523  Biso   1.000  N
  N2       1.0000 0.74454  0.65691  0.11523  Biso   1.000  N
  N3       1.0000 0.65687  0.74457  0.11533  Biso   1.000  N
  N4       1.0000 0.74454  0.65691  0.11533  Biso   1.000  N
  N5       1.0000 0.65694  0.74457  0.11523  Biso   1.000  N
  N6       1.0000 0.74461  0.65691  0.11523  Biso   1.000  N
  N7       1.0000 0.65694  0.74457  0.11533  Biso   1.000  N
  N8       1.0000 0.74461  0.65691  0.11533  Biso   1.000  N
  C1       1.0000 0.72461  0.72459  0.18349  Biso   1.000  C
  C2       1.0000 0.62089  0.68312  0.00000  Biso   1.000  C
  C3       1.0000 0.60869  0.80435  0.16486  Biso   1.000  C
  C4       1.0000 0.62089  0.68312  0.00010  Biso   1.000  C
  C5       1.0000 0.62096  0.68312  0.00000  Biso   1.000  C
  C6       1.0000 0.62096  0.68312  0.00010  Biso   1.000  C
  C7       1.0000 0.68312  0.62086  0.00000  Biso   1.000  C
  C8       1.0000 0.80439  0.60872  0.16486  Biso   1.000  C
  C9       1.0000 0.68312  0.62086  0.00010  Biso   1.000  C
  N9       1.0000 0.65693  0.91232  0.11523  Biso   1.000  N
  N10      1.0000 0.65693  0.91232  0.11533  Biso   1.000  N
  H1       1.0000 0.53161  0.76575  0.14366  Biso   1.000  H
  H2       1.0000 0.61525  0.80763  0.25860  Biso   1.000  H
  H3       1.0000 0.61514  0.80755  0.25860  Biso   1.000  H
  N11      1.0000 0.65687  0.74457  0.88477  Biso   1.000  N
  N12      1.0000 0.65687  0.74457  0.88467  Biso   1.000  N
  N13      1.0000 0.65694  0.74457  0.88477  Biso   1.000  N
  N14      1.0000 0.65694  0.74457  0.88467  Biso   1.000  N
  H4       1.0000 0.54173  0.63373  0.00000  Biso   1.000  H
  H5       1.0000 0.54173  0.63373  0.00010  Biso   1.000  H
  N15      1.0000 0.91237  0.65691  0.11523  Biso   1.000  N
  H6       1.0000 0.80763  0.61519  0.25860  Biso   1.000  H
  N16      1.0000 0.91237  0.65691  0.11533  Biso   1.000  N
  H7       1.0000 0.76583  0.53160  0.14366  Biso   1.000  H
  N17      1.0000 0.74454  0.65691  0.88477  Biso   1.000  N
  N18      1.0000 0.74454  0.65691  0.88467  Biso   1.000  N
  N19      1.0000 0.74461  0.65691  0.88477  Biso   1.000  N
  N20      1.0000 0.74461  0.65691  0.88467  Biso   1.000  N
  H8       1.0000 0.63363  0.54167  0.00000  Biso   1.000  H
  H9       1.0000 0.63363  0.54167  0.00010  Biso   1.000  H
  H10      1.0000 0.63370  0.54167  0.00000  Biso   1.000  H
  H11      1.0000 0.63370  0.54167  0.00010  Biso   1.000  H
  C10      1.0000 0.62096  0.93781  0.00000  Biso   1.000  C
  C11      1.0000 0.62096  0.93781  0.00010  Biso   1.000  C
  C12      1.0000 0.72451  0.99998  0.18340  Biso   1.000  C
  C13      1.0000 0.72461  0.72459  0.81651  Biso   1.000  C
  C14      1.0000 0.60869  0.80435  0.83514  Biso   1.000  C
  C15      1.0000 0.99992  0.72459  0.18340  Biso   1.000  C
  C16      1.0000 0.93781  0.62086  0.00000  Biso   1.000  C
  C17      1.0000 0.99999  0.72459  0.18340  Biso   1.000  C
  C18      1.0000 0.93781  0.62086  0.00010  Biso   1.000  C
  C19      1.0000 0.80439  0.60872  0.83514  Biso   1.000  C
  C20      1.0000 0.68306  0.06216  0.00000  Biso   1.000  C
  C21      1.0000 0.68306  0.06216  0.00010  Biso   1.000  C
  N21      1.0000 0.65693  0.91232  0.88477  Biso   1.000  N
  N22      1.0000 0.65693  0.91232  0.88467  Biso   1.000  N
  H12      1.0000 0.54169  0.90800  0.00000  Biso   1.000  H
  H13      1.0000 0.54169  0.90800  0.00010  Biso   1.000  H
  H14      1.0000 0.54176  0.90800  0.00000  Biso   1.000  H
  H15      1.0000 0.54176  0.90800  0.00010  Biso   1.000  H
  O3       1.0000 0.75959  0.99998  0.28960  Biso   1.000  O
  N23      1.0000 0.74453  0.08765  0.11523  Biso   1.000  N
  N24      1.0000 0.74453  0.08765  0.11533  Biso   1.000  N
  O4       1.0000 0.75955  0.75960  0.71040  Biso   1.000  O
  O5       1.0000 0.75962  0.75960  0.71040  Biso   1.000  O
  H16      1.0000 0.53161  0.76575  0.85634  Biso   1.000  H
  H17      1.0000 0.61525  0.80763  0.74140  Biso   1.000  H
  H18      1.0000 0.61514  0.80755  0.74140  Biso   1.000  H
  O6       1.0000 0.00005  0.75960  0.28960  Biso   1.000  O
  N25      1.0000 0.08763  0.74457  0.11523  Biso   1.000  N
  N26      1.0000 0.08763  0.74457  0.11533  Biso   1.000  N
  N27      1.0000 0.91237  0.65691  0.88477  Biso   1.000  N
  N28      1.0000 0.91237  0.65691  0.88467  Biso   1.000  N
  H19      1.0000 0.90797  0.54167  0.00000  Biso   1.000  H
  H20      1.0000 0.90797  0.54167  0.00010  Biso   1.000  H
  C22      1.0000 0.06216  0.68312  0.00000  Biso   1.000  C
  C23      1.0000 0.06216  0.68312  0.00010  Biso   1.000  C
  H21      1.0000 0.80763  0.61519  0.74140  Biso   1.000  H
  H22      1.0000 0.76583  0.53160  0.85634  Biso   1.000  H
  N29      1.0000 0.74453  0.08765  0.88477  Biso   1.000  N
  N30      1.0000 0.74453  0.08765  0.88467  Biso   1.000  N
  H23      1.0000 0.63374  0.09197  0.00000  Biso   1.000  H
  H24      1.0000 0.63374  0.09197  0.00010  Biso   1.000  H
  H25      1.0000 0.63360  0.09197  0.00000  Biso   1.000  H
  H26      1.0000 0.63360  0.09197  0.00010  Biso   1.000  H
  C24      1.0000 0.72451  0.99998  0.81651  Biso   1.000  C
  C25      1.0000 0.80440  0.19562  0.16486  Biso   1.000  C
  C26      1.0000 0.80426  0.19562  0.16486  Biso   1.000  C
  C27      1.0000 0.19566  0.80435  0.16486  Biso   1.000  C
  C28      1.0000 0.99992  0.72459  0.81651  Biso   1.000  C
  C29      1.0000 0.99999  0.72459  0.81651  Biso   1.000  C
  N31      1.0000 0.08763  0.74457  0.88477  Biso   1.000  N
  N32      1.0000 0.08763  0.74457  0.88467  Biso   1.000  N
  H27      1.0000 0.09207  0.63373  0.00000  Biso   1.000  H
  H28      1.0000 0.09207  0.63373  0.00010  Biso   1.000  H
  H29      1.0000 0.09201  0.63373  0.00000  Biso   1.000  H
  H30      1.0000 0.09201  0.63373  0.00010  Biso   1.000  H
  C30      1.0000 0.80440  0.19562  0.83514  Biso   1.000  C
  C31      1.0000 0.80426  0.19562  0.83514  Biso   1.000  C
  O7       1.0000 0.75959  0.99998  0.71040  Biso   1.000  O
  H31      1.0000 0.80753  0.19234  0.25860  Biso   1.000  H
  N33      1.0000 0.91228  0.25539  0.11523  Biso   1.000  N
  N34      1.0000 0.91228  0.25539  0.11533  Biso   1.000  N
  H32      1.0000 0.76577  0.23422  0.14366  Biso   1.000  H
  H33      1.0000 0.76573  0.23414  0.14366  Biso   1.000  H
  H34      1.0000 0.23415  0.76575  0.14366  Biso   1.000  H
  N35      1.0000 0.25538  0.91232  0.11523  Biso   1.000  N
  N36      1.0000 0.25538  0.91232  0.11533  Biso   1.000  N
  H35      1.0000 0.19234  0.80755  0.25860  Biso   1.000  H
  O8       1.0000 0.00005  0.75960  0.71040  Biso   1.000  O
  C32      1.0000 0.19566  0.80435  0.83514  Biso   1.000  C
  H36      1.0000 0.80753  0.19234  0.74140  Biso   1.000  H
  N37      1.0000 0.91228  0.25539  0.88477  Biso   1.000  N
  N38      1.0000 0.91228  0.25539  0.88467  Biso   1.000  N
  H37      1.0000 0.76577  0.23422  0.85634  Biso   1.000  H
  H38      1.0000 0.76573  0.23414  0.85634  Biso   1.000  H
  C33      1.0000 0.93782  0.31685  0.00000  Biso   1.000  C
  C34      1.0000 0.93782  0.31685  0.00010  Biso   1.000  C
  C35      1.0000 0.99993  0.27537  0.18340  Biso   1.000  C
  C36      1.0000 0.93768  0.31685  0.00000  Biso   1.000  C
  C37      1.0000 0.93768  0.31685  0.00010  Biso   1.000  C
  C38      1.0000 0.00006  0.27537  0.18340  Biso   1.000  C
  C39      1.0000 0.31685  0.93781  0.00000  Biso   1.000  C
  C40      1.0000 0.31685  0.93781  0.00010  Biso   1.000  C
  C41      1.0000 0.27541  0.99998  0.18340  Biso   1.000  C
  C42      1.0000 0.27534  0.99998  0.18340  Biso   1.000  C
  H39      1.0000 0.23415  0.76575  0.85634  Biso   1.000  H
  N39      1.0000 0.25538  0.91232  0.88477  Biso   1.000  N
  N40      1.0000 0.25538  0.91232  0.88467  Biso   1.000  N
  H40      1.0000 0.19234  0.80755  0.74140  Biso   1.000  H
  C43      1.0000 0.99993  0.27537  0.81651  Biso   1.000  C
  C44      1.0000 0.00006  0.27537  0.81651  Biso   1.000  C
  H41      1.0000 0.90791  0.36624  0.00000  Biso   1.000  H
  H42      1.0000 0.90791  0.36624  0.00010  Biso   1.000  H
  C45      1.0000 0.06224  0.37910  0.00000  Biso   1.000  C
  C46      1.0000 0.06224  0.37910  0.00010  Biso   1.000  C
  C47      1.0000 0.06220  0.37902  0.00000  Biso   1.000  C
  C48      1.0000 0.06220  0.37902  0.00010  Biso   1.000  C
  O9       1.0000 0.99993  0.24037  0.28960  Biso   1.000  O
  N41      1.0000 0.08768  0.34306  0.11523  Biso   1.000  N
  N42      1.0000 0.08768  0.34306  0.11533  Biso   1.000  N
  O10      1.0000 0.00007  0.24037  0.28960  Biso   1.000  O
  H43      1.0000 0.36631  0.90800  0.00000  Biso   1.000  H
  H44      1.0000 0.36631  0.90800  0.00010  Biso   1.000  H
  H45      1.0000 0.36624  0.90800  0.00000  Biso   1.000  H
  H46      1.0000 0.36624  0.90800  0.00010  Biso   1.000  H
  C49      1.0000 0.37903  0.06216  0.00000  Biso   1.000  C
  C50      1.0000 0.37903  0.06216  0.00010  Biso   1.000  C
  O11      1.0000 0.24032  0.99998  0.28960  Biso   1.000  O
  N43      1.0000 0.34312  0.08765  0.11523  Biso   1.000  N
  N44      1.0000 0.34312  0.08765  0.11533  Biso   1.000  N
  N45      1.0000 0.34298  0.08765  0.11523  Biso   1.000  N
  N46      1.0000 0.34298  0.08765  0.11533  Biso   1.000  N
  O12      1.0000 0.24039  0.99998  0.28960  Biso   1.000  O
  C51      1.0000 0.27541  0.99998  0.81651  Biso   1.000  C
  C52      1.0000 0.27534  0.99998  0.81651  Biso   1.000  C
  O13      1.0000 0.99993  0.24037  0.71040  Biso   1.000  O
  N47      1.0000 0.08768  0.34306  0.88477  Biso   1.000  N
  N48      1.0000 0.08768  0.34306  0.88467  Biso   1.000  N
  O14      1.0000 0.00007  0.24037  0.71040  Biso   1.000  O
  H47      1.0000 0.09194  0.45830  0.00000  Biso   1.000  H
  H48      1.0000 0.09194  0.45830  0.00010  Biso   1.000  H
  H49      1.0000 0.09190  0.45822  0.00000  Biso   1.000  H
  H50      1.0000 0.09190  0.45822  0.00010  Biso   1.000  H
  H51      1.0000 0.09204  0.45822  0.00000  Biso   1.000  H
  H52      1.0000 0.09204  0.45822  0.00010  Biso   1.000  H
  C53      1.0000 0.19559  0.39125  0.16486  Biso   1.000  C
  N49      1.0000 0.34312  0.08765  0.88477  Biso   1.000  N
  N50      1.0000 0.34312  0.08765  0.88467  Biso   1.000  N
  N51      1.0000 0.34298  0.08765  0.88477  Biso   1.000  N
  N52      1.0000 0.34298  0.08765  0.88467  Biso   1.000  N
  H53      1.0000 0.45823  0.09197  0.00000  Biso   1.000  H
  H54      1.0000 0.45823  0.09197  0.00010  Biso   1.000  H
  C54      1.0000 0.39122  0.19562  0.16486  Biso   1.000  C
  C55      1.0000 0.39136  0.19562  0.16486  Biso   1.000  C
  O15      1.0000 0.24032  0.99998  0.71040  Biso   1.000  O
  O16      1.0000 0.24039  0.99998  0.71040  Biso   1.000  O
  C56      1.0000 0.19559  0.39125  0.83514  Biso   1.000  C
  N53      1.0000 0.25545  0.34306  0.11523  Biso   1.000  N
  H55      1.0000 0.19235  0.38478  0.25860  Biso   1.000  H
  N54      1.0000 0.25545  0.34306  0.11533  Biso   1.000  N
  H56      1.0000 0.23415  0.46837  0.14366  Biso   1.000  H
  C57      1.0000 0.39122  0.19562  0.83514  Biso   1.000  C
  C58      1.0000 0.39136  0.19562  0.83514  Biso   1.000  C
  H57      1.0000 0.46838  0.23422  0.14366  Biso   1.000  H
  H58      1.0000 0.46834  0.23414  0.14366  Biso   1.000  H
  H59      1.0000 0.38481  0.19234  0.25860  Biso   1.000  H
  N55      1.0000 0.34297  0.25539  0.11523  Biso   1.000  N
  N56      1.0000 0.34297  0.25539  0.11533  Biso   1.000  N
  H60      1.0000 0.38467  0.19234  0.25860  Biso   1.000  H
  N57      1.0000 0.25545  0.34306  0.88477  Biso   1.000  N
  H61      1.0000 0.19235  0.38478  0.74140  Biso   1.000  H
  N58      1.0000 0.25545  0.34306  0.88467  Biso   1.000  N
  H62      1.0000 0.23415  0.46837  0.85634  Biso   1.000  H
  C59      1.0000 0.31693  0.37910  0.00000  Biso   1.000  C
  C60      1.0000 0.27531  0.27537  0.18340  Biso   1.000  C
  C61      1.0000 0.31693  0.37910  0.00010  Biso   1.000  C
  C62      1.0000 0.31689  0.37902  0.00000  Biso   1.000  C
  C63      1.0000 0.31689  0.37902  0.00010  Biso   1.000  C
  C64      1.0000 0.27538  0.27537  0.18340  Biso   1.000  C
  H63      1.0000 0.46838  0.23422  0.85634  Biso   1.000  H
  H64      1.0000 0.46834  0.23414  0.85634  Biso   1.000  H
  H65      1.0000 0.38481  0.19234  0.74140  Biso   1.000  H
  N59      1.0000 0.34297  0.25539  0.88477  Biso   1.000  N
  N60      1.0000 0.34297  0.25539  0.88467  Biso   1.000  N
  H66      1.0000 0.38467  0.19234  0.74140  Biso   1.000  H
  C65      1.0000 0.37903  0.31685  0.00000  Biso   1.000  C
  C66      1.0000 0.37903  0.31685  0.00010  Biso   1.000  C
  C67      1.0000 0.27531  0.27537  0.81651  Biso   1.000  C
  C68      1.0000 0.27538  0.27537  0.81651  Biso   1.000  C
  O17      1.0000 0.24030  0.24037  0.28960  Biso   1.000  O
  H67      1.0000 0.36636  0.45830  0.00000  Biso   1.000  H
  H68      1.0000 0.36636  0.45830  0.00010  Biso   1.000  H
  H69      1.0000 0.36625  0.45822  0.00000  Biso   1.000  H
  H70      1.0000 0.36625  0.45822  0.00010  Biso   1.000  H
  H71      1.0000 0.36629  0.45830  0.00000  Biso   1.000  H
  H72      1.0000 0.36629  0.45830  0.00010  Biso   1.000  H
  H73      1.0000 0.36632  0.45822  0.00000  Biso   1.000  H
  H74      1.0000 0.36632  0.45822  0.00010  Biso   1.000  H
  H75      1.0000 0.45826  0.36624  0.00000  Biso   1.000  H
  H76      1.0000 0.45826  0.36624  0.00010  Biso   1.000  H
  O18      1.0000 0.24030  0.24037  0.71040  Biso   1.000  O
