data_image0
_cell_length_a       12.579
_cell_length_b       14.929
_cell_length_c       15.012
_cell_angle_alpha    64.15
_cell_angle_beta     77.01
_cell_angle_gamma    73.74

_symmetry_space_group_name_H-M    "P 1"
_symmetry_int_tables_number       1

loop_
  _symmetry_equiv_pos_as_xyz
  'x, y, z'

loop_
  _atom_site_label
  _atom_site_occupancy
  _atom_site_fract_x
  _atom_site_fract_y
  _atom_site_fract_z
  _atom_site_thermal_displace_type
  _atom_site_B_iso_or_equiv
  _atom_site_type_symbol
  C1       1.0000 0.64319  0.43403  0.53079  Biso   1.000  C
  O1       1.0000 0.64801  0.47901  0.42627  Biso   1.000  O
  H1       1.0000 0.71289  0.43098  0.55062  Biso   1.000  H
  H2       1.0000 0.58337  0.47416  0.55971  Biso   1.000  H
  C2       1.0000 0.62257  0.32740  0.56784  Biso   1.000  C
  C3       1.0000 0.68011  0.57248  0.37990  Biso   1.000  C
  O2       1.0000 0.60903  0.28917  0.51811  Biso   1.000  O
  O3       1.0000 0.62038  0.28607  0.66661  Biso   1.000  O
  C4       1.0000 0.70952  0.60421  0.27657  Biso   1.000  C
  C5       1.0000 0.68623  0.62988  0.42880  Biso   1.000  C
  C6       1.0000 0.58928  0.18750  0.71440  Biso   1.000  C
  C7       1.0000 0.69868  0.54380  0.22290  Biso   1.000  C
  C8       1.0000 0.74646  0.69623  0.22760  Biso   1.000  C
  H3       1.0000 0.66621  0.60629  0.49739  Biso   1.000  H
  C9       1.0000 0.72041  0.72040  0.38042  Biso   1.000  C
  H4       1.0000 0.56712  0.17179  0.78418  Biso   1.000  H
  H5       1.0000 0.52841  0.18924  0.68458  Biso   1.000  H
  H6       1.0000 0.65192  0.13643  0.70597  Biso   1.000  H
  C10      1.0000 0.58013  0.56730  0.20098  Biso   1.000  C
  H7       1.0000 0.74828  0.55969  0.16088  Biso   1.000  H
  H8       1.0000 0.72058  0.47178  0.26338  Biso   1.000  H
  C11      1.0000 0.75292  0.75262  0.27710  Biso   1.000  C
  H9       1.0000 0.76737  0.71972  0.15909  Biso   1.000  H
  C12      1.0000 0.71776  0.78700  0.43432  Biso   1.000  C
  C13      1.0000 0.50628  0.51109  0.25578  Biso   1.000  C
  C14      1.0000 0.54379  0.66262  0.11287  Biso   1.000  C
  O4       1.0000 0.79006  0.84400  0.23140  Biso   1.000  O
  C15      1.0000 0.60556  0.86044  0.43029  Biso   1.000  C
  H10      1.0000 0.77686  0.82491  0.40323  Biso   1.000  H
  H11      1.0000 0.73012  0.74463  0.50328  Biso   1.000  H
  C16      1.0000 0.38954  0.54006  0.23721  Biso   1.000  C
  H12      1.0000 0.52932  0.45029  0.30863  Biso   1.000  H
  C17      1.0000 0.43156  0.68744  0.08856  Biso   1.000  C
  O5       1.0000 0.61077  0.71712  0.05971  Biso   1.000  O
  C18      1.0000 0.80908  0.88587  0.12614  Biso   1.000  C
  C19      1.0000 0.52447  0.83712  0.52288  Biso   1.000  C
  C20      1.0000 0.57504  0.94348  0.35023  Biso   1.000  C
  O6       1.0000 0.31899  0.49310  0.29670  Biso   1.000  O
  C21      1.0000 0.35408  0.63032  0.14559  Biso   1.000  C
  H13      1.0000 0.41118  0.74479  0.03183  Biso   1.000  H
  H14      1.0000 0.84092  0.94529  0.10392  Biso   1.000  H
  H15      1.0000 0.86311  0.83641  0.10452  Biso   1.000  H
  C22      1.0000 0.70382  0.91619  0.07701  Biso   1.000  C
  O7       1.0000 0.55082  0.76272  0.60041  Biso   1.000  O
  C23      1.0000 0.41458  0.90508  0.52117  Biso   1.000  C
  H16      1.0000 0.62623  0.95898  0.29312  Biso   1.000  H
  C24      1.0000 0.46491  0.01252  0.34687  Biso   1.000  C
  C25      1.0000 0.23679  0.65437  0.12300  Biso   1.000  C
  O8       1.0000 0.61050  0.93290  0.11823  Biso   1.000  O
  O9       1.0000 0.72924  0.92407  0.98464  Biso   1.000  O
  H17      1.0000 0.36348  0.88958  0.57827  Biso   1.000  H
  C26      1.0000 0.38482  0.98926  0.43984  Biso   1.000  C
  O10      1.0000 0.44050  0.08743  0.27188  Biso   1.000  O
  H18      1.0000 0.23640  0.68061  0.05136  Biso   1.000  H
  H19      1.0000 0.20791  0.59244  0.15327  Biso   1.000  H
  C27      1.0000 0.16236  0.73111  0.16110  Biso   1.000  C
  C28      1.0000 0.63562  0.95512  0.92858  Biso   1.000  C
  C29      1.0000 0.27439  0.06029  0.43693  Biso   1.000  C
  C30      1.0000 0.11047  0.70863  0.25197  Biso   1.000  C
  C31      1.0000 0.15301  0.84128  0.09237  Biso   1.000  C
  H20      1.0000 0.58834  0.90658  0.96109  Biso   1.000  H
  H21      1.0000 0.66286  0.95841  0.86238  Biso   1.000  H
  H22      1.0000 0.59405  0.02093  0.92530  Biso   1.000  H
  C32      1.0000 0.19362  0.04180  0.39048  Biso   1.000  C
  H23      1.0000 0.24313  0.05299  0.50440  Biso   1.000  H
  H24      1.0000 0.28477  0.12960  0.39951  Biso   1.000  H
  C33      1.0000 0.04289  0.78461  0.28917  Biso   1.000  C
  H25      1.0000 0.11733  0.64029  0.29506  Biso   1.000  H
  O11      1.0000 0.20241  0.86651  0.00589  Biso   1.000  O
  C34      1.0000 0.08352  0.91752  0.12688  Biso   1.000  C
  C35      1.0000 0.14092  0.95712  0.44528  Biso   1.000  C
  C36      1.0000 0.16886  0.10173  0.29417  Biso   1.000  C
  C37      1.0000 0.03189  0.89478  0.21977  Biso   1.000  C
  O12      1.0000 0.99717  0.76081  0.37558  Biso   1.000  O
  H26      1.0000 0.07421  0.98540  0.08253  Biso   1.000  H
  C38      1.0000 0.06742  0.93729  0.40450  Biso   1.000  C
  O13      1.0000 0.16769  0.90232  0.54167  Biso   1.000  O
  C39      1.0000 0.09553  0.08266  0.25153  Biso   1.000  C
  H27      1.0000 0.20279  0.15703  0.25652  Biso   1.000  H
  C40      1.0000 0.96603  0.97429  0.25980  Biso   1.000  C
  C41      1.0000 0.04279  0.99892  0.30677  Biso   1.000  C
  H28      1.0000 0.03339  0.88211  0.44237  Biso   1.000  H
  C42      1.0000 0.11992  0.81481  0.59997  Biso   1.000  C
  O14      1.0000 0.06632  0.14180  0.15648  Biso   1.000  O
  H29      1.0000 0.90519  0.94871  0.30908  Biso   1.000  H
  H30      1.0000 0.93448  0.03541  0.20598  Biso   1.000  H
  H31      1.0000 0.03932  0.83410  0.60213  Biso   1.000  H
  H32      1.0000 0.14683  0.76521  0.57030  Biso   1.000  H
  C43      1.0000 0.15252  0.76899  0.70501  Biso   1.000  C
  C44      1.0000 0.10137  0.23703  0.10698  Biso   1.000  C
  O15      1.0000 0.12213  0.69237  0.76740  Biso   1.000  O
  O16      1.0000 0.21270  0.81875  0.72073  Biso   1.000  O
  H33      1.0000 0.08160  0.27383  0.14992  Biso   1.000  H
  H34      1.0000 0.18146  0.22630  0.08841  Biso   1.000  H
  C45      1.0000 0.04152  0.29481  0.01610  Biso   1.000  C
  C46      1.0000 0.24192  0.77619  0.82100  Biso   1.000  C
  O17      1.0000 0.98739  0.26672  0.98211  Biso   1.000  O
  O18      1.0000 0.06565  0.39084  0.97167  Biso   1.000  O
  H35      1.0000 0.17529  0.77981  0.86663  Biso   1.000  H
  H36      1.0000 0.27992  0.70652  0.83822  Biso   1.000  H
  H37      1.0000 0.28992  0.81407  0.82480  Biso   1.000  H
  C47      1.0000 0.01303  0.46041  0.88132  Biso   1.000  C
  H38      1.0000 0.93341  0.47121  0.89712  Biso   1.000  H
  H39      1.0000 0.03595  0.52433  0.85508  Biso   1.000  H
  H40      1.0000 0.03539  0.43141  0.83242  Biso   1.000  H
  C48      1.0000 0.35677  0.56599  0.46921  Biso   1.000  C
  O19      1.0000 0.35203  0.52100  0.57373  Biso   1.000  O
  H41      1.0000 0.28707  0.56903  0.44938  Biso   1.000  H
  H42      1.0000 0.41661  0.52578  0.44028  Biso   1.000  H
  C49      1.0000 0.37738  0.67258  0.43223  Biso   1.000  C
  C50      1.0000 0.31985  0.42753  0.62009  Biso   1.000  C
  O20      1.0000 0.39104  0.71077  0.48188  Biso   1.000  O
  O21      1.0000 0.37958  0.71394  0.33338  Biso   1.000  O
  C51      1.0000 0.31381  0.37013  0.57119  Biso   1.000  C
  C52      1.0000 0.29052  0.39580  0.72342  Biso   1.000  C
  C53      1.0000 0.41068  0.81251  0.28560  Biso   1.000  C
  C54      1.0000 0.27963  0.27962  0.61957  Biso   1.000  C
  H43      1.0000 0.33383  0.39372  0.50261  Biso   1.000  H
  C55      1.0000 0.25350  0.30379  0.77240  Biso   1.000  C
  C56      1.0000 0.30128  0.45622  0.77709  Biso   1.000  C
  H44      1.0000 0.43292  0.82822  0.21582  Biso   1.000  H
  H45      1.0000 0.47163  0.81077  0.31541  Biso   1.000  H
  H46      1.0000 0.34812  0.86358  0.29402  Biso   1.000  H
  C57      1.0000 0.28220  0.21301  0.56567  Biso   1.000  C
  C58      1.0000 0.24712  0.24739  0.72290  Biso   1.000  C
  H47      1.0000 0.23259  0.28029  0.84091  Biso   1.000  H
  H48      1.0000 0.25168  0.44032  0.83912  Biso   1.000  H
  H49      1.0000 0.27940  0.52817  0.73661  Biso   1.000  H
  C59      1.0000 0.41991  0.43271  0.79901  Biso   1.000  C
  C60      1.0000 0.39440  0.13957  0.56970  Biso   1.000  C
  H50      1.0000 0.22309  0.17507  0.59684  Biso   1.000  H
  H51      1.0000 0.26992  0.25539  0.49672  Biso   1.000  H
  O22      1.0000 0.20990  0.15602  0.76859  Biso   1.000  O
  C61      1.0000 0.49368  0.48893  0.74422  Biso   1.000  C
  C62      1.0000 0.45617  0.33739  0.88713  Biso   1.000  C
  C63      1.0000 0.47549  0.16289  0.47711  Biso   1.000  C
  C64      1.0000 0.42500  0.05654  0.64976  Biso   1.000  C
  C65      1.0000 0.19087  0.11411  0.87393  Biso   1.000  C
  C66      1.0000 0.61052  0.45988  0.76278  Biso   1.000  C
  H52      1.0000 0.47071  0.54969  0.69144  Biso   1.000  H
  O23      1.0000 0.38919  0.28289  0.94028  Biso   1.000  O
  C67      1.0000 0.56840  0.31257  0.91143  Biso   1.000  C
  O24      1.0000 0.44922  0.23729  0.39958  Biso   1.000  O
  C68      1.0000 0.58540  0.09486  0.47882  Biso   1.000  C
  C69      1.0000 0.53513  0.98749  0.65312  Biso   1.000  C
  H53      1.0000 0.37381  0.04104  0.70687  Biso   1.000  H
  H54      1.0000 0.15912  0.05472  0.89607  Biso   1.000  H
  H55      1.0000 0.13693  0.16361  0.89548  Biso   1.000  H
  C70      1.0000 0.29622  0.08382  0.92298  Biso   1.000  C
  O25      1.0000 0.68097  0.50691  0.70329  Biso   1.000  O
  C71      1.0000 0.64588  0.36970  0.85440  Biso   1.000  C
  H56      1.0000 0.58877  0.25519  0.96824  Biso   1.000  H
  H57      1.0000 0.63651  0.11036  0.42172  Biso   1.000  H
  C72      1.0000 0.61521  0.01072  0.56023  Biso   1.000  C
  O26      1.0000 0.55954  0.91258  0.72812  Biso   1.000  O
  O27      1.0000 0.38953  0.06708  0.88183  Biso   1.000  O
  O28      1.0000 0.27079  0.07591  0.01542  Biso   1.000  O
  C73      1.0000 0.76317  0.34564  0.87699  Biso   1.000  C
  C74      1.0000 0.72557  0.93972  0.56306  Biso   1.000  C
  C75      1.0000 0.36433  0.04489  0.07141  Biso   1.000  C
  C76      1.0000 0.83760  0.26890  0.83889  Biso   1.000  C
  H58      1.0000 0.76356  0.31941  0.94863  Biso   1.000  H
  H59      1.0000 0.79213  0.40757  0.84672  Biso   1.000  H
  H60      1.0000 0.75691  0.94702  0.49560  Biso   1.000  H
  H61      1.0000 0.71519  0.87041  0.60049  Biso   1.000  H
  C77      1.0000 0.80642  0.95821  0.60951  Biso   1.000  C
  H62      1.0000 0.40599  0.97908  0.07469  Biso   1.000  H
  H63      1.0000 0.41162  0.09343  0.03891  Biso   1.000  H
  H64      1.0000 0.33718  0.04160  0.13761  Biso   1.000  H
  C78      1.0000 0.88949  0.29138  0.74802  Biso   1.000  C
  C79      1.0000 0.84697  0.15866  0.90763  Biso   1.000  C
  C80      1.0000 0.85912  0.04290  0.55472  Biso   1.000  C
  C81      1.0000 0.83110  0.89828  0.70583  Biso   1.000  C
  C82      1.0000 0.95707  0.21540  0.71082  Biso   1.000  C
  H65      1.0000 0.88271  0.35972  0.70493  Biso   1.000  H
  C83      1.0000 0.91652  0.08249  0.87311  Biso   1.000  C
  O29      1.0000 0.79763  0.13351  0.99410  Biso   1.000  O
  O30      1.0000 0.83226  0.09769  0.45832  Biso   1.000  O
  C84      1.0000 0.93262  0.06272  0.59549  Biso   1.000  C
  C85      1.0000 0.90454  0.91728  0.74847  Biso   1.000  C
  H66      1.0000 0.79725  0.84298  0.74347  Biso   1.000  H
  C86      1.0000 0.96809  0.10516  0.78022  Biso   1.000  C
  O31      1.0000 0.00279  0.23920  0.62442  Biso   1.000  O
  H67      1.0000 0.92583  0.01462  0.91747  Biso   1.000  H
  C87      1.0000 0.88012  0.18520  0.40003  Biso   1.000  C
  H68      1.0000 0.96657  0.11791  0.55762  Biso   1.000  H
  C88      1.0000 0.95717  0.00110  0.69323  Biso   1.000  C
  O32      1.0000 0.93372  0.85821  0.84352  Biso   1.000  O
  C89      1.0000 0.03400  0.02573  0.74019  Biso   1.000  C
  H69      1.0000 0.96072  0.16591  0.39787  Biso   1.000  H
  H70      1.0000 0.85321  0.23480  0.42970  Biso   1.000  H
  C90      1.0000 0.84751  0.23103  0.29499  Biso   1.000  C
  C91      1.0000 0.89859  0.76298  0.89302  Biso   1.000  C
  H71      1.0000 0.06548  0.96460  0.79402  Biso   1.000  H
  H72      1.0000 0.09477  0.05130  0.69092  Biso   1.000  H
  O33      1.0000 0.87793  0.30757  0.23259  Biso   1.000  O
  O34      1.0000 0.78728  0.18116  0.27933  Biso   1.000  O
  H73      1.0000 0.91844  0.72618  0.85008  Biso   1.000  H
  H74      1.0000 0.81850  0.77371  0.91158  Biso   1.000  H
  C92      1.0000 0.95852  0.70520  0.98389  Biso   1.000  C
  C93      1.0000 0.75812  0.22382  0.17899  Biso   1.000  C
  O35      1.0000 0.93439  0.60918  0.02832  Biso   1.000  O
  O36      1.0000 0.01257  0.73330  0.01788  Biso   1.000  O
  H75      1.0000 0.82467  0.22020  0.13337  Biso   1.000  H
  H76      1.0000 0.72011  0.29349  0.16177  Biso   1.000  H
  H77      1.0000 0.71014  0.18588  0.17519  Biso   1.000  H
  C94      1.0000 0.98701  0.53960  0.11867  Biso   1.000  C
  H78      1.0000 0.96409  0.47568  0.14492  Biso   1.000  H
  H79      1.0000 0.96457  0.56861  0.16758  Biso   1.000  H
  H80      1.0000 0.06655  0.52880  0.10287  Biso   1.000  H
  Ne1      1.0000 0.62047  0.18627  0.68980  Biso   1.000  Ne
  He1      1.0000 0.66359  0.05170  0.84093  Biso   1.000  He
  He2      1.0000 0.64806  0.33619  0.56737  Biso   1.000  He
  Ar1      1.0000 0.62716  0.20585  0.69398  Biso   1.000  Ar
  Ne2      1.0000 0.37953  0.81373  0.31020  Biso   1.000  Ne
  He3      1.0000 0.35209  0.67033  0.42738  Biso   1.000  He
  He4      1.0000 0.33634  0.94966  0.15755  Biso   1.000  He
  Ar2      1.0000 0.37618  0.76620  0.32830  Biso   1.000  Ar
