data_image0
_cell_length_a       18.34
_cell_length_b       22.335
_cell_length_c       8.218
_cell_angle_alpha    90
_cell_angle_beta     90
_cell_angle_gamma    90

_symmetry_space_group_name_H-M    "P 1"
_symmetry_int_tables_number       1

loop_
  _symmetry_equiv_pos_as_xyz
  'x, y, z'

loop_
  _atom_site_label
  _atom_site_occupancy
  _atom_site_fract_x
  _atom_site_fract_y
  _atom_site_fract_z
  _atom_site_thermal_displace_type
  _atom_site_B_iso_or_equiv
  _atom_site_type_symbol
  C1       1.0000 0.50616  0.57542  0.47493  Biso   1.000  C
  C2       1.0000 0.51881  0.56754  0.30835  Biso   1.000  C
  H1       1.0000 0.46020  0.59002  0.51034  Biso   1.000  H
  C3       1.0000 0.55905  0.56248  0.58871  Biso   1.000  C
  C4       1.0000 0.58337  0.53745  0.26551  Biso   1.000  C
  C5       1.0000 0.47606  0.60425  0.19177  Biso   1.000  C
  C6       1.0000 0.62797  0.54139  0.54259  Biso   1.000  C
  H2       1.0000 0.54847  0.56799  0.70090  Biso   1.000  H
  H3       1.0000 0.59040  0.52532  0.15576  Biso   1.000  H
  C7       1.0000 0.63691  0.52523  0.37905  Biso   1.000  C
  C8       1.0000 0.40812  0.62888  0.23327  Biso   1.000  C
  C9       1.0000 0.51129  0.63018  0.05841  Biso   1.000  C
  C10      1.0000 0.68964  0.55245  0.65551  Biso   1.000  C
  H4       1.0000 0.68043  0.50562  0.34583  Biso   1.000  H
  C11      1.0000 0.38686  0.68404  0.17170  Biso   1.000  C
  H5       1.0000 0.37650  0.60761  0.30409  Biso   1.000  H
  H6       1.0000 0.55120  0.60989  0.00986  Biso   1.000  H
  C12      1.0000 0.48926  0.68453  0.99598  Biso   1.000  C
  C13      1.0000 0.67966  0.55514  0.82526  Biso   1.000  C
  C14      1.0000 0.75436  0.57730  0.59491  Biso   1.000  C
  C15      1.0000 0.43130  0.71645  0.06498  Biso   1.000  C
  H7       1.0000 0.34100  0.70020  0.20285  Biso   1.000  H
  H8       1.0000 0.51390  0.70060  0.90436  Biso   1.000  H
  H9       1.0000 0.64269  0.53159  0.87479  Biso   1.000  H
  C16      1.0000 0.72296  0.59172  0.92103  Biso   1.000  C
  C17      1.0000 0.79738  0.61357  0.69068  Biso   1.000  C
  H10      1.0000 0.76881  0.56902  0.48625  Biso   1.000  H
  C18      1.0000 0.43130  0.78357  0.06498  Biso   1.000  C
  C19      1.0000 0.77814  0.62691  0.85155  Biso   1.000  C
  H11      1.0000 0.71521  0.59302  0.03529  Biso   1.000  H
  H12      1.0000 0.84100  0.62982  0.64675  Biso   1.000  H
  C20      1.0000 0.38686  0.81594  0.17170  Biso   1.000  C
  C21      1.0000 0.48926  0.81549  0.99598  Biso   1.000  C
  C22      1.0000 0.79907  0.68650  0.91872  Biso   1.000  C
  H13      1.0000 0.34100  0.79982  0.20285  Biso   1.000  H
  C23      1.0000 0.40812  0.87110  0.23327  Biso   1.000  C
  C24      1.0000 0.51129  0.86985  0.05841  Biso   1.000  C
  H14      1.0000 0.51390  0.79942  0.90436  Biso   1.000  H
  C25      1.0000 0.85943  0.71896  0.86225  Biso   1.000  C
  C26      1.0000 0.74624  0.71887  0.00450  Biso   1.000  C
  H15      1.0000 0.37650  0.89241  0.30409  Biso   1.000  H
  C27      1.0000 0.47606  0.89577  0.19177  Biso   1.000  C
  H16      1.0000 0.55120  0.89008  0.00986  Biso   1.000  H
  C28      1.0000 0.85943  0.78106  0.86225  Biso   1.000  C
  H17      1.0000 0.90098  0.69810  0.82319  Biso   1.000  H
  C29      1.0000 0.74624  0.78111  0.00450  Biso   1.000  C
  H18      1.0000 0.70981  0.69801  0.06364  Biso   1.000  H
  C30      1.0000 0.51881  0.93248  0.30835  Biso   1.000  C
  C31      1.0000 0.79907  0.81352  0.91872  Biso   1.000  C
  H19      1.0000 0.90098  0.80188  0.82319  Biso   1.000  H
  H20      1.0000 0.70981  0.80201  0.06364  Biso   1.000  H
  C32      1.0000 0.58337  0.96253  0.26551  Biso   1.000  C
  C33      1.0000 0.50616  0.92456  0.47493  Biso   1.000  C
  C34      1.0000 0.77814  0.87311  0.85155  Biso   1.000  C
  H21      1.0000 0.59040  0.97470  0.15576  Biso   1.000  H
  C35      1.0000 0.63691  0.97479  0.37905  Biso   1.000  C
  H22      1.0000 0.46020  0.91001  0.51034  Biso   1.000  H
  C36      1.0000 0.55905  0.93750  0.58871  Biso   1.000  C
  C37      1.0000 0.79738  0.88646  0.69068  Biso   1.000  C
  C38      1.0000 0.72296  0.90831  0.92103  Biso   1.000  C
  H23      1.0000 0.68043  0.99440  0.34583  Biso   1.000  H
  C39      1.0000 0.62797  0.95859  0.54259  Biso   1.000  C
  H24      1.0000 0.54847  0.93199  0.70090  Biso   1.000  H
  H25      1.0000 0.84100  0.87020  0.64675  Biso   1.000  H
  C40      1.0000 0.75436  0.92272  0.59491  Biso   1.000  C
  C41      1.0000 0.67966  0.94484  0.82526  Biso   1.000  C
  H26      1.0000 0.71521  0.90701  0.03529  Biso   1.000  H
  C42      1.0000 0.68964  0.94757  0.65551  Biso   1.000  C
  H27      1.0000 0.76881  0.93101  0.48625  Biso   1.000  H
  H28      1.0000 0.64269  0.96839  0.87479  Biso   1.000  H
  C43      1.0000 0.49384  0.42458  0.52507  Biso   1.000  C
  C44      1.0000 0.44095  0.43752  0.41129  Biso   1.000  C
  C45      1.0000 0.48119  0.43246  0.69165  Biso   1.000  C
  H29      1.0000 0.53980  0.40998  0.48966  Biso   1.000  H
  C46      1.0000 0.37203  0.45861  0.45741  Biso   1.000  C
  H30      1.0000 0.45153  0.43201  0.29910  Biso   1.000  H
  C47      1.0000 0.41663  0.46255  0.73449  Biso   1.000  C
  C48      1.0000 0.52394  0.39575  0.80823  Biso   1.000  C
  C49      1.0000 0.31036  0.44755  0.34449  Biso   1.000  C
  C50      1.0000 0.36309  0.47477  0.62095  Biso   1.000  C
  H31      1.0000 0.40960  0.47468  0.84424  Biso   1.000  H
  C51      1.0000 0.59188  0.37112  0.76673  Biso   1.000  C
  C52      1.0000 0.48871  0.36982  0.94159  Biso   1.000  C
  C53      1.0000 0.24564  0.42270  0.40509  Biso   1.000  C
  C54      1.0000 0.32034  0.44486  0.17474  Biso   1.000  C
  H32      1.0000 0.31957  0.49438  0.65417  Biso   1.000  H
  C55      1.0000 0.61314  0.31596  0.82830  Biso   1.000  C
  H33      1.0000 0.62350  0.39239  0.69591  Biso   1.000  H
  H34      1.0000 0.44880  0.39011  0.99014  Biso   1.000  H
  C56      1.0000 0.51074  0.31547  0.00402  Biso   1.000  C
  C57      1.0000 0.20262  0.38643  0.30932  Biso   1.000  C
  H35      1.0000 0.23119  0.43098  0.51375  Biso   1.000  H
  C58      1.0000 0.27704  0.40828  0.07897  Biso   1.000  C
  H36      1.0000 0.35731  0.46841  0.12521  Biso   1.000  H
  C59      1.0000 0.56870  0.28355  0.93502  Biso   1.000  C
  H37      1.0000 0.65900  0.29980  0.79715  Biso   1.000  H
  H38      1.0000 0.48610  0.29940  0.09564  Biso   1.000  H
  C60      1.0000 0.22186  0.37309  0.14845  Biso   1.000  C
  H39      1.0000 0.15900  0.37018  0.35325  Biso   1.000  H
  H40      1.0000 0.28479  0.40698  0.96471  Biso   1.000  H
  C61      1.0000 0.56870  0.21643  0.93502  Biso   1.000  C
  C62      1.0000 0.20093  0.31350  0.08128  Biso   1.000  C
  C63      1.0000 0.61314  0.18406  0.82830  Biso   1.000  C
  C64      1.0000 0.51074  0.18451  0.00402  Biso   1.000  C
  C65      1.0000 0.14057  0.28104  0.13775  Biso   1.000  C
  C66      1.0000 0.25376  0.28113  0.99550  Biso   1.000  C
  C67      1.0000 0.59188  0.12890  0.76673  Biso   1.000  C
  H41      1.0000 0.65900  0.20018  0.79715  Biso   1.000  H
  C68      1.0000 0.48871  0.13015  0.94159  Biso   1.000  C
  H42      1.0000 0.48610  0.20058  0.09564  Biso   1.000  H
  H43      1.0000 0.09902  0.30190  0.17681  Biso   1.000  H
  C69      1.0000 0.14057  0.21894  0.13775  Biso   1.000  C
  H44      1.0000 0.29019  0.30199  0.93636  Biso   1.000  H
  C70      1.0000 0.25376  0.21889  0.99550  Biso   1.000  C
  C71      1.0000 0.52394  0.10423  0.80823  Biso   1.000  C
  H45      1.0000 0.62350  0.10759  0.69591  Biso   1.000  H
  H46      1.0000 0.44880  0.10992  0.99014  Biso   1.000  H
  C72      1.0000 0.20093  0.18648  0.08128  Biso   1.000  C
  H47      1.0000 0.09902  0.19812  0.17681  Biso   1.000  H
  H48      1.0000 0.29019  0.19799  0.93636  Biso   1.000  H
  C73      1.0000 0.48119  0.06752  0.69165  Biso   1.000  C
  C74      1.0000 0.22186  0.12689  0.14845  Biso   1.000  C
  C75      1.0000 0.41663  0.03747  0.73449  Biso   1.000  C
  C76      1.0000 0.49384  0.07544  0.52507  Biso   1.000  C
  C77      1.0000 0.20262  0.11354  0.30932  Biso   1.000  C
  C78      1.0000 0.27704  0.09169  0.07897  Biso   1.000  C
  C79      1.0000 0.36309  0.02521  0.62095  Biso   1.000  C
  H49      1.0000 0.40960  0.02530  0.84424  Biso   1.000  H
  C80      1.0000 0.44095  0.06250  0.41129  Biso   1.000  C
  H50      1.0000 0.53980  0.08999  0.48966  Biso   1.000  H
  H51      1.0000 0.15900  0.12980  0.35325  Biso   1.000  H
  C81      1.0000 0.24564  0.07728  0.40509  Biso   1.000  C
  C82      1.0000 0.32034  0.05516  0.17474  Biso   1.000  C
  H52      1.0000 0.28479  0.09299  0.96471  Biso   1.000  H
  C83      1.0000 0.37203  0.04141  0.45741  Biso   1.000  C
  H53      1.0000 0.31957  0.00560  0.65417  Biso   1.000  H
  H54      1.0000 0.45153  0.06801  0.29910  Biso   1.000  H
  H55      1.0000 0.23119  0.06899  0.51375  Biso   1.000  H
  C84      1.0000 0.31036  0.05243  0.34449  Biso   1.000  C
  H56      1.0000 0.35731  0.03161  0.12521  Biso   1.000  H
  C85      1.0000 0.72186  0.37309  0.35155  Biso   1.000  C
  C86      1.0000 0.70093  0.31350  0.41872  Biso   1.000  C
  C87      1.0000 0.70262  0.38643  0.19068  Biso   1.000  C
  C88      1.0000 0.77704  0.40828  0.42103  Biso   1.000  C
  C89      1.0000 0.64057  0.28104  0.36225  Biso   1.000  C
  C90      1.0000 0.75376  0.28113  0.50450  Biso   1.000  C
  H57      1.0000 0.65900  0.37018  0.14675  Biso   1.000  H
  C91      1.0000 0.74564  0.42270  0.09491  Biso   1.000  C
  C92      1.0000 0.82034  0.44486  0.32526  Biso   1.000  C
  H58      1.0000 0.78479  0.40698  0.53529  Biso   1.000  H
  C93      1.0000 0.64057  0.21894  0.36225  Biso   1.000  C
  H59      1.0000 0.59902  0.30190  0.32319  Biso   1.000  H
  C94      1.0000 0.75376  0.21889  0.50450  Biso   1.000  C
  H60      1.0000 0.79019  0.30199  0.56364  Biso   1.000  H
  C95      1.0000 0.81036  0.44755  0.15551  Biso   1.000  C
  H61      1.0000 0.73119  0.43098  0.98625  Biso   1.000  H
  H62      1.0000 0.85731  0.46841  0.37479  Biso   1.000  H
  C96      1.0000 0.70093  0.18648  0.41872  Biso   1.000  C
  H63      1.0000 0.59902  0.19812  0.32319  Biso   1.000  H
  H64      1.0000 0.79019  0.19799  0.56364  Biso   1.000  H
  C97      1.0000 0.87203  0.45861  0.04259  Biso   1.000  C
  C98      1.0000 0.72186  0.12689  0.35155  Biso   1.000  C
  C99      1.0000 0.94095  0.43752  0.08871  Biso   1.000  C
  C100     1.0000 0.86309  0.47477  0.87905  Biso   1.000  C
  C101     1.0000 0.70262  0.11354  0.19068  Biso   1.000  C
  C102     1.0000 0.77704  0.09169  0.42103  Biso   1.000  C
  H65      1.0000 0.95153  0.43201  0.20090  Biso   1.000  H
  C103     1.0000 0.99384  0.42458  0.97493  Biso   1.000  C
  C104     1.0000 0.91663  0.46255  0.76551  Biso   1.000  C
  H66      1.0000 0.81957  0.49438  0.84583  Biso   1.000  H
  H67      1.0000 0.65900  0.12980  0.14675  Biso   1.000  H
  C105     1.0000 0.74564  0.07728  0.09491  Biso   1.000  C
  C106     1.0000 0.82034  0.05516  0.32526  Biso   1.000  C
  H68      1.0000 0.78479  0.09299  0.53529  Biso   1.000  H
  C107     1.0000 0.98119  0.43246  0.80835  Biso   1.000  C
  H69      1.0000 0.03980  0.40998  0.01034  Biso   1.000  H
  H70      1.0000 0.90960  0.47468  0.65576  Biso   1.000  H
  C108     1.0000 0.81036  0.05243  0.15551  Biso   1.000  C
  H71      1.0000 0.73119  0.06899  0.98625  Biso   1.000  H
  H72      1.0000 0.85731  0.03161  0.37479  Biso   1.000  H
  C109     1.0000 0.02394  0.39575  0.69177  Biso   1.000  C
  C110     1.0000 0.87203  0.04141  0.04259  Biso   1.000  C
  C111     1.0000 0.98871  0.36982  0.55841  Biso   1.000  C
  C112     1.0000 0.09188  0.37112  0.73327  Biso   1.000  C
  C113     1.0000 0.94095  0.06250  0.08871  Biso   1.000  C
  C114     1.0000 0.86309  0.02521  0.87905  Biso   1.000  C
  H73      1.0000 0.94880  0.39011  0.50986  Biso   1.000  H
  C115     1.0000 0.01074  0.31547  0.49598  Biso   1.000  C
  C116     1.0000 0.11314  0.31596  0.67170  Biso   1.000  C
  H74      1.0000 0.12350  0.39239  0.80409  Biso   1.000  H
  H75      1.0000 0.95153  0.06801  0.20090  Biso   1.000  H
  C117     1.0000 0.99384  0.07544  0.97493  Biso   1.000  C
  C118     1.0000 0.91663  0.03747  0.76551  Biso   1.000  C
  H76      1.0000 0.81957  0.00560  0.84583  Biso   1.000  H
  H77      1.0000 0.98610  0.29940  0.40436  Biso   1.000  H
  C119     1.0000 0.06870  0.28355  0.56498  Biso   1.000  C
  H78      1.0000 0.15900  0.29980  0.70285  Biso   1.000  H
  C120     1.0000 0.98119  0.06752  0.80835  Biso   1.000  C
  H79      1.0000 0.03980  0.08999  0.01034  Biso   1.000  H
  H80      1.0000 0.90960  0.02530  0.65576  Biso   1.000  H
  C121     1.0000 0.06870  0.21643  0.56498  Biso   1.000  C
  C122     1.0000 0.02394  0.10423  0.69177  Biso   1.000  C
  C123     1.0000 0.01074  0.18451  0.49598  Biso   1.000  C
  C124     1.0000 0.11314  0.18406  0.67170  Biso   1.000  C
  C125     1.0000 0.98871  0.13015  0.55841  Biso   1.000  C
  C126     1.0000 0.09188  0.12890  0.73327  Biso   1.000  C
  H81      1.0000 0.98610  0.20058  0.40436  Biso   1.000  H
  H82      1.0000 0.15900  0.20018  0.70285  Biso   1.000  H
  H83      1.0000 0.94880  0.10992  0.50986  Biso   1.000  H
  H84      1.0000 0.12350  0.10759  0.80409  Biso   1.000  H
  C127     1.0000 0.27814  0.62691  0.64845  Biso   1.000  C
  C128     1.0000 0.22296  0.59172  0.57897  Biso   1.000  C
  C129     1.0000 0.29738  0.61357  0.80932  Biso   1.000  C
  C130     1.0000 0.29907  0.68650  0.58128  Biso   1.000  C
  C131     1.0000 0.17966  0.55514  0.67474  Biso   1.000  C
  H85      1.0000 0.21521  0.59302  0.46471  Biso   1.000  H
  C132     1.0000 0.25436  0.57730  0.90509  Biso   1.000  C
  H86      1.0000 0.34100  0.62982  0.85325  Biso   1.000  H
  C133     1.0000 0.24624  0.71887  0.49550  Biso   1.000  C
  C134     1.0000 0.35943  0.71896  0.63775  Biso   1.000  C
  H87      1.0000 0.14269  0.53159  0.62521  Biso   1.000  H
  C135     1.0000 0.18964  0.55245  0.84449  Biso   1.000  C
  H88      1.0000 0.26881  0.56902  0.01375  Biso   1.000  H
  H89      1.0000 0.20981  0.69801  0.43636  Biso   1.000  H
  C136     1.0000 0.24624  0.78111  0.49550  Biso   1.000  C
  H90      1.0000 0.40098  0.69810  0.67681  Biso   1.000  H
  C137     1.0000 0.35943  0.78106  0.63775  Biso   1.000  C
  C138     1.0000 0.12797  0.54139  0.95741  Biso   1.000  C
  H91      1.0000 0.20981  0.80201  0.43636  Biso   1.000  H
  C139     1.0000 0.29907  0.81352  0.58128  Biso   1.000  C
  H92      1.0000 0.40098  0.80188  0.67681  Biso   1.000  H
  C140     1.0000 0.05905  0.56248  0.91129  Biso   1.000  C
  C141     1.0000 0.13691  0.52523  0.12095  Biso   1.000  C
  C142     1.0000 0.27814  0.87311  0.64845  Biso   1.000  C
  H93      1.0000 0.04847  0.56799  0.79910  Biso   1.000  H
  C143     1.0000 0.00616  0.57542  0.02507  Biso   1.000  C
  C144     1.0000 0.08337  0.53745  0.23449  Biso   1.000  C
  H94      1.0000 0.18043  0.50562  0.15417  Biso   1.000  H
  C145     1.0000 0.29738  0.88646  0.80932  Biso   1.000  C
  C146     1.0000 0.22296  0.90831  0.57897  Biso   1.000  C
  H95      1.0000 0.96020  0.59002  0.98966  Biso   1.000  H
  C147     1.0000 0.01881  0.56754  0.19165  Biso   1.000  C
  H96      1.0000 0.09040  0.52532  0.34424  Biso   1.000  H
  H97      1.0000 0.34100  0.87020  0.85325  Biso   1.000  H
  C148     1.0000 0.25436  0.92272  0.90509  Biso   1.000  C
  C149     1.0000 0.17966  0.94484  0.67474  Biso   1.000  C
  H98      1.0000 0.21521  0.90701  0.46471  Biso   1.000  H
  C150     1.0000 0.97606  0.60425  0.30823  Biso   1.000  C
  C151     1.0000 0.18964  0.94757  0.84449  Biso   1.000  C
  H99      1.0000 0.26881  0.93101  0.01375  Biso   1.000  H
  H100     1.0000 0.14269  0.96839  0.62521  Biso   1.000  H
  C152     1.0000 0.90812  0.62888  0.26673  Biso   1.000  C
  C153     1.0000 0.01129  0.63018  0.44159  Biso   1.000  C
  C154     1.0000 0.12797  0.95859  0.95741  Biso   1.000  C
  C155     1.0000 0.88686  0.68404  0.32830  Biso   1.000  C
  H101     1.0000 0.87650  0.60761  0.19591  Biso   1.000  H
  C156     1.0000 0.98926  0.68453  0.50402  Biso   1.000  C
  H102     1.0000 0.05120  0.60989  0.49014  Biso   1.000  H
  C157     1.0000 0.05905  0.93750  0.91129  Biso   1.000  C
  C158     1.0000 0.13691  0.97479  0.12095  Biso   1.000  C
  C159     1.0000 0.93130  0.71645  0.43502  Biso   1.000  C
  H103     1.0000 0.84100  0.70020  0.29715  Biso   1.000  H
  H104     1.0000 0.01390  0.70060  0.59564  Biso   1.000  H
  H105     1.0000 0.04847  0.93199  0.79910  Biso   1.000  H
  C160     1.0000 0.00616  0.92456  0.02507  Biso   1.000  C
  C161     1.0000 0.08337  0.96253  0.23449  Biso   1.000  C
  H106     1.0000 0.18043  0.99440  0.15417  Biso   1.000  H
  C162     1.0000 0.93130  0.78357  0.43502  Biso   1.000  C
  C163     1.0000 0.01881  0.93248  0.19165  Biso   1.000  C
  H107     1.0000 0.96020  0.91001  0.98966  Biso   1.000  H
  H108     1.0000 0.09040  0.97470  0.34424  Biso   1.000  H
  C164     1.0000 0.98926  0.81549  0.50402  Biso   1.000  C
  C165     1.0000 0.88686  0.81594  0.32830  Biso   1.000  C
  C166     1.0000 0.97606  0.89577  0.30823  Biso   1.000  C
  H109     1.0000 0.01390  0.79942  0.59564  Biso   1.000  H
  C167     1.0000 0.01129  0.86985  0.44159  Biso   1.000  C
  H110     1.0000 0.84100  0.79982  0.29715  Biso   1.000  H
  C168     1.0000 0.90812  0.87110  0.26673  Biso   1.000  C
  H111     1.0000 0.05120  0.89008  0.49014  Biso   1.000  H
  H112     1.0000 0.87650  0.89241  0.19591  Biso   1.000  H
