data_image0
_cell_length_a       17.409
_cell_length_b       18.235
_cell_length_c       24.767
_cell_angle_alpha    92.97
_cell_angle_beta     106.12
_cell_angle_gamma    90.17

_symmetry_space_group_name_H-M    "P 1"
_symmetry_int_tables_number       1

loop_
  _symmetry_equiv_pos_as_xyz
  'x, y, z'

loop_
  _atom_site_label
  _atom_site_occupancy
  _atom_site_fract_x
  _atom_site_fract_y
  _atom_site_fract_z
  _atom_site_thermal_displace_type
  _atom_site_B_iso_or_equiv
  _atom_site_type_symbol
  C1       1.0000 0.53828  0.37506  0.40669  Biso   1.000  C
  N1       1.0000 0.50827  0.42398  0.36073  Biso   1.000  N
  H1       1.0000 0.58800  0.39568  0.43119  Biso   1.000  H
  H2       1.0000 0.50001  0.37350  0.42862  Biso   1.000  H
  N2       1.0000 0.55218  0.30106  0.38880  Biso   1.000  N
  C2       1.0000 0.43152  0.44686  0.34713  Biso   1.000  C
  C3       1.0000 0.55769  0.46228  0.33110  Biso   1.000  C
  C4       1.0000 0.51389  0.24159  0.40227  Biso   1.000  C
  C5       1.0000 0.62699  0.28000  0.37723  Biso   1.000  C
  N3       1.0000 0.41857  0.49288  0.30424  Biso   1.000  N
  O1       1.0000 0.38057  0.42959  0.37012  Biso   1.000  O
  C6       1.0000 0.49399  0.51047  0.29031  Biso   1.000  C
  N4       1.0000 0.58506  0.41381  0.29128  Biso   1.000  N
  C7       1.0000 0.62559  0.50459  0.37222  Biso   1.000  C
  N5       1.0000 0.55338  0.17907  0.39381  Biso   1.000  N
  O2       1.0000 0.45447  0.24416  0.41978  Biso   1.000  O
  C8       1.0000 0.62549  0.19568  0.37761  Biso   1.000  C
  N6       1.0000 0.63187  0.29317  0.32129  Biso   1.000  N
  H3       1.0000 0.67327  0.30126  0.40610  Biso   1.000  H
  C9       1.0000 0.34206  0.52669  0.28160  Biso   1.000  C
  N7       1.0000 0.49425  0.48117  0.23403  Biso   1.000  N
  C10      1.0000 0.51016  0.59259  0.29599  Biso   1.000  C
  C11      1.0000 0.55096  0.42867  0.23681  Biso   1.000  C
  C12      1.0000 0.65186  0.36556  0.30529  Biso   1.000  C
  H4       1.0000 0.60481  0.53576  0.39701  Biso   1.000  H
  H5       1.0000 0.65280  0.53397  0.35202  Biso   1.000  H
  H6       1.0000 0.66239  0.47077  0.39381  Biso   1.000  H
  C13      1.0000 0.53535  0.10829  0.41010  Biso   1.000  C
  N8       1.0000 0.62314  0.17238  0.32007  Biso   1.000  N
  H7       1.0000 0.67315  0.17765  0.40459  Biso   1.000  H
  C14      1.0000 0.63225  0.22988  0.28989  Biso   1.000  C
  N9       1.0000 0.29100  0.48856  0.23159  Biso   1.000  N
  H8       1.0000 0.35140  0.57656  0.27271  Biso   1.000  H
  H9       1.0000 0.31409  0.52940  0.31039  Biso   1.000  H
  C15      1.0000 0.44556  0.50459  0.18112  Biso   1.000  C
  H10      1.0000 0.50970  0.61097  0.33291  Biso   1.000  H
  H11      1.0000 0.46949  0.61628  0.26829  Biso   1.000  H
  H12      1.0000 0.56146  0.60250  0.29039  Biso   1.000  H
  O3       1.0000 0.56897  0.39987  0.19611  Biso   1.000  O
  H13      1.0000 0.69336  0.38856  0.33632  Biso   1.000  H
  H14      1.0000 0.67349  0.35916  0.27330  Biso   1.000  H
  N10      1.0000 0.49755  0.05748  0.36220  Biso   1.000  N
  H15      1.0000 0.50004  0.11417  0.43409  Biso   1.000  H
  H16      1.0000 0.58445  0.08698  0.43191  Biso   1.000  H
  C16      1.0000 0.63875  0.09726  0.30491  Biso   1.000  C
  O4       1.0000 0.64086  0.22571  0.24220  Biso   1.000  O
  C17      1.0000 0.23399  0.43818  0.23412  Biso   1.000  C
  C18      1.0000 0.29476  0.49888  0.17413  Biso   1.000  C
  N11      1.0000 0.36646  0.46988  0.16277  Biso   1.000  N
  H17      1.0000 0.47314  0.49399  0.15258  Biso   1.000  H
  H18      1.0000 0.43955  0.55739  0.18411  Biso   1.000  H
  C19      1.0000 0.41976  0.03556  0.35159  Biso   1.000  C
  C20      1.0000 0.54144  0.01219  0.33160  Biso   1.000  C
  N12      1.0000 0.56975  0.04886  0.29073  Biso   1.000  N
  H19      1.0000 0.66096  0.09717  0.27301  Biso   1.000  H
  H20      1.0000 0.67896  0.07800  0.33619  Biso   1.000  H
  N13      1.0000 0.19894  0.40809  0.18066  Biso   1.000  N
  O5       1.0000 0.21618  0.42289  0.27638  Biso   1.000  O
  C21      1.0000 0.22704  0.44540  0.13794  Biso   1.000  C
  C22      1.0000 0.28278  0.57968  0.15991  Biso   1.000  C
  C23      1.0000 0.34967  0.41337  0.12173  Biso   1.000  C
  N14      1.0000 0.40394  0.98115  0.30862  Biso   1.000  N
  O6       1.0000 0.37044  0.05959  0.37487  Biso   1.000  O
  C24      1.0000 0.47692  0.95729  0.29549  Biso   1.000  C
  H21      1.0000 0.58484  0.98650  0.35732  Biso   1.000  H
  C25      1.0000 0.53582  0.02047  0.23719  Biso   1.000  C
  C26      1.0000 0.12977  0.36077  0.16921  Biso   1.000  C
  N15      1.0000 0.27146  0.39617  0.10898  Biso   1.000  N
  C27      1.0000 0.15767  0.48260  0.09521  Biso   1.000  C
  H22      1.0000 0.28456  0.58508  0.12190  Biso   1.000  H
  H23      1.0000 0.32438  0.60941  0.18529  Biso   1.000  H
  H24      1.0000 0.23165  0.59520  0.16370  Biso   1.000  H
  O7       1.0000 0.39884  0.38456  0.10085  Biso   1.000  O
  C28      1.0000 0.32794  0.94138  0.29001  Biso   1.000  C
  N16      1.0000 0.47890  0.96966  0.23832  Biso   1.000  N
  H25      1.0000 0.48944  0.90638  0.30521  Biso   1.000  H
  O8       1.0000 0.55423  0.03701  0.19480  Biso   1.000  O
  N17      1.0000 0.14465  0.28509  0.15469  Biso   1.000  N
  H26      1.0000 0.08836  0.37951  0.13840  Biso   1.000  H
  H27      1.0000 0.10973  0.36208  0.20208  Biso   1.000  H
  C29      1.0000 0.23493  0.34178  0.06390  Biso   1.000  C
  H28      1.0000 0.13008  0.51468  0.11512  Biso   1.000  H
  H29      1.0000 0.12103  0.44560  0.07328  Biso   1.000  H
  H30      1.0000 0.17887  0.51051  0.07059  Biso   1.000  H
  N18      1.0000 0.27412  0.96787  0.24022  Biso   1.000  N
  H31      1.0000 0.33801  0.88998  0.28290  Biso   1.000  H
  H32      1.0000 0.30210  0.94457  0.32011  Biso   1.000  H
  C30      1.0000 0.42559  0.93466  0.18840  Biso   1.000  C
  C31      1.0000 0.13897  0.22798  0.18731  Biso   1.000  C
  C32      1.0000 0.14127  0.25990  0.09761  Biso   1.000  C
  N19      1.0000 0.21493  0.27228  0.08288  Biso   1.000  N
  H33      1.0000 0.18654  0.36212  0.04011  Biso   1.000  H
  H34      1.0000 0.27135  0.33290  0.04100  Biso   1.000  H
  C33      1.0000 0.21995  0.02401  0.24152  Biso   1.000  C
  C34      1.0000 0.27680  0.94831  0.18361  Biso   1.000  C
  N20      1.0000 0.34917  0.97048  0.17005  Biso   1.000  N
  H35      1.0000 0.41638  0.88407  0.19560  Biso   1.000  H
  H36      1.0000 0.45123  0.93426  0.15822  Biso   1.000  H
  O9       1.0000 0.13297  0.23477  0.23546  Biso   1.000  O
  N21      1.0000 0.13835  0.16391  0.15641  Biso   1.000  N
  C35      1.0000 0.13433  0.17518  0.09774  Biso   1.000  C
  H37      1.0000 0.09533  0.28021  0.07029  Biso   1.000  H
  C36      1.0000 0.24840  0.20771  0.07025  Biso   1.000  C
  N22      1.0000 0.18751  0.04437  0.18803  Biso   1.000  N
  O10      1.0000 0.20466  0.04921  0.28404  Biso   1.000  O
  C37      1.0000 0.21072  0.99546  0.14669  Biso   1.000  C
  H38      1.0000 0.26532  0.89576  0.17430  Biso   1.000  H
  C38      1.0000 0.33201  0.01389  0.12451  Biso   1.000  C
  C39      1.0000 0.12043  0.09291  0.17430  Biso   1.000  C
  H39      1.0000 0.08420  0.15589  0.07189  Biso   1.000  H
  N23      1.0000 0.20330  0.15081  0.08056  Biso   1.000  N
  O11      1.0000 0.30705  0.20184  0.05257  Biso   1.000  O
  N24      1.0000 0.25313  0.03182  0.11213  Biso   1.000  N
  H40      1.0000 0.16551  0.96531  0.12379  Biso   1.000  H
  O12      1.0000 0.37992  0.03287  0.09921  Biso   1.000  O
  H41      1.0000 0.10073  0.10058  0.20709  Biso   1.000  H
  H42      1.0000 0.07801  0.06907  0.14459  Biso   1.000  H
  C40      1.0000 0.21519  0.07572  0.06503  Biso   1.000  C
  H43      1.0000 0.24782  0.07468  0.03902  Biso   1.000  H
  H44      1.0000 0.16372  0.05343  0.04542  Biso   1.000  H
  C41      1.0000 0.46194  0.62487  0.59333  Biso   1.000  C
  N25      1.0000 0.49195  0.57595  0.63929  Biso   1.000  N
  H45      1.0000 0.41222  0.60426  0.56883  Biso   1.000  H
  H46      1.0000 0.50021  0.62649  0.57140  Biso   1.000  H
  N26      1.0000 0.44804  0.69887  0.61122  Biso   1.000  N
  C42      1.0000 0.44253  0.53765  0.66893  Biso   1.000  C
  C43      1.0000 0.56870  0.55307  0.65289  Biso   1.000  C
  C44      1.0000 0.37323  0.71999  0.62279  Biso   1.000  C
  C45      1.0000 0.48633  0.75834  0.59775  Biso   1.000  C
  C46      1.0000 0.37463  0.49534  0.62780  Biso   1.000  C
  C47      1.0000 0.50622  0.48946  0.70971  Biso   1.000  C
  N27      1.0000 0.41516  0.58618  0.70875  Biso   1.000  N
  N28      1.0000 0.58165  0.50705  0.69578  Biso   1.000  N
  O13      1.0000 0.61965  0.57034  0.62991  Biso   1.000  O
  N29      1.0000 0.36837  0.70677  0.67878  Biso   1.000  N
  H47      1.0000 0.32695  0.69867  0.59392  Biso   1.000  H
  C48      1.0000 0.37472  0.80425  0.62241  Biso   1.000  C
  N30      1.0000 0.44684  0.82086  0.60621  Biso   1.000  N
  O14      1.0000 0.54575  0.75577  0.58024  Biso   1.000  O
  H48      1.0000 0.39541  0.46417  0.60301  Biso   1.000  H
  H49      1.0000 0.34742  0.46596  0.64801  Biso   1.000  H
  H50      1.0000 0.33783  0.52917  0.60621  Biso   1.000  H
  C49      1.0000 0.49005  0.40734  0.70403  Biso   1.000  C
  N31      1.0000 0.50597  0.51876  0.76599  Biso   1.000  N
  C50      1.0000 0.44926  0.57127  0.76321  Biso   1.000  C
  C51      1.0000 0.34836  0.63437  0.69473  Biso   1.000  C
  C52      1.0000 0.65816  0.47325  0.71843  Biso   1.000  C
  C53      1.0000 0.36797  0.77005  0.71013  Biso   1.000  C
  N32      1.0000 0.37708  0.82756  0.67995  Biso   1.000  N
  H51      1.0000 0.32707  0.82228  0.59543  Biso   1.000  H
  C54      1.0000 0.46487  0.89164  0.58992  Biso   1.000  C
  H52      1.0000 0.49052  0.38896  0.66712  Biso   1.000  H
  H53      1.0000 0.53073  0.38366  0.73173  Biso   1.000  H
  H54      1.0000 0.43876  0.39749  0.70963  Biso   1.000  H
  C55      1.0000 0.55466  0.49534  0.81890  Biso   1.000  C
  O15      1.0000 0.43125  0.60006  0.80392  Biso   1.000  O
  H55      1.0000 0.30686  0.61137  0.66371  Biso   1.000  H
  H56      1.0000 0.32673  0.64077  0.72672  Biso   1.000  H
  H57      1.0000 0.64882  0.42337  0.72731  Biso   1.000  H
  H58      1.0000 0.68613  0.47058  0.68964  Biso   1.000  H
  N33      1.0000 0.70922  0.51137  0.76843  Biso   1.000  N
  O16      1.0000 0.35936  0.77428  0.75782  Biso   1.000  O
  C56      1.0000 0.36147  0.90267  0.69511  Biso   1.000  C
  H59      1.0000 0.50018  0.88576  0.56593  Biso   1.000  H
  H60      1.0000 0.41577  0.91295  0.56812  Biso   1.000  H
  N34      1.0000 0.50267  0.94245  0.63782  Biso   1.000  N
  H61      1.0000 0.52707  0.50594  0.84744  Biso   1.000  H
  H62      1.0000 0.56066  0.44254  0.81591  Biso   1.000  H
  N35      1.0000 0.63376  0.53005  0.83725  Biso   1.000  N
  C57      1.0000 0.70546  0.50105  0.82589  Biso   1.000  C
  C58      1.0000 0.76622  0.56175  0.76591  Biso   1.000  C
  H63      1.0000 0.33926  0.90276  0.72701  Biso   1.000  H
  H64      1.0000 0.32126  0.92194  0.66383  Biso   1.000  H
  N36      1.0000 0.43046  0.95107  0.70929  Biso   1.000  N
  C59      1.0000 0.45878  0.98774  0.66842  Biso   1.000  C
  C60      1.0000 0.58045  0.96438  0.64843  Biso   1.000  C
  C61      1.0000 0.65055  0.58657  0.87829  Biso   1.000  C
  C62      1.0000 0.77317  0.55453  0.86209  Biso   1.000  C
  C63      1.0000 0.71744  0.42025  0.84011  Biso   1.000  C
  N37      1.0000 0.80128  0.59184  0.81936  Biso   1.000  N
  O17      1.0000 0.78404  0.57710  0.72365  Biso   1.000  O
  C64      1.0000 0.46440  0.97947  0.76283  Biso   1.000  C
  H65      1.0000 0.41538  0.01349  0.64270  Biso   1.000  H
  C65      1.0000 0.52330  0.04264  0.70454  Biso   1.000  C
  O18      1.0000 0.62978  0.94034  0.62515  Biso   1.000  O
  N38      1.0000 0.59628  0.01878  0.69140  Biso   1.000  N
  N39      1.0000 0.72876  0.60377  0.89105  Biso   1.000  N
  O19      1.0000 0.60138  0.61537  0.89917  Biso   1.000  O
  C66      1.0000 0.84255  0.51734  0.90481  Biso   1.000  C
  H66      1.0000 0.71566  0.41485  0.87812  Biso   1.000  H
  H67      1.0000 0.67584  0.39058  0.81473  Biso   1.000  H
  H68      1.0000 0.76856  0.40473  0.83633  Biso   1.000  H
  C67      1.0000 0.87045  0.63916  0.83081  Biso   1.000  C
  O20      1.0000 0.44599  0.96297  0.80522  Biso   1.000  O
  N40      1.0000 0.52132  0.03028  0.76170  Biso   1.000  N
  H69      1.0000 0.51078  0.09355  0.69481  Biso   1.000  H
  C68      1.0000 0.67228  0.05855  0.71001  Biso   1.000  C
  C69      1.0000 0.76529  0.65815  0.93613  Biso   1.000  C
  H70      1.0000 0.87014  0.48526  0.88490  Biso   1.000  H
  H71      1.0000 0.87919  0.55433  0.92674  Biso   1.000  H
  H72      1.0000 0.82134  0.48943  0.92943  Biso   1.000  H
  H73      1.0000 0.91186  0.62047  0.86162  Biso   1.000  H
  H74      1.0000 0.89049  0.63786  0.79794  Biso   1.000  H
  N41      1.0000 0.85557  0.71484  0.84533  Biso   1.000  N
  C70      1.0000 0.57463  0.06527  0.81162  Biso   1.000  C
  H75      1.0000 0.66221  0.10995  0.71712  Biso   1.000  H
  H76      1.0000 0.69812  0.05536  0.67991  Biso   1.000  H
  N42      1.0000 0.72610  0.03206  0.75980  Biso   1.000  N
  H77      1.0000 0.81368  0.63786  0.95991  Biso   1.000  H
  H78      1.0000 0.72887  0.66703  0.95902  Biso   1.000  H
  N43      1.0000 0.78529  0.72765  0.91714  Biso   1.000  N
  C71      1.0000 0.85895  0.74003  0.90241  Biso   1.000  C
  C72      1.0000 0.86125  0.77195  0.81271  Biso   1.000  C
  H79      1.0000 0.58384  0.11586  0.80442  Biso   1.000  H
  H80      1.0000 0.54899  0.06567  0.84180  Biso   1.000  H
  N44      1.0000 0.65104  0.02945  0.82997  Biso   1.000  N
  C73      1.0000 0.72342  0.05168  0.81642  Biso   1.000  C
  C74      1.0000 0.78027  0.97598  0.75850  Biso   1.000  C
  C75      1.0000 0.75182  0.79222  0.92977  Biso   1.000  C
  C76      1.0000 0.86589  0.82475  0.90228  Biso   1.000  C
  H81      1.0000 0.90489  0.71972  0.92973  Biso   1.000  H
  N45      1.0000 0.86189  0.83602  0.84365  Biso   1.000  N
  O21      1.0000 0.86725  0.76517  0.76456  Biso   1.000  O
  C77      1.0000 0.66821  0.98604  0.87551  Biso   1.000  C
  C78      1.0000 0.78950  0.00447  0.85333  Biso   1.000  C
  H82      1.0000 0.73490  0.10417  0.82572  Biso   1.000  H
  N46      1.0000 0.81271  0.95556  0.81200  Biso   1.000  N
  O22      1.0000 0.79556  0.95078  0.71599  Biso   1.000  O
  N47      1.0000 0.79692  0.84912  0.91946  Biso   1.000  N
  O23      1.0000 0.69317  0.79815  0.94745  Biso   1.000  O
  H83      1.0000 0.91602  0.84404  0.92813  Biso   1.000  H
  C79      1.0000 0.87979  0.90708  0.82572  Biso   1.000  C
  N48      1.0000 0.74708  0.96817  0.88789  Biso   1.000  N
  O24      1.0000 0.62030  0.96707  0.90081  Biso   1.000  O
  H84      1.0000 0.83471  0.03468  0.87623  Biso   1.000  H
  C80      1.0000 0.78503  0.92427  0.93499  Biso   1.000  C
  H85      1.0000 0.89949  0.89936  0.79293  Biso   1.000  H
  H86      1.0000 0.92221  0.93086  0.85544  Biso   1.000  H
  H87      1.0000 0.75240  0.92525  0.96100  Biso   1.000  H
  H88      1.0000 0.83650  0.94656  0.95460  Biso   1.000  H
  O25      1.0000 0.72486  0.53349  0.28244  Biso   1.000  O
  C81      1.0000 0.74018  0.51388  0.23820  Biso   1.000  C
  N49      1.0000 0.79748  0.46287  0.23433  Biso   1.000  N
  N50      1.0000 0.70487  0.53731  0.18630  Biso   1.000  N
  C82      1.0000 0.85100  0.43299  0.28425  Biso   1.000  C
  C83      1.0000 0.79927  0.44736  0.17616  Biso   1.000  C
  C84      1.0000 0.73006  0.49621  0.14147  Biso   1.000  C
  C85      1.0000 0.63569  0.58427  0.17729  Biso   1.000  C
  H89      1.0000 0.82410  0.43356  0.31371  Biso   1.000  H
  H90      1.0000 0.86108  0.38207  0.27541  Biso   1.000  H
  N51      1.0000 0.92708  0.47176  0.30567  Biso   1.000  N
  C86      1.0000 0.79042  0.36601  0.16050  Biso   1.000  C
  N52      1.0000 0.87026  0.47757  0.16454  Biso   1.000  N
  C87      1.0000 0.66138  0.45540  0.10140  Biso   1.000  C
  N53      1.0000 0.77168  0.54187  0.11196  Biso   1.000  N
  H91      1.0000 0.59249  0.56210  0.14720  Biso   1.000  H
  H92      1.0000 0.61797  0.58730  0.21122  Biso   1.000  H
  N54      1.0000 0.65131  0.65849  0.16302  Biso   1.000  N
  C88      1.0000 0.93861  0.52418  0.34928  Biso   1.000  C
  C89      1.0000 0.00160  0.45498  0.29031  Biso   1.000  C
  H93      1.0000 0.79215  0.35741  0.12219  Biso   1.000  H
  H94      1.0000 0.74036  0.34829  0.16420  Biso   1.000  H
  H95      1.0000 0.83345  0.34056  0.18499  Biso   1.000  H
  C90      1.0000 0.94915  0.44750  0.18112  Biso   1.000  C
  C91      1.0000 0.85087  0.52840  0.12379  Biso   1.000  C
  H96      1.0000 0.63495  0.42567  0.12198  Biso   1.000  H
  H97      1.0000 0.68067  0.42449  0.07560  Biso   1.000  H
  H98      1.0000 0.62429  0.48968  0.08082  Biso   1.000  H
  C92      1.0000 0.73239  0.58967  0.06722  Biso   1.000  C
  C93      1.0000 0.64360  0.67647  0.10540  Biso   1.000  C
  C94      1.0000 0.64380  0.71882  0.19602  Biso   1.000  C
  O26      1.0000 0.88758  0.54214  0.37264  Biso   1.000  O
  N55      1.0000 0.01478  0.55230  0.36144  Biso   1.000  N
  C95      1.0000 0.06380  0.51048  0.33185  Biso   1.000  C
  C96      1.0000 0.02255  0.37509  0.29671  Biso   1.000  C
  N56      1.0000 0.00029  0.47880  0.23458  Biso   1.000  N
  H99      1.0000 0.97508  0.45517  0.15191  Biso   1.000  H
  H100     1.0000 0.94416  0.39489  0.18390  Biso   1.000  H
  O27      1.0000 0.89896  0.55635  0.10207  Biso   1.000  O
  H101     1.0000 0.76676  0.59539  0.04281  Biso   1.000  H
  H102     1.0000 0.68313  0.56569  0.04479  Biso   1.000  H
  N57      1.0000 0.71376  0.66199  0.08696  Biso   1.000  N
  H103     1.0000 0.59559  0.65349  0.07930  Biso   1.000  H
  C97      1.0000 0.63890  0.76100  0.10725  Biso   1.000  C
  N58      1.0000 0.64199  0.77979  0.16597  Biso   1.000  N
  O28      1.0000 0.63967  0.71799  0.24506  Biso   1.000  O
  C98      1.0000 0.04360  0.60507  0.40838  Biso   1.000  C
  C99      1.0000 0.13358  0.47578  0.37340  Biso   1.000  C
  N59      1.0000 0.09018  0.55466  0.29157  Biso   1.000  N
  H104     1.0000 0.98404  0.34540  0.26880  Biso   1.000  H
  H105     1.0000 0.02239  0.36150  0.33362  Biso   1.000  H
  H106     1.0000 0.07489  0.36750  0.29170  Biso   1.000  H
  C100     1.0000 0.05470  0.53279  0.23652  Biso   1.000  C
  C101     1.0000 0.75047  0.72479  0.07791  Biso   1.000  C
  H107     1.0000 0.58948  0.77768  0.08132  Biso   1.000  H
  N60      1.0000 0.70870  0.78367  0.09138  Biso   1.000  N
  C102     1.0000 0.62270  0.85239  0.18432  Biso   1.000  C
  H108     1.0000 0.09333  0.58777  0.43262  Biso   1.000  H
  H109     1.0000 0.00508  0.60805  0.43010  Biso   1.000  H
  N61      1.0000 0.05719  0.67817  0.39146  Biso   1.000  N
  H110     1.0000 0.11387  0.44780  0.39861  Biso   1.000  H
  H111     1.0000 0.16962  0.51369  0.39440  Biso   1.000  H
  H112     1.0000 0.16117  0.44406  0.35319  Biso   1.000  H
  C103     1.0000 0.15642  0.60746  0.30601  Biso   1.000  C
  O29      1.0000 0.07116  0.55728  0.19628  Biso   1.000  O
  O30      1.0000 0.80897  0.72839  0.05990  Biso   1.000  O
  C104     1.0000 0.71957  0.85659  0.07585  Biso   1.000  C
  H113     1.0000 0.60279  0.84831  0.21698  Biso   1.000  H
  H114     1.0000 0.58000  0.87160  0.15460  Biso   1.000  H
  N62      1.0000 0.68981  0.90431  0.19863  Biso   1.000  N
  C105     1.0000 0.13128  0.69927  0.37980  Biso   1.000  C
  C106     1.0000 0.01975  0.73828  0.40686  Biso   1.000  C
  H115     1.0000 0.17711  0.61129  0.27372  Biso   1.000  H
  H116     1.0000 0.19890  0.58939  0.33632  Biso   1.000  H
  N63      1.0000 0.13472  0.68030  0.32306  Biso   1.000  N
  H117     1.0000 0.66800  0.87558  0.05611  Biso   1.000  H
  H118     1.0000 0.75269  0.85498  0.05022  Biso   1.000  H
  N64      1.0000 0.75681  0.90677  0.12421  Biso   1.000  N
  C107     1.0000 0.71292  0.94670  0.15721  Biso   1.000  C
  C108     1.0000 0.72292  0.93231  0.25200  Biso   1.000  C
  C109     1.0000 0.12913  0.78478  0.38152  Biso   1.000  C
  H119     1.0000 0.17812  0.68176  0.40791  Biso   1.000  H
  O31      1.0000 0.96080  0.73610  0.42547  Biso   1.000  O
  N65      1.0000 0.05764  0.80016  0.39878  Biso   1.000  N
  C110     1.0000 0.13469  0.74060  0.29212  Biso   1.000  C
  C111     1.0000 0.83442  0.92911  0.13600  Biso   1.000  C
  H120     1.0000 0.66717  0.97187  0.13339  Biso   1.000  H
  C112     1.0000 0.77562  0.00168  0.19451  Biso   1.000  C
  N66      1.0000 0.77454  0.98819  0.25121  Biso   1.000  N
  O32      1.0000 0.70733  0.91132  0.29515  Biso   1.000  O
  H121     1.0000 0.17685  0.80678  0.40850  Biso   1.000  H
  N67      1.0000 0.12560  0.80120  0.32432  Biso   1.000  N
  C113     1.0000 0.03971  0.87360  0.41650  Biso   1.000  C
  O33      1.0000 0.14141  0.73958  0.24413  Biso   1.000  O
  N68      1.0000 0.84962  0.98111  0.18062  Biso   1.000  N
  O34      1.0000 0.88279  0.90877  0.11070  Biso   1.000  O
  H122     1.0000 0.76156  0.05247  0.18542  Biso   1.000  H
  C114     1.0000 0.82892  0.02190  0.30239  Biso   1.000  C
  C115     1.0000 0.14089  0.87546  0.30980  Biso   1.000  C
  H123     1.0000 0.00552  0.86999  0.44121  Biso   1.000  H
  H124     1.0000 0.08915  0.89800  0.43793  Biso   1.000  H
  N69      1.0000 0.00072  0.91828  0.37037  Biso   1.000  N
  C116     1.0000 0.92411  0.02139  0.19859  Biso   1.000  C
  N70      1.0000 0.90601  0.98626  0.31868  Biso   1.000  N
  H125     1.0000 0.83735  0.07320  0.29671  Biso   1.000  H
  H126     1.0000 0.80415  0.02008  0.33291  Biso   1.000  H
  H127     1.0000 0.18193  0.89890  0.34082  Biso   1.000  H
  H128     1.0000 0.16150  0.87230  0.27722  Biso   1.000  H
  N71      1.0000 0.07094  0.92130  0.29755  Biso   1.000  N
  C117     1.0000 0.92263  0.93770  0.36039  Biso   1.000  C
  C118     1.0000 0.04376  0.96169  0.34010  Biso   1.000  C
  N72      1.0000 0.97932  0.99439  0.24826  Biso   1.000  N
  H129     1.0000 0.91344  0.07249  0.20621  Biso   1.000  H
  H130     1.0000 0.94921  0.01921  0.16820  Biso   1.000  H
  C119     1.0000 0.97783  0.01090  0.30500  Biso   1.000  C
  C120     1.0000 0.03714  0.94366  0.24510  Biso   1.000  C
  O35      1.0000 0.87473  0.91410  0.38388  Biso   1.000  O
  H131     1.0000 0.08713  0.99107  0.36591  Biso   1.000  H
  H132     1.0000 0.98948  0.06306  0.31590  Biso   1.000  H
  O36      1.0000 0.05493  0.92338  0.20234  Biso   1.000  O
  O37      1.0000 0.27536  0.46644  0.71758  Biso   1.000  O
  C121     1.0000 0.26004  0.48605  0.76182  Biso   1.000  C
  N73      1.0000 0.20275  0.53706  0.76574  Biso   1.000  N
  N74      1.0000 0.29534  0.46267  0.81372  Biso   1.000  N
  C122     1.0000 0.14922  0.56694  0.71577  Biso   1.000  C
  C123     1.0000 0.20095  0.55257  0.82387  Biso   1.000  C
  C124     1.0000 0.27016  0.50377  0.85855  Biso   1.000  C
  C125     1.0000 0.36453  0.41566  0.82273  Biso   1.000  C
  N75      1.0000 0.07314  0.52817  0.69435  Biso   1.000  N
  H133     1.0000 0.17612  0.56637  0.68631  Biso   1.000  H
  H134     1.0000 0.13914  0.61786  0.72461  Biso   1.000  H
  N76      1.0000 0.12996  0.52236  0.83548  Biso   1.000  N
  C126     1.0000 0.20980  0.63397  0.83953  Biso   1.000  C
  C127     1.0000 0.33884  0.54453  0.89862  Biso   1.000  C
  N77      1.0000 0.22853  0.45806  0.88806  Biso   1.000  N
  H135     1.0000 0.40773  0.43783  0.85283  Biso   1.000  H
  H136     1.0000 0.38225  0.41263  0.78880  Biso   1.000  H
  N78      1.0000 0.34891  0.34144  0.83700  Biso   1.000  N
  C128     1.0000 0.06161  0.47575  0.65074  Biso   1.000  C
  C129     1.0000 0.99861  0.54496  0.70971  Biso   1.000  C
  C130     1.0000 0.05107  0.55243  0.81890  Biso   1.000  C
  C131     1.0000 0.14935  0.47153  0.87623  Biso   1.000  C
  H137     1.0000 0.20807  0.64253  0.87783  Biso   1.000  H
  H138     1.0000 0.25986  0.65164  0.83582  Biso   1.000  H
  H139     1.0000 0.16677  0.65937  0.81503  Biso   1.000  H
  H140     1.0000 0.36527  0.57426  0.87804  Biso   1.000  H
  H141     1.0000 0.31955  0.57544  0.92442  Biso   1.000  H
  H142     1.0000 0.37593  0.51025  0.91921  Biso   1.000  H
  C132     1.0000 0.26783  0.41026  0.93280  Biso   1.000  C
  C133     1.0000 0.35642  0.28117  0.80400  Biso   1.000  C
  C134     1.0000 0.35662  0.32346  0.89462  Biso   1.000  C
  N79      1.0000 0.98544  0.44768  0.63858  Biso   1.000  N
  O38      1.0000 0.11264  0.45780  0.62738  Biso   1.000  O
  C135     1.0000 0.93642  0.48945  0.66817  Biso   1.000  C
  C136     1.0000 0.97767  0.62484  0.70332  Biso   1.000  C
  N80      1.0000 0.99993  0.52114  0.76544  Biso   1.000  N
  H143     1.0000 0.02513  0.54476  0.84811  Biso   1.000  H
  H144     1.0000 0.05605  0.60505  0.81612  Biso   1.000  H
  O39      1.0000 0.10126  0.44358  0.89795  Biso   1.000  O
  H145     1.0000 0.23346  0.40455  0.95721  Biso   1.000  H
  H146     1.0000 0.31709  0.43424  0.95524  Biso   1.000  H
  N81      1.0000 0.28646  0.33794  0.91306  Biso   1.000  N
  N82      1.0000 0.35822  0.22014  0.83405  Biso   1.000  N
  O40      1.0000 0.36055  0.28194  0.75496  Biso   1.000  O
  C137     1.0000 0.36131  0.23893  0.89277  Biso   1.000  C
  H147     1.0000 0.40463  0.34644  0.92072  Biso   1.000  H
  C138     1.0000 0.95662  0.39486  0.59165  Biso   1.000  C
  N83      1.0000 0.91003  0.44528  0.70845  Biso   1.000  N
  C139     1.0000 0.86664  0.52415  0.62662  Biso   1.000  C
  H148     1.0000 0.01618  0.65458  0.73122  Biso   1.000  H
  H149     1.0000 0.97783  0.63843  0.66640  Biso   1.000  H
  H150     1.0000 0.92533  0.63244  0.70832  Biso   1.000  H
  C140     1.0000 0.94552  0.46715  0.76351  Biso   1.000  C
  C141     1.0000 0.24975  0.27514  0.92211  Biso   1.000  C
  C142     1.0000 0.37752  0.14754  0.81570  Biso   1.000  C
  N84      1.0000 0.29152  0.21626  0.90864  Biso   1.000  N
  H151     1.0000 0.41074  0.22225  0.91870  Biso   1.000  H
  N85      1.0000 0.94303  0.32177  0.60857  Biso   1.000  N
  H152     1.0000 0.90689  0.41216  0.56740  Biso   1.000  H
  H153     1.0000 0.99514  0.39188  0.56993  Biso   1.000  H
  C143     1.0000 0.84380  0.39248  0.69401  Biso   1.000  C
  H154     1.0000 0.88635  0.55218  0.60141  Biso   1.000  H
  H155     1.0000 0.83060  0.48624  0.60562  Biso   1.000  H
  H156     1.0000 0.83905  0.55587  0.64683  Biso   1.000  H
  O41      1.0000 0.92906  0.44266  0.80375  Biso   1.000  O
  O42      1.0000 0.19125  0.27155  0.94013  Biso   1.000  O
  N86      1.0000 0.31041  0.09563  0.80139  Biso   1.000  N
  H157     1.0000 0.39743  0.15168  0.78304  Biso   1.000  H
  H158     1.0000 0.42021  0.12833  0.84542  Biso   1.000  H
  C144     1.0000 0.28065  0.14334  0.92417  Biso   1.000  C
  C145     1.0000 0.98047  0.26166  0.59316  Biso   1.000  C
  C146     1.0000 0.86893  0.30066  0.62023  Biso   1.000  C
  N87      1.0000 0.86550  0.31964  0.67697  Biso   1.000  N
  H159     1.0000 0.82311  0.38864  0.72630  Biso   1.000  H
  H160     1.0000 0.80132  0.41054  0.66371  Biso   1.000  H
  C147     1.0000 0.27730  0.06768  0.74802  Biso   1.000  C
  C148     1.0000 0.28729  0.05324  0.84281  Biso   1.000  C
  N88      1.0000 0.24341  0.09316  0.87581  Biso   1.000  N
  H161     1.0000 0.33222  0.12435  0.94391  Biso   1.000  H
  H162     1.0000 0.24753  0.14495  0.94981  Biso   1.000  H
  O43      1.0000 0.03942  0.26389  0.57456  Biso   1.000  O
  N89      1.0000 0.94259  0.19977  0.60128  Biso   1.000  N
  C149     1.0000 0.87109  0.21515  0.61850  Biso   1.000  C
  H163     1.0000 0.82210  0.31818  0.59211  Biso   1.000  H
  C150     1.0000 0.86553  0.25933  0.70790  Biso   1.000  C
  N90      1.0000 0.22568  0.01175  0.74882  Biso   1.000  N
  O44      1.0000 0.29289  0.08862  0.70487  Biso   1.000  O
  C151     1.0000 0.22460  0.99825  0.80551  Biso   1.000  C
  H164     1.0000 0.33304  0.02807  0.86663  Biso   1.000  H
  C152     1.0000 0.16580  0.07087  0.86402  Biso   1.000  C
  C153     1.0000 0.96051  0.12639  0.58352  Biso   1.000  C
  H165     1.0000 0.82337  0.19315  0.59152  Biso   1.000  H
  N91      1.0000 0.87462  0.19873  0.67570  Biso   1.000  N
  O45      1.0000 0.85881  0.26035  0.75589  Biso   1.000  O
  C154     1.0000 0.17130  0.97804  0.69763  Biso   1.000  C
  N92      1.0000 0.15060  0.01888  0.81941  Biso   1.000  N
  H166     1.0000 0.23866  0.94746  0.81461  Biso   1.000  H
  O46      1.0000 0.11743  0.09116  0.88932  Biso   1.000  O
  H167     1.0000 0.99470  0.12994  0.55881  Biso   1.000  H
  H168     1.0000 0.91107  0.10199  0.56210  Biso   1.000  H
  N93      1.0000 0.99950  0.08165  0.62965  Biso   1.000  N
  C155     1.0000 0.85933  0.12448  0.69022  Biso   1.000  C
  N94      1.0000 0.09421  0.01367  0.68134  Biso   1.000  N
  H169     1.0000 0.16287  0.92673  0.70332  Biso   1.000  H
  H170     1.0000 0.19607  0.97986  0.66712  Biso   1.000  H
  C156     1.0000 0.07611  0.97855  0.80143  Biso   1.000  C
  C157     1.0000 0.07759  0.06224  0.63963  Biso   1.000  C
  C158     1.0000 0.95646  0.03824  0.65992  Biso   1.000  C
  N95      1.0000 0.92928  0.07868  0.70247  Biso   1.000  N
  H171     1.0000 0.81828  0.10104  0.65920  Biso   1.000  H
  H172     1.0000 0.83872  0.12768  0.72280  Biso   1.000  H
  C159     1.0000 0.02239  0.98904  0.69502  Biso   1.000  C
  N96      1.0000 0.02090  0.00554  0.75176  Biso   1.000  N
  H173     1.0000 0.08678  0.92744  0.79381  Biso   1.000  H
  H174     1.0000 0.05101  0.98072  0.83182  Biso   1.000  H
  O47      1.0000 0.12550  0.08584  0.61618  Biso   1.000  O
  H175     1.0000 0.91309  0.00887  0.63412  Biso   1.000  H
  C160     1.0000 0.96308  0.05627  0.75492  Biso   1.000  C
  H176     1.0000 0.01080  0.93687  0.68412  Biso   1.000  H
  O48      1.0000 0.94529  0.07655  0.79769  Biso   1.000  O
  Ne1      1.0000 0.38443  0.24434  0.23655  Biso   1.000  Ne
  He1      1.0000 0.28989  0.27726  0.33227  Biso   1.000  He
  He2      1.0000 0.47366  0.18857  0.14894  Biso   1.000  He
  Ar1      1.0000 0.38575  0.24497  0.23478  Biso   1.000  Ar
  Ne2      1.0000 0.88816  0.71338  0.24228  Biso   1.000  Ne
  He3      1.0000 0.79920  0.68885  0.33715  Biso   1.000  He
  He4      1.0000 0.97257  0.76225  0.15519  Biso   1.000  He
  Ar2      1.0000 0.88922  0.70331  0.24082  Biso   1.000  Ar
  Ne3      1.0000 0.11206  0.28656  0.75774  Biso   1.000  Ne
  He5      1.0000 0.02542  0.23756  0.84723  Biso   1.000  He
  He6      1.0000 0.19929  0.23891  0.66619  Biso   1.000  He
  Ar3      1.0000 0.11108  0.28688  0.75902  Biso   1.000  Ar
  Ne4      1.0000 0.61579  0.75560  0.76347  Biso   1.000  Ne
  He7      1.0000 0.52878  0.81117  0.84899  Biso   1.000  He
  He8      1.0000 0.72201  0.79173  0.65730  Biso   1.000  He
  Ar4      1.0000 0.61397  0.75128  0.76543  Biso   1.000  Ar
