data_image0
_cell_length_a       15.239
_cell_length_b       17.089
_cell_length_c       22.848
_cell_angle_alpha    90
_cell_angle_beta     90
_cell_angle_gamma    90

_symmetry_space_group_name_H-M    "P 1"
_symmetry_int_tables_number       1

loop_
  _symmetry_equiv_pos_as_xyz
  'x, y, z'

loop_
  _atom_site_label
  _atom_site_occupancy
  _atom_site_fract_x
  _atom_site_fract_y
  _atom_site_fract_z
  _atom_site_thermal_displace_type
  _atom_site_B_iso_or_equiv
  _atom_site_type_symbol
  O1       1.0000 0.60752  0.56381  0.48022  Biso   1.000  O
  C1       1.0000 0.66468  0.62520  0.45820  Biso   1.000  C
  C2       1.0000 0.68653  0.60782  0.39461  Biso   1.000  C
  H1       1.0000 0.63390  0.67541  0.46039  Biso   1.000  H
  C3       1.0000 0.74749  0.62941  0.49519  Biso   1.000  C
  O2       1.0000 0.61067  0.61759  0.35898  Biso   1.000  O
  C4       1.0000 0.75090  0.66593  0.37561  Biso   1.000  C
  H2       1.0000 0.71009  0.55468  0.39049  Biso   1.000  H
  C5       1.0000 0.81442  0.68459  0.46888  Biso   1.000  C
  H3       1.0000 0.77249  0.57727  0.50179  Biso   1.000  H
  O3       1.0000 0.71770  0.66358  0.54871  Biso   1.000  O
  C6       1.0000 0.55883  0.54842  0.35421  Biso   1.000  C
  H4       1.0000 0.76527  0.65551  0.33452  Biso   1.000  H
  O4       1.0000 0.82939  0.66622  0.40778  Biso   1.000  O
  O5       1.0000 0.71540  0.74352  0.37960  Biso   1.000  O
  H5       1.0000 0.78923  0.73732  0.47041  Biso   1.000  H
  C7       1.0000 0.90820  0.68951  0.49602  Biso   1.000  C
  C8       1.0000 0.75221  0.63509  0.60211  Biso   1.000  C
  H6       1.0000 0.50883  0.55860  0.32979  Biso   1.000  H
  H7       1.0000 0.53927  0.53268  0.39242  Biso   1.000  H
  H8       1.0000 0.59341  0.50729  0.33718  Biso   1.000  H
  C9       1.0000 0.72328  0.79812  0.33211  Biso   1.000  C
  H9       1.0000 0.94678  0.71982  0.47089  Biso   1.000  H
  H10      1.0000 0.90623  0.71403  0.53418  Biso   1.000  H
  O6       1.0000 0.93773  0.61262  0.50039  Biso   1.000  O
  H11      1.0000 0.78909  0.58909  0.59511  Biso   1.000  H
  C10      1.0000 0.67570  0.61408  0.64041  Biso   1.000  C
  O7       1.0000 0.80091  0.69442  0.62981  Biso   1.000  O
  C11      1.0000 0.63390  0.80262  0.29919  Biso   1.000  C
  H12      1.0000 0.76869  0.77962  0.30502  Biso   1.000  H
  C12      1.0000 0.75071  0.87752  0.35671  Biso   1.000  C
  C13      1.0000 0.03603  0.61262  0.51050  Biso   1.000  C
  H13      1.0000 0.69827  0.59149  0.67691  Biso   1.000  H
  C14      1.0000 0.61887  0.68412  0.65551  Biso   1.000  C
  O8       1.0000 0.62498  0.55451  0.60999  Biso   1.000  O
  C15      1.0000 0.75458  0.76769  0.63791  Biso   1.000  C
  C16      1.0000 0.63528  0.86951  0.25810  Biso   1.000  C
  H14      1.0000 0.58652  0.80988  0.32760  Biso   1.000  H
  O9       1.0000 0.62150  0.72942  0.26891  Biso   1.000  O
  H15      1.0000 0.71009  0.89262  0.38800  Biso   1.000  H
  C17      1.0000 0.84382  0.87600  0.38069  Biso   1.000  C
  O10      1.0000 0.74867  0.93663  0.31071  Biso   1.000  O
  H16      1.0000 0.05663  0.55972  0.51361  Biso   1.000  H
  H17      1.0000 0.04908  0.64018  0.54600  Biso   1.000  H
  H18      1.0000 0.06470  0.63801  0.47820  Biso   1.000  H
  H19      1.0000 0.58869  0.69998  0.61962  Biso   1.000  H
  C18      1.0000 0.67380  0.75113  0.67459  Biso   1.000  C
  O11      1.0000 0.55332  0.66762  0.69809  Biso   1.000  O
  C19      1.0000 0.58941  0.49751  0.64080  Biso   1.000  C
  H20      1.0000 0.73483  0.78571  0.59931  Biso   1.000  H
  C20      1.0000 0.81869  0.82638  0.66089  Biso   1.000  C
  C21      1.0000 0.66290  0.94622  0.28611  Biso   1.000  C
  H21      1.0000 0.67570  0.85751  0.22602  Biso   1.000  H
  O12      1.0000 0.54977  0.88051  0.23468  Biso   1.000  O
  H22      1.0000 0.85393  0.82761  0.40179  Biso   1.000  H
  H23      1.0000 0.88562  0.87899  0.34878  Biso   1.000  H
  O13      1.0000 0.85511  0.93979  0.41829  Biso   1.000  O
  H24      1.0000 0.69250  0.74171  0.71499  Biso   1.000  H
  O14      1.0000 0.61953  0.82029  0.67371  Biso   1.000  O
  H25      1.0000 0.55817  0.46281  0.61511  Biso   1.000  H
  H26      1.0000 0.54951  0.51922  0.66899  Biso   1.000  H
  H27      1.0000 0.63469  0.46890  0.66080  Biso   1.000  H
  H28      1.0000 0.87342  0.82117  0.63949  Biso   1.000  H
  H29      1.0000 0.79598  0.87852  0.65349  Biso   1.000  H
  O15      1.0000 0.83660  0.81912  0.72190  Biso   1.000  O
  H30      1.0000 0.66409  0.98759  0.25652  Biso   1.000  H
  O16      1.0000 0.60050  0.96460  0.32948  Biso   1.000  O
  C22      1.0000 0.53717  0.86050  0.17599  Biso   1.000  C
  C23      1.0000 0.88733  0.91948  0.46529  Biso   1.000  C
  C24      1.0000 0.61218  0.86512  0.72321  Biso   1.000  C
  C25      1.0000 0.90393  0.76049  0.73529  Biso   1.000  C
  C26      1.0000 0.56611  0.04242  0.33351  Biso   1.000  C
  H31      1.0000 0.47733  0.87038  0.16531  Biso   1.000  H
  H32      1.0000 0.55010  0.80602  0.17061  Biso   1.000  H
  H33      1.0000 0.57543  0.89128  0.15192  Biso   1.000  H
  H34      1.0000 0.89428  0.96442  0.49011  Biso   1.000  H
  H35      1.0000 0.94363  0.89590  0.45851  Biso   1.000  H
  H36      1.0000 0.84927  0.88232  0.48398  Biso   1.000  H
  H37      1.0000 0.64033  0.83668  0.75551  Biso   1.000  H
  C27      1.0000 0.51637  0.87910  0.73980  Biso   1.000  C
  O17      1.0000 0.65588  0.93780  0.71669  Biso   1.000  O
  H38      1.0000 0.91292  0.75832  0.77679  Biso   1.000  H
  H39      1.0000 0.95781  0.77471  0.71630  Biso   1.000  H
  H40      1.0000 0.88503  0.71022  0.72142  Biso   1.000  H
  C28      1.0000 0.46617  0.03218  0.34432  Biso   1.000  C
  H41      1.0000 0.57412  0.06817  0.29552  Biso   1.000  H
  C29      1.0000 0.61251  0.09082  0.37981  Biso   1.000  C
  H42      1.0000 0.51289  0.90549  0.77779  Biso   1.000  H
  C30      1.0000 0.47050  0.93001  0.69140  Biso   1.000  C
  O18      1.0000 0.47503  0.80297  0.74308  Biso   1.000  O
  C31      1.0000 0.62097  0.98473  0.66929  Biso   1.000  C
  H43      1.0000 0.45830  0.99848  0.37859  Biso   1.000  H
  O19      1.0000 0.42483  0.99397  0.29368  Biso   1.000  O
  C32      1.0000 0.42857  0.10931  0.35749  Biso   1.000  C
  H44      1.0000 0.61290  0.06068  0.41640  Biso   1.000  H
  C33      1.0000 0.70523  0.11142  0.36502  Biso   1.000  C
  O20      1.0000 0.56559  0.16309  0.39019  Biso   1.000  O
  H45      1.0000 0.46860  0.90011  0.65489  Biso   1.000  H
  O21      1.0000 0.38388  0.94751  0.70881  Biso   1.000  O
  C34      1.0000 0.52169  0.00392  0.68142  Biso   1.000  C
  C35      1.0000 0.41781  0.79449  0.79132  Biso   1.000  C
  H46      1.0000 0.62570  0.95529  0.63262  Biso   1.000  H
  C36      1.0000 0.67393  0.05770  0.66448  Biso   1.000  C
  C37      1.0000 0.47451  0.15150  0.40721  Biso   1.000  C
  H47      1.0000 0.42942  0.14202  0.32230  Biso   1.000  H
  O22      1.0000 0.33992  0.09807  0.37671  Biso   1.000  O
  H48      1.0000 0.73640  0.06548  0.35102  Biso   1.000  H
  H49      1.0000 0.70667  0.15109  0.33469  Biso   1.000  H
  O23      1.0000 0.74572  0.14079  0.41850  Biso   1.000  O
  H50      1.0000 0.51637  0.03868  0.71529  Biso   1.000  H
  O24      1.0000 0.48612  0.04108  0.62999  Biso   1.000  O
  H51      1.0000 0.39261  0.74299  0.79088  Biso   1.000  H
  H52      1.0000 0.37181  0.83282  0.78882  Biso   1.000  H
  H53      1.0000 0.45003  0.80192  0.82699  Biso   1.000  H
  H54      1.0000 0.64519  0.09328  0.63761  Biso   1.000  H
  H55      1.0000 0.67623  0.08292  0.70260  Biso   1.000  H
  O25      1.0000 0.76140  0.04330  0.64470  Biso   1.000  O
  H56      1.0000 0.44642  0.20229  0.41400  Biso   1.000  H
  O26      1.0000 0.46991  0.10638  0.45759  Biso   1.000  O
  C38      1.0000 0.28112  0.13529  0.35088  Biso   1.000  C
  C39      1.0000 0.83247  0.14331  0.41619  Biso   1.000  C
  C40      1.0000 0.45272  0.11803  0.63358  Biso   1.000  C
  C41      1.0000 0.76770  0.04161  0.58311  Biso   1.000  C
  C42      1.0000 0.44740  0.14600  0.51160  Biso   1.000  C
  H57      1.0000 0.22521  0.12271  0.36778  Biso   1.000  H
  H58      1.0000 0.28099  0.12148  0.31018  Biso   1.000  H
  H59      1.0000 0.29182  0.19041  0.35491  Biso   1.000  H
  H60      1.0000 0.85491  0.16309  0.45260  Biso   1.000  H
  H61      1.0000 0.85038  0.17707  0.38489  Biso   1.000  H
  H62      1.0000 0.85498  0.09170  0.40962  Biso   1.000  H
  C43      1.0000 0.36538  0.11861  0.60242  Biso   1.000  C
  O27      1.0000 0.51007  0.17058  0.60872  Biso   1.000  O
  H63      1.0000 0.44373  0.13172  0.67481  Biso   1.000  H
  H64      1.0000 0.82742  0.03177  0.57191  Biso   1.000  H
  H65      1.0000 0.74913  0.09099  0.56749  Biso   1.000  H
  H66      1.0000 0.73082  0.00082  0.56801  Biso   1.000  H
  C44      1.0000 0.37758  0.09181  0.53939  Biso   1.000  C
  H67      1.0000 0.42181  0.19732  0.50302  Biso   1.000  H
  C45      1.0000 0.52838  0.15548  0.54801  Biso   1.000  C
  H68      1.0000 0.34241  0.17210  0.60228  Biso   1.000  H
  O28      1.0000 0.30383  0.06887  0.63051  Biso   1.000  O
  H69      1.0000 0.39917  0.03780  0.53908  Biso   1.000  H
  O29      1.0000 0.29851  0.09620  0.50652  Biso   1.000  O
  H70      1.0000 0.56132  0.10633  0.54591  Biso   1.000  H
  C46      1.0000 0.58757  0.21950  0.52609  Biso   1.000  C
  C47      1.0000 0.24719  0.10597  0.67122  Biso   1.000  C
  H71      1.0000 0.63469  0.22839  0.55379  Biso   1.000  H
  H72      1.0000 0.61343  0.20428  0.48901  Biso   1.000  H
  O30      1.0000 0.53737  0.28919  0.51882  Biso   1.000  O
  H73      1.0000 0.20808  0.06800  0.68781  Biso   1.000  H
  H74      1.0000 0.21373  0.14571  0.65148  Biso   1.000  H
  H75      1.0000 0.28151  0.12962  0.70168  Biso   1.000  H
  C48      1.0000 0.58042  0.35192  0.48700  Biso   1.000  C
  H76      1.0000 0.54157  0.39610  0.48451  Biso   1.000  H
  H77      1.0000 0.59499  0.33431  0.44840  Biso   1.000  H
  H78      1.0000 0.63298  0.36690  0.50722  Biso   1.000  H
  C49      1.0000 0.38730  0.58049  0.53471  Biso   1.000  C
  O31      1.0000 0.35508  0.56018  0.58171  Biso   1.000  O
  H79      1.0000 0.39432  0.53561  0.50989  Biso   1.000  H
  H80      1.0000 0.44360  0.60407  0.54149  Biso   1.000  H
  H81      1.0000 0.34930  0.61771  0.51602  Biso   1.000  H
  C50      1.0000 0.34379  0.62403  0.61931  Biso   1.000  C
  C51      1.0000 0.25067  0.62251  0.64329  Biso   1.000  C
  H82      1.0000 0.35389  0.67242  0.59821  Biso   1.000  H
  H83      1.0000 0.38559  0.62098  0.65122  Biso   1.000  H
  O32      1.0000 0.24870  0.56340  0.68929  Biso   1.000  O
  C52      1.0000 0.22331  0.70191  0.66789  Biso   1.000  C
  H84      1.0000 0.21012  0.60741  0.61200  Biso   1.000  H
  C53      1.0000 0.16287  0.55381  0.71389  Biso   1.000  C
  O33      1.0000 0.21537  0.75651  0.62040  Biso   1.000  O
  C54      1.0000 0.13393  0.69741  0.70081  Biso   1.000  C
  H85      1.0000 0.26872  0.72040  0.69498  Biso   1.000  H
  O34      1.0000 0.10053  0.53537  0.67052  Biso   1.000  O
  H86      1.0000 0.16412  0.51238  0.74348  Biso   1.000  H
  C55      1.0000 0.13531  0.63052  0.74190  Biso   1.000  C
  C56      1.0000 0.25087  0.83410  0.62439  Biso   1.000  C
  H87      1.0000 0.08649  0.69009  0.67240  Biso   1.000  H
  O35      1.0000 0.12153  0.77061  0.73109  Biso   1.000  O
  C57      1.0000 0.06608  0.45760  0.66649  Biso   1.000  C
  H88      1.0000 0.17567  0.64252  0.77398  Biso   1.000  H
  O36      1.0000 0.04981  0.61952  0.76532  Biso   1.000  O
  C58      1.0000 0.18650  0.89221  0.60539  Biso   1.000  C
  O37      1.0000 0.32942  0.83381  0.59222  Biso   1.000  O
  H89      1.0000 0.26531  0.84452  0.66548  Biso   1.000  H
  C59      1.0000 0.11247  0.40921  0.62019  Biso   1.000  C
  C60      1.0000 0.96621  0.46779  0.65568  Biso   1.000  C
  H90      1.0000 0.07409  0.43180  0.70448  Biso   1.000  H
  C61      1.0000 0.03721  0.63948  0.82401  Biso   1.000  C
  C62      1.0000 0.16471  0.87477  0.54180  Biso   1.000  C
  H91      1.0000 0.21012  0.94529  0.60951  Biso   1.000  H
  O38      1.0000 0.11070  0.88238  0.64102  Biso   1.000  O
  C63      1.0000 0.31439  0.81538  0.53112  Biso   1.000  C
  O39      1.0000 0.06562  0.33688  0.60981  Biso   1.000  O
  H92      1.0000 0.11287  0.43929  0.58360  Biso   1.000  H
  C64      1.0000 0.20520  0.38861  0.63498  Biso   1.000  C
  C65      1.0000 0.92860  0.39072  0.64251  Biso   1.000  C
  H93      1.0000 0.95833  0.50149  0.62141  Biso   1.000  H
  O40      1.0000 0.92480  0.50600  0.70632  Biso   1.000  O
  H94      1.0000 0.05007  0.69401  0.82939  Biso   1.000  H
  H95      1.0000 0.07540  0.60870  0.84808  Biso   1.000  H
  H96      1.0000 0.97730  0.62959  0.83469  Biso   1.000  H
  C66      1.0000 0.24752  0.87062  0.50481  Biso   1.000  C
  H97      1.0000 0.13393  0.82462  0.53961  Biso   1.000  H
  O41      1.0000 0.10749  0.93622  0.51978  Biso   1.000  O
  C67      1.0000 0.05880  0.95161  0.64579  Biso   1.000  C
  H98      1.0000 0.28919  0.76271  0.52959  Biso   1.000  H
  C68      1.0000 0.40823  0.81052  0.50398  Biso   1.000  C
  C69      1.0000 0.97447  0.34853  0.59279  Biso   1.000  C
  H99      1.0000 0.23637  0.43449  0.64898  Biso   1.000  H
  H100     1.0000 0.20671  0.34888  0.66531  Biso   1.000  H
  O42      1.0000 0.24569  0.35918  0.58150  Biso   1.000  O
  H101     1.0000 0.92939  0.35801  0.67770  Biso   1.000  H
  O43      1.0000 0.83988  0.40190  0.62329  Biso   1.000  O
  O44      1.0000 0.21773  0.83639  0.45129  Biso   1.000  O
  H102     1.0000 0.27252  0.92270  0.49821  Biso   1.000  H
  H103     1.0000 0.00879  0.94142  0.67021  Biso   1.000  H
  H104     1.0000 0.03931  0.96729  0.60758  Biso   1.000  H
  H105     1.0000 0.09338  0.99269  0.66282  Biso   1.000  H
  H106     1.0000 0.44681  0.78021  0.52911  Biso   1.000  H
  H107     1.0000 0.40619  0.78600  0.46582  Biso   1.000  H
  O45      1.0000 0.43769  0.88741  0.49961  Biso   1.000  O
  O46      1.0000 0.96988  0.39359  0.54241  Biso   1.000  O
  H108     1.0000 0.94639  0.29768  0.58600  Biso   1.000  H
  C70      1.0000 0.33250  0.35672  0.58381  Biso   1.000  C
  C71      1.0000 0.78109  0.36468  0.64912  Biso   1.000  C
  C72      1.0000 0.25218  0.86488  0.39789  Biso   1.000  C
  C73      1.0000 0.53599  0.88741  0.48950  Biso   1.000  C
  C74      1.0000 0.94737  0.35403  0.48840  Biso   1.000  C
  H109     1.0000 0.35488  0.33688  0.54740  Biso   1.000  H
  H110     1.0000 0.35042  0.32290  0.61511  Biso   1.000  H
  H111     1.0000 0.35501  0.40827  0.59038  Biso   1.000  H
  H112     1.0000 0.72518  0.37732  0.63222  Biso   1.000  H
  H113     1.0000 0.78102  0.37849  0.68982  Biso   1.000  H
  H114     1.0000 0.79178  0.30961  0.64509  Biso   1.000  H
  C75      1.0000 0.17567  0.88589  0.35959  Biso   1.000  C
  O47      1.0000 0.30087  0.80561  0.37019  Biso   1.000  O
  H115     1.0000 0.28913  0.91088  0.40489  Biso   1.000  H
  H116     1.0000 0.55660  0.94031  0.48639  Biso   1.000  H
  H117     1.0000 0.54912  0.85979  0.45400  Biso   1.000  H
  H118     1.0000 0.56467  0.86202  0.52180  Biso   1.000  H
  C76      1.0000 0.02841  0.34449  0.45199  Biso   1.000  C
  C77      1.0000 0.87762  0.40822  0.46061  Biso   1.000  C
  H119     1.0000 0.92178  0.30271  0.49698  Biso   1.000  H
  C78      1.0000 0.11891  0.81590  0.34449  Biso   1.000  C
  H120     1.0000 0.19831  0.90848  0.32309  Biso   1.000  H
  O48      1.0000 0.12501  0.94552  0.39001  Biso   1.000  O
  C79      1.0000 0.25461  0.73228  0.36209  Biso   1.000  C
  O49      1.0000 0.01011  0.32939  0.39128  Biso   1.000  O
  H121     1.0000 0.06129  0.39370  0.45409  Biso   1.000  H
  C80      1.0000 0.08760  0.28047  0.47391  Biso   1.000  C
  C81      1.0000 0.86541  0.38141  0.39758  Biso   1.000  C
  H122     1.0000 0.89921  0.46223  0.46092  Biso   1.000  H
  O50      1.0000 0.79848  0.40383  0.49348  Biso   1.000  O
  C82      1.0000 0.17383  0.74890  0.32541  Biso   1.000  C
  H123     1.0000 0.08872  0.79999  0.38038  Biso   1.000  H
  O51      1.0000 0.05328  0.83241  0.30191  Biso   1.000  O
  C83      1.0000 0.08938  0.00252  0.35920  Biso   1.000  C
  H124     1.0000 0.23479  0.71432  0.40069  Biso   1.000  H
  C84      1.0000 0.31872  0.67359  0.33911  Biso   1.000  C
  C85      1.0000 0.95269  0.38200  0.36642  Biso   1.000  C
  H125     1.0000 0.13472  0.27158  0.44621  Biso   1.000  H
  H126     1.0000 0.11339  0.29569  0.51099  Biso   1.000  H
  O52      1.0000 0.03740  0.21078  0.48118  Biso   1.000  O
  H127     1.0000 0.84238  0.32787  0.39772  Biso   1.000  H
  O53      1.0000 0.80379  0.43110  0.36949  Biso   1.000  O
  O54      1.0000 0.11950  0.67968  0.32629  Biso   1.000  O
  H128     1.0000 0.19253  0.75832  0.28501  Biso   1.000  H
  H129     1.0000 0.04948  0.98081  0.33101  Biso   1.000  H
  H130     1.0000 0.05821  0.03722  0.38489  Biso   1.000  H
  H131     1.0000 0.13472  0.03107  0.33920  Biso   1.000  H
  H132     1.0000 0.37338  0.67880  0.36051  Biso   1.000  H
  H133     1.0000 0.29602  0.62151  0.34651  Biso   1.000  H
  O55      1.0000 0.33657  0.68091  0.27810  Biso   1.000  O
  O56      1.0000 0.98609  0.45889  0.37001  Biso   1.000  O
  H134     1.0000 0.94370  0.36831  0.32519  Biso   1.000  H
  C86      1.0000 0.08039  0.14811  0.51300  Biso   1.000  C
  C87      1.0000 0.74723  0.39400  0.32878  Biso   1.000  C
  C88      1.0000 0.11221  0.63491  0.27679  Biso   1.000  C
  C89      1.0000 0.40390  0.73948  0.26471  Biso   1.000  C
  C90      1.0000 0.02172  0.49611  0.31858  Biso   1.000  C
  H135     1.0000 0.04160  0.10393  0.51549  Biso   1.000  H
  H136     1.0000 0.09502  0.16572  0.55160  Biso   1.000  H
  H137     1.0000 0.13301  0.13313  0.49278  Biso   1.000  H
  H138     1.0000 0.70812  0.43197  0.31219  Biso   1.000  H
  H139     1.0000 0.71370  0.35432  0.34852  Biso   1.000  H
  H140     1.0000 0.78148  0.37041  0.29832  Biso   1.000  H
  O57      1.0000 0.15592  0.56217  0.28331  Biso   1.000  O
  C91      1.0000 0.01641  0.62093  0.26020  Biso   1.000  C
  H141     1.0000 0.14030  0.66329  0.24449  Biso   1.000  H
  H142     1.0000 0.41289  0.74171  0.22321  Biso   1.000  H
  H143     1.0000 0.45777  0.72532  0.28370  Biso   1.000  H
  H144     1.0000 0.38500  0.78981  0.27858  Biso   1.000  H
  C92      1.0000 0.12101  0.51530  0.33071  Biso   1.000  C
  H145     1.0000 0.01641  0.46129  0.28471  Biso   1.000  H
  C93      1.0000 0.97047  0.57002  0.30860  Biso   1.000  C
  H146     1.0000 0.01293  0.59448  0.22221  Biso   1.000  H
  O58      1.0000 0.97500  0.69700  0.25692  Biso   1.000  O
  C94      1.0000 0.17390  0.44227  0.33552  Biso   1.000  C
  H147     1.0000 0.12573  0.54468  0.36738  Biso   1.000  H
  H148     1.0000 0.96857  0.59992  0.34511  Biso   1.000  H
  O59      1.0000 0.88392  0.55252  0.29119  Biso   1.000  O
  C95      1.0000 0.91778  0.70548  0.20868  Biso   1.000  C
  H149     1.0000 0.14522  0.40669  0.36239  Biso   1.000  H
  H150     1.0000 0.17619  0.41711  0.29740  Biso   1.000  H
  O60      1.0000 0.26137  0.45673  0.35530  Biso   1.000  O
  H151     1.0000 0.89258  0.75698  0.20912  Biso   1.000  H
  H152     1.0000 0.87178  0.66721  0.21118  Biso   1.000  H
  H153     1.0000 0.95000  0.69811  0.17301  Biso   1.000  H
  C96      1.0000 0.26767  0.45842  0.41689  Biso   1.000  C
  H154     1.0000 0.32738  0.46820  0.42809  Biso   1.000  H
  H155     1.0000 0.24910  0.40898  0.43251  Biso   1.000  H
  H156     1.0000 0.23079  0.49921  0.43199  Biso   1.000  H
  C97      1.0000 0.58219  0.29452  0.70868  Biso   1.000  C
  H157     1.0000 0.60739  0.24302  0.70912  Biso   1.000  H
  H158     1.0000 0.62819  0.33279  0.71118  Biso   1.000  H
  H159     1.0000 0.54997  0.30189  0.67301  Biso   1.000  H
  O61      1.0000 0.52497  0.30300  0.75692  Biso   1.000  O
  C98      1.0000 0.48363  0.37907  0.76020  Biso   1.000  C
  C99      1.0000 0.38782  0.36509  0.77679  Biso   1.000  C
  H160     1.0000 0.48711  0.40552  0.72221  Biso   1.000  H
  C100     1.0000 0.52950  0.42998  0.80860  Biso   1.000  C
  H161     1.0000 0.35967  0.33671  0.74449  Biso   1.000  H
  O62      1.0000 0.34412  0.43783  0.78331  Biso   1.000  O
  O63      1.0000 0.38047  0.32032  0.82629  Biso   1.000  O
  H162     1.0000 0.53140  0.40008  0.84511  Biso   1.000  H
  C101     1.0000 0.47831  0.50389  0.81858  Biso   1.000  C
  O64      1.0000 0.61612  0.44748  0.79119  Biso   1.000  O
  C102     1.0000 0.37903  0.48470  0.83071  Biso   1.000  C
  C103     1.0000 0.32620  0.25110  0.82541  Biso   1.000  C
  H163     1.0000 0.48363  0.53871  0.78471  Biso   1.000  H
  O65      1.0000 0.51388  0.54111  0.87001  Biso   1.000  O
  H164     1.0000 0.37430  0.45532  0.86738  Biso   1.000  H
  C104     1.0000 0.32607  0.55773  0.83552  Biso   1.000  C
  C105     1.0000 0.38113  0.18410  0.84449  Biso   1.000  C
  H165     1.0000 0.30750  0.24168  0.78501  Biso   1.000  H
  C106     1.0000 0.24542  0.26772  0.86209  Biso   1.000  C
  C107     1.0000 0.54728  0.61800  0.86642  Biso   1.000  C
  H166     1.0000 0.35481  0.59331  0.86239  Biso   1.000  H
  H167     1.0000 0.32377  0.58289  0.79740  Biso   1.000  H
  O66      1.0000 0.23860  0.54327  0.85530  Biso   1.000  O
  C108     1.0000 0.32430  0.11411  0.85959  Biso   1.000  C
  H168     1.0000 0.41131  0.20001  0.88038  Biso   1.000  H
  O67      1.0000 0.44668  0.16759  0.80191  Biso   1.000  O
  H169     1.0000 0.26517  0.28568  0.90069  Biso   1.000  H
  C109     1.0000 0.18131  0.32641  0.83911  Biso   1.000  C
  O68      1.0000 0.19909  0.19439  0.87019  Biso   1.000  O
  H170     1.0000 0.55627  0.63169  0.82519  Biso   1.000  H
  C110     1.0000 0.63462  0.61859  0.89758  Biso   1.000  C
  O69      1.0000 0.48993  0.67061  0.89128  Biso   1.000  O
  C111     1.0000 0.23230  0.54158  0.91689  Biso   1.000  C
  C112     1.0000 0.24779  0.13512  0.89789  Biso   1.000  C
  H171     1.0000 0.30173  0.09152  0.82309  Biso   1.000  H
  O70      1.0000 0.37502  0.05448  0.89001  Biso   1.000  O
  H172     1.0000 0.12658  0.32120  0.86051  Biso   1.000  H
  H173     1.0000 0.20402  0.37849  0.84651  Biso   1.000  H
  O71      1.0000 0.16340  0.31909  0.77810  Biso   1.000  O
  H174     1.0000 0.65759  0.67213  0.89772  Biso   1.000  H
  C113     1.0000 0.62242  0.59178  0.96061  Biso   1.000  C
  O72      1.0000 0.69617  0.56890  0.86949  Biso   1.000  O
  C114     1.0000 0.47162  0.65551  0.95199  Biso   1.000  C
  H175     1.0000 0.17258  0.53180  0.92809  Biso   1.000  H
  H176     1.0000 0.25087  0.59102  0.93251  Biso   1.000  H
  H177     1.0000 0.26918  0.50079  0.93199  Biso   1.000  H
  O73      1.0000 0.28230  0.16361  0.95129  Biso   1.000  O
  H178     1.0000 0.21091  0.08912  0.90489  Biso   1.000  H
  C115     1.0000 0.41059  0.99748  0.85920  Biso   1.000  C
  C116     1.0000 0.09607  0.26052  0.76471  Biso   1.000  C
  H179     1.0000 0.60083  0.53777  0.96092  Biso   1.000  H
  C117     1.0000 0.55260  0.64597  0.98840  Biso   1.000  C
  O74      1.0000 0.70149  0.59617  0.99348  Biso   1.000  O
  C118     1.0000 0.75281  0.60600  0.82878  Biso   1.000  C
  H180     1.0000 0.43868  0.60630  0.95409  Biso   1.000  H
  C119     1.0000 0.41243  0.71953  0.97391  Biso   1.000  C
  C120     1.0000 0.25251  0.12938  0.00481  Biso   1.000  C
  H181     1.0000 0.45049  0.01919  0.83101  Biso   1.000  H
  H182     1.0000 0.44183  0.96278  0.88489  Biso   1.000  H
  H183     1.0000 0.36531  0.96893  0.83920  Biso   1.000  H
  H184     1.0000 0.08708  0.25829  0.72321  Biso   1.000  H
  H185     1.0000 0.04219  0.27468  0.78370  Biso   1.000  H
  H186     1.0000 0.11497  0.21019  0.77858  Biso   1.000  H
  H187     1.0000 0.57819  0.69729  0.99698  Biso   1.000  H
  O75      1.0000 0.53009  0.60641  0.04241  Biso   1.000  O
  H188     1.0000 0.79192  0.56803  0.81219  Biso   1.000  H
  H189     1.0000 0.78627  0.64568  0.84852  Biso   1.000  H
  H190     1.0000 0.71849  0.62959  0.79832  Biso   1.000  H
  H191     1.0000 0.36531  0.72842  0.94621  Biso   1.000  H
  O76      1.0000 0.46263  0.78922  0.98118  Biso   1.000  O
  H192     1.0000 0.38657  0.70431  0.01099  Biso   1.000  H
  H193     1.0000 0.22751  0.07730  0.99821  Biso   1.000  H
  C121     1.0000 0.33532  0.12523  0.04180  Biso   1.000  C
  C122     1.0000 0.18558  0.18462  0.03112  Biso   1.000  C
  C123     1.0000 0.52549  0.65147  0.09279  Biso   1.000  C
  C124     1.0000 0.41958  0.85189  0.01300  Biso   1.000  C
  C125     1.0000 0.31347  0.10779  0.10539  Biso   1.000  C
  H194     1.0000 0.36610  0.17538  0.03961  Biso   1.000  H
  O77      1.0000 0.39248  0.06378  0.01978  Biso   1.000  O
  H195     1.0000 0.21077  0.23729  0.02959  Biso   1.000  H
  C126     1.0000 0.09180  0.18948  0.00398  Biso   1.000  C
  O78      1.0000 0.17061  0.16619  0.09222  Biso   1.000  O
  H196     1.0000 0.55358  0.70232  0.08600  Biso   1.000  H
  C127     1.0000 0.57143  0.60928  0.14251  Biso   1.000  C
  O79      1.0000 0.43441  0.66312  0.10981  Biso   1.000  O
  H197     1.0000 0.36702  0.86687  0.99278  Biso   1.000  H
  H198     1.0000 0.45843  0.89607  0.01549  Biso   1.000  H
  H199     1.0000 0.40501  0.83428  0.05160  Biso   1.000  H
  C128     1.0000 0.24910  0.16590  0.12439  Biso   1.000  C
  H200     1.0000 0.28991  0.05471  0.10951  Biso   1.000  H
  O80      1.0000 0.38933  0.11762  0.14102  Biso   1.000  O
  H201     1.0000 0.09377  0.21400  0.96582  Biso   1.000  H
  O81      1.0000 0.06227  0.11259  0.99961  Biso   1.000  O
  H202     1.0000 0.05322  0.21979  0.02911  Biso   1.000  H
  H203     1.0000 0.57058  0.64199  0.17770  Biso   1.000  H
  C129     1.0000 0.53383  0.53221  0.15568  Biso   1.000  C
  O82      1.0000 0.66008  0.59810  0.12329  Biso   1.000  O
  C130     1.0000 0.38749  0.59079  0.12019  Biso   1.000  C
  H204     1.0000 0.23473  0.15548  0.16548  Biso   1.000  H
  O83      1.0000 0.28460  0.24349  0.12040  Biso   1.000  O
  C131     1.0000 0.44117  0.04839  0.14579  Biso   1.000  C
  C132     1.0000 0.96397  0.11259  0.98950  Biso   1.000  C
  H205     1.0000 0.54170  0.49851  0.12141  Biso   1.000  H
  C133     1.0000 0.43389  0.54240  0.16649  Biso   1.000  C
  O84      1.0000 0.57517  0.49400  0.20632  Biso   1.000  O
  C134     1.0000 0.71888  0.63532  0.14912  Biso   1.000  C
  H206     1.0000 0.38710  0.56071  0.08360  Biso   1.000  H
  C135     1.0000 0.29477  0.61139  0.13498  Biso   1.000  C
  C136     1.0000 0.27672  0.29809  0.16789  Biso   1.000  C
  H207     1.0000 0.49117  0.05858  0.17021  Biso   1.000  H
  H208     1.0000 0.46073  0.03271  0.10758  Biso   1.000  H
  H209     1.0000 0.40659  0.00731  0.16282  Biso   1.000  H
  H210     1.0000 0.94337  0.05969  0.98639  Biso   1.000  H
  H211     1.0000 0.95092  0.14021  0.95400  Biso   1.000  H
  H212     1.0000 0.93530  0.13798  0.02180  Biso   1.000  H
  H213     1.0000 0.42588  0.56820  0.20448  Biso   1.000  H
  O85      1.0000 0.39950  0.46463  0.17052  Biso   1.000  O
  H214     1.0000 0.77479  0.62268  0.13222  Biso   1.000  H
  H215     1.0000 0.71901  0.62151  0.18982  Biso   1.000  H
  H216     1.0000 0.70818  0.69039  0.14509  Biso   1.000  H
  H217     1.0000 0.26360  0.56551  0.14898  Biso   1.000  H
  H218     1.0000 0.29333  0.65112  0.16531  Biso   1.000  H
  O86      1.0000 0.25428  0.64082  0.08150  Biso   1.000  O
  C137     1.0000 0.36610  0.30259  0.20081  Biso   1.000  C
  H219     1.0000 0.23131  0.27960  0.19498  Biso   1.000  H
  C138     1.0000 0.24929  0.37749  0.14329  Biso   1.000  C
  C139     1.0000 0.33710  0.44619  0.21389  Biso   1.000  C
  C140     1.0000 0.16753  0.64328  0.08381  Biso   1.000  C
  C141     1.0000 0.36472  0.36948  0.24190  Biso   1.000  C
  H220     1.0000 0.41348  0.30991  0.17240  Biso   1.000  H
  O87      1.0000 0.37850  0.22939  0.23109  Biso   1.000  O
  H221     1.0000 0.28991  0.39259  0.11200  Biso   1.000  H
  C142     1.0000 0.15618  0.37597  0.11931  Biso   1.000  C
  O88      1.0000 0.25133  0.43660  0.18929  Biso   1.000  O
  H222     1.0000 0.33591  0.48762  0.24348  Biso   1.000  H
  H223     1.0000 0.14509  0.66312  0.04740  Biso   1.000  H
  H224     1.0000 0.14962  0.67710  0.11511  Biso   1.000  H
  H225     1.0000 0.14502  0.59173  0.09038  Biso   1.000  H
  H226     1.0000 0.32430  0.35748  0.27398  Biso   1.000  H
  O89      1.0000 0.45023  0.38048  0.26532  Biso   1.000  O
  H227     1.0000 0.14607  0.32758  0.09821  Biso   1.000  H
  H228     1.0000 0.11438  0.37902  0.15122  Biso   1.000  H
  O90      1.0000 0.14489  0.43982  0.08171  Biso   1.000  O
  C143     1.0000 0.46283  0.36052  0.32401  Biso   1.000  C
  C144     1.0000 0.11267  0.41951  0.03471  Biso   1.000  C
  H229     1.0000 0.52267  0.37041  0.33469  Biso   1.000  H
  H230     1.0000 0.44990  0.30599  0.32939  Biso   1.000  H
  H231     1.0000 0.42457  0.39130  0.34808  Biso   1.000  H
  H232     1.0000 0.10572  0.46439  0.00989  Biso   1.000  H
  H233     1.0000 0.05637  0.39593  0.04149  Biso   1.000  H
  H234     1.0000 0.15073  0.38229  0.01602  Biso   1.000  H
  C145     1.0000 0.59610  0.23951  0.23529  Biso   1.000  C
  H235     1.0000 0.58711  0.24168  0.27679  Biso   1.000  H
  H236     1.0000 0.54223  0.22529  0.21630  Biso   1.000  H
  H237     1.0000 0.61500  0.28978  0.22142  Biso   1.000  H
  O91      1.0000 0.66343  0.18088  0.22190  Biso   1.000  O
  C146     1.0000 0.68128  0.17362  0.16089  Biso   1.000  C
  C147     1.0000 0.74539  0.23231  0.13791  Biso   1.000  C
  H238     1.0000 0.62662  0.17883  0.13949  Biso   1.000  H
  H239     1.0000 0.70398  0.12148  0.15349  Biso   1.000  H
  C148     1.0000 0.82617  0.24887  0.17459  Biso   1.000  C
  H240     1.0000 0.76521  0.21429  0.09931  Biso   1.000  H
  O92      1.0000 0.69913  0.30558  0.12981  Biso   1.000  O
  C149     1.0000 0.88109  0.31588  0.15551  Biso   1.000  C
  H241     1.0000 0.80747  0.25829  0.21499  Biso   1.000  H
  O93      1.0000 0.88050  0.17971  0.17371  Biso   1.000  O
  C150     1.0000 0.74782  0.36491  0.10211  Biso   1.000  C
  C151     1.0000 0.82433  0.38592  0.14041  Biso   1.000  C
  H242     1.0000 0.91128  0.30002  0.11962  Biso   1.000  H
  O94      1.0000 0.94672  0.33238  0.19809  Biso   1.000  O
  C152     1.0000 0.88779  0.13488  0.22321  Biso   1.000  C
  O95      1.0000 0.78227  0.33642  0.04871  Biso   1.000  O
  H243     1.0000 0.71087  0.41091  0.09511  Biso   1.000  H
  H244     1.0000 0.80169  0.40851  0.17691  Biso   1.000  H
  O96      1.0000 0.87499  0.44549  0.10999  Biso   1.000  O
  H245     1.0000 0.85970  0.16332  0.25551  Biso   1.000  H
  C153     1.0000 0.98359  0.12090  0.23980  Biso   1.000  C
  O97      1.0000 0.84408  0.06220  0.21669  Biso   1.000  O
  C154     1.0000 0.75248  0.37059  0.99519  Biso   1.000  C
  C155     1.0000 0.91062  0.50249  0.14080  Biso   1.000  C
  H246     1.0000 0.98707  0.09451  0.27779  Biso   1.000  H
  C156     1.0000 0.02953  0.06999  0.19140  Biso   1.000  C
  O98      1.0000 0.02500  0.19703  0.24308  Biso   1.000  O
  C157     1.0000 0.87899  0.01527  0.16929  Biso   1.000  C
  H247     1.0000 0.72748  0.42273  0.00179  Biso   1.000  H
  C158     1.0000 0.83529  0.37480  0.95820  Biso   1.000  C
  C159     1.0000 0.68561  0.31541  0.96888  Biso   1.000  C
  H248     1.0000 0.94179  0.53719  0.11511  Biso   1.000  H
  H249     1.0000 0.95052  0.48078  0.16899  Biso   1.000  H
  H250     1.0000 0.86528  0.53110  0.16080  Biso   1.000  H
  C160     1.0000 0.97828  0.99608  0.18142  Biso   1.000  C
  H251     1.0000 0.03143  0.09989  0.15489  Biso   1.000  H
  O99      1.0000 0.11608  0.05249  0.20881  Biso   1.000  O
  C161     1.0000 0.08222  0.20551  0.29132  Biso   1.000  C
  H252     1.0000 0.87427  0.04471  0.13262  Biso   1.000  H
  C162     1.0000 0.82610  0.94230  0.16448  Biso   1.000  C
  C163     1.0000 0.81350  0.39218  0.89461  Biso   1.000  C
  H253     1.0000 0.86607  0.32459  0.96039  Biso   1.000  H
  O100     1.0000 0.89251  0.43619  0.98022  Biso   1.000  O
  H254     1.0000 0.71081  0.26268  0.97041  Biso   1.000  H
  C164     1.0000 0.59177  0.31049  0.99602  Biso   1.000  C
  O101     1.0000 0.67058  0.33378  0.90778  Biso   1.000  O
  H255     1.0000 0.98359  0.96132  0.21529  Biso   1.000  H
  O102     1.0000 0.01391  0.95892  0.12999  Biso   1.000  O
  H256     1.0000 0.10742  0.25701  0.29088  Biso   1.000  H
  H257     1.0000 0.12822  0.16718  0.28882  Biso   1.000  H
  H258     1.0000 0.05000  0.19808  0.32699  Biso   1.000  H
  H259     1.0000 0.85478  0.90672  0.13761  Biso   1.000  H
  H260     1.0000 0.82381  0.91708  0.20260  Biso   1.000  H
  O103     1.0000 0.73863  0.95670  0.14470  Biso   1.000  O
  C165     1.0000 0.74913  0.33407  0.87561  Biso   1.000  C
  H261     1.0000 0.78988  0.44532  0.89049  Biso   1.000  H
  O104     1.0000 0.88930  0.38241  0.85898  Biso   1.000  O
  H262     1.0000 0.59381  0.28597  0.03418  Biso   1.000  H
  O105     1.0000 0.56231  0.38738  0.00039  Biso   1.000  O
  H263     1.0000 0.55319  0.28018  0.97089  Biso   1.000  H
  C166     1.0000 0.04731  0.88197  0.13358  Biso   1.000  C
  C167     1.0000 0.73233  0.95839  0.08311  Biso   1.000  C
  H264     1.0000 0.73469  0.34449  0.83452  Biso   1.000  H
  O106     1.0000 0.78463  0.25648  0.87960  Biso   1.000  O
  C168     1.0000 0.94120  0.45158  0.85421  Biso   1.000  C
  C169     1.0000 0.46401  0.38738  0.01050  Biso   1.000  C
  O107     1.0000 0.98989  0.82942  0.10872  Biso   1.000  O
  H265     1.0000 0.05630  0.86828  0.17481  Biso   1.000  H
  C170     1.0000 0.13459  0.88139  0.10242  Biso   1.000  C
  H266     1.0000 0.67262  0.96823  0.07191  Biso   1.000  H
  H267     1.0000 0.75090  0.90901  0.06749  Biso   1.000  H
  H268     1.0000 0.76921  0.99918  0.06801  Biso   1.000  H
  C171     1.0000 0.77669  0.20188  0.83211  Biso   1.000  C
  H269     1.0000 0.99121  0.44140  0.82979  Biso   1.000  H
  H270     1.0000 0.96069  0.46732  0.89242  Biso   1.000  H
  H271     1.0000 0.90662  0.49271  0.83718  Biso   1.000  H
  H272     1.0000 0.44340  0.44028  0.01361  Biso   1.000  H
  H273     1.0000 0.45088  0.35982  0.04600  Biso   1.000  H
  H274     1.0000 0.43533  0.36199  0.97820  Biso   1.000  H
  C172     1.0000 0.97159  0.84452  0.04801  Biso   1.000  C
  H275     1.0000 0.15762  0.82790  0.10228  Biso   1.000  H
  C173     1.0000 0.12238  0.90819  0.03939  Biso   1.000  C
  O108     1.0000 0.19621  0.93113  0.13051  Biso   1.000  O
  C174     1.0000 0.86607  0.19738  0.79919  Biso   1.000  C
  H276     1.0000 0.73128  0.22038  0.80502  Biso   1.000  H
  C175     1.0000 0.74933  0.12248  0.85671  Biso   1.000  C
  H277     1.0000 0.93871  0.89367  0.04591  Biso   1.000  H
  C176     1.0000 0.91240  0.78050  0.02609  Biso   1.000  C
  C177     1.0000 0.05263  0.85400  0.01160  Biso   1.000  C
  H278     1.0000 0.10079  0.96220  0.03908  Biso   1.000  H
  O109     1.0000 0.20152  0.90380  0.00652  Biso   1.000  O
  C178     1.0000 0.25277  0.89403  0.17122  Biso   1.000  C
  C179     1.0000 0.86469  0.13049  0.75810  Biso   1.000  C
  H279     1.0000 0.91351  0.19012  0.82760  Biso   1.000  H
  O110     1.0000 0.87847  0.27058  0.76891  Biso   1.000  O
  H280     1.0000 0.78988  0.10738  0.88800  Biso   1.000  H
  C180     1.0000 0.65621  0.12400  0.88069  Biso   1.000  C
  O111     1.0000 0.75130  0.06337  0.81071  Biso   1.000  O
  H281     1.0000 0.88661  0.79572  0.98901  Biso   1.000  H
  H282     1.0000 0.86528  0.77161  0.05379  Biso   1.000  H
  O112     1.0000 0.96260  0.71081  0.01882  Biso   1.000  O
  O113     1.0000 0.03012  0.89362  0.95759  Biso   1.000  O
  H283     1.0000 0.07822  0.80268  0.00302  Biso   1.000  H
  H284     1.0000 0.29188  0.93200  0.18781  Biso   1.000  H
  H285     1.0000 0.28630  0.85429  0.15148  Biso   1.000  H
  H286     1.0000 0.21852  0.87038  0.20168  Biso   1.000  H
  C181     1.0000 0.83713  0.05378  0.78611  Biso   1.000  C
  H287     1.0000 0.82433  0.14249  0.72602  Biso   1.000  H
  O114     1.0000 0.95019  0.11949  0.73468  Biso   1.000  O
  H288     1.0000 0.64611  0.17239  0.90179  Biso   1.000  H
  H289     1.0000 0.61441  0.12101  0.84878  Biso   1.000  H
  O115     1.0000 0.64492  0.06021  0.91829  Biso   1.000  O
  C182     1.0000 0.91961  0.64808  0.98700  Biso   1.000  C
  C183     1.0000 0.02553  0.84850  0.90721  Biso   1.000  C
  H290     1.0000 0.83588  0.01241  0.75652  Biso   1.000  H
  O116     1.0000 0.89947  0.03540  0.82948  Biso   1.000  O
  C184     1.0000 0.96279  0.13950  0.67599  Biso   1.000  C
  C185     1.0000 0.61270  0.08052  0.96529  Biso   1.000  C
  H291     1.0000 0.95840  0.60390  0.98451  Biso   1.000  H
  H292     1.0000 0.90498  0.66569  0.94840  Biso   1.000  H
  H293     1.0000 0.86699  0.63310  0.00722  Biso   1.000  H
  O117     1.0000 0.93438  0.83691  0.89019  Biso   1.000  O
  H294     1.0000 0.05361  0.79771  0.91400  Biso   1.000  H
  C186     1.0000 0.07140  0.89069  0.85749  Biso   1.000  C
  C187     1.0000 0.93392  0.95758  0.83351  Biso   1.000  C
  H295     1.0000 0.94993  0.19398  0.67061  Biso   1.000  H
  H296     1.0000 0.92460  0.10872  0.65192  Biso   1.000  H
  H297     1.0000 0.02270  0.12962  0.66531  Biso   1.000  H
  H298     1.0000 0.60568  0.03558  0.99011  Biso   1.000  H
  H299     1.0000 0.55640  0.10410  0.95851  Biso   1.000  H
  H300     1.0000 0.65070  0.11768  0.98398  Biso   1.000  H
  C188     1.0000 0.88753  0.90918  0.87981  Biso   1.000  C
  H301     1.0000 0.07061  0.85798  0.82230  Biso   1.000  H
  C189     1.0000 0.03379  0.96782  0.84432  Biso   1.000  C
  O118     1.0000 0.16012  0.90193  0.87671  Biso   1.000  O
  H302     1.0000 0.92591  0.93183  0.79552  Biso   1.000  H
  H303     1.0000 0.88713  0.93932  0.91640  Biso   1.000  H
  C190     1.0000 0.79480  0.88858  0.86502  Biso   1.000  C
  H304     1.0000 0.04167  0.00152  0.87859  Biso   1.000  H
  O119     1.0000 0.07520  0.00603  0.79368  Biso   1.000  O
  C191     1.0000 0.21891  0.86471  0.85088  Biso   1.000  C
  H305     1.0000 0.76363  0.93452  0.85102  Biso   1.000  H
  H306     1.0000 0.79329  0.84891  0.83469  Biso   1.000  H
  O120     1.0000 0.75431  0.85921  0.91850  Biso   1.000  O
  H307     1.0000 0.27482  0.87729  0.86778  Biso   1.000  H
  H308     1.0000 0.21898  0.87852  0.81018  Biso   1.000  H
  H309     1.0000 0.20822  0.80959  0.85491  Biso   1.000  H
  C192     1.0000 0.66750  0.85669  0.91619  Biso   1.000  C
  H310     1.0000 0.64512  0.83691  0.95260  Biso   1.000  H
  H311     1.0000 0.64958  0.82293  0.88489  Biso   1.000  H
  H312     1.0000 0.64499  0.90830  0.90962  Biso   1.000  H
