data_image0
_cell_length_a       11.885
_cell_length_b       12.103
_cell_length_c       21.045
_cell_angle_alpha    82.41
_cell_angle_beta     76.79
_cell_angle_gamma    60.59

_symmetry_space_group_name_H-M    "P 1"
_symmetry_int_tables_number       1

loop_
  _symmetry_equiv_pos_as_xyz
  'x, y, z'

loop_
  _atom_site_label
  _atom_site_occupancy
  _atom_site_fract_x
  _atom_site_fract_y
  _atom_site_fract_z
  _atom_site_thermal_displace_type
  _atom_site_B_iso_or_equiv
  _atom_site_type_symbol
  C1       1.0000 0.60609  0.47744  0.59221  Biso   1.000  C
  C2       1.0000 0.73782  0.44145  0.59309  Biso   1.000  C
  C3       1.0000 0.50342  0.55288  0.64147  Biso   1.000  C
  H1       1.0000 0.60103  0.40007  0.59158  Biso   1.000  H
  H2       1.0000 0.58715  0.52190  0.55101  Biso   1.000  H
  C4       1.0000 0.84686  0.35384  0.54251  Biso   1.000  C
  C5       1.0000 0.76169  0.48469  0.64328  Biso   1.000  C
  O1       1.0000 0.37158  0.58881  0.64382  Biso   1.000  O
  C6       1.0000 0.52999  0.60006  0.69049  Biso   1.000  C
  C7       1.0000 0.89013  0.21750  0.56228  Biso   1.000  C
  H3       1.0000 0.92103  0.36997  0.53621  Biso   1.000  H
  H4       1.0000 0.81693  0.37108  0.50140  Biso   1.000  H
  O2       1.0000 0.89311  0.44819  0.64099  Biso   1.000  O
  C8       1.0000 0.66000  0.56433  0.68991  Biso   1.000  C
  C9       1.0000 0.34622  0.51764  0.60710  Biso   1.000  C
  C10      1.0000 0.41949  0.68319  0.74171  Biso   1.000  C
  C11      1.0000 0.83501  0.15039  0.54251  Biso   1.000  C
  C12      1.0000 0.97804  0.15516  0.60442  Biso   1.000  C
  C13      1.0000 0.92884  0.46322  0.69840  Biso   1.000  C
  H5       1.0000 0.67972  0.59484  0.72179  Biso   1.000  H
  H6       1.0000 0.39694  0.42898  0.61711  Biso   1.000  H
  H7       1.0000 0.25433  0.54163  0.61760  Biso   1.000  H
  H8       1.0000 0.37013  0.53357  0.56141  Biso   1.000  H
  H9       1.0000 0.44454  0.73744  0.75831  Biso   1.000  H
  H10      1.0000 0.34280  0.73719  0.72227  Biso   1.000  H
  C14      1.0000 0.38504  0.60696  0.79731  Biso   1.000  C
  O3       1.0000 0.74681  0.21726  0.50092  Biso   1.000  O
  C15      1.0000 0.87322  0.02789  0.56248  Biso   1.000  C
  C16      1.0000 0.01171  0.03184  0.62580  Biso   1.000  C
  H11      1.0000 0.01523  0.19730  0.61848  Biso   1.000  H
  H12      1.0000 0.88444  0.43637  0.73609  Biso   1.000  H
  H13      1.0000 0.90387  0.55087  0.70231  Biso   1.000  H
  H14      1.0000 0.02231  0.41261  0.69547  Biso   1.000  H
  C17      1.0000 0.28604  0.57466  0.79849  Biso   1.000  C
  C18      1.0000 0.45331  0.56087  0.84921  Biso   1.000  C
  C19      1.0000 0.68174  0.15794  0.48300  Biso   1.000  C
  H15      1.0000 0.83809  0.98377  0.54827  Biso   1.000  H
  C20      1.0000 0.96450  0.96615  0.60408  Biso   1.000  C
  O4       1.0000 0.09842  0.96817  0.66798  Biso   1.000  O
  H16      1.0000 0.23868  0.60399  0.76470  Biso   1.000  H
  C21      1.0000 0.25689  0.50060  0.84809  Biso   1.000  C
  O5       1.0000 0.54848  0.59589  0.84667  Biso   1.000  O
  C22      1.0000 0.42009  0.48864  0.90038  Biso   1.000  C
  H17      1.0000 0.63718  0.13351  0.52162  Biso   1.000  H
  H18      1.0000 0.61883  0.21613  0.45698  Biso   1.000  H
  H19      1.0000 0.74505  0.08404  0.45820  Biso   1.000  H
  C23      1.0000 0.99801  0.82993  0.62951  Biso   1.000  C
  C24      1.0000 0.12322  0.04292  0.70519  Biso   1.000  C
  O6       1.0000 0.16201  0.46506  0.85160  Biso   1.000  O
  C25      1.0000 0.32729  0.45702  0.89911  Biso   1.000  C
  C26      1.0000 0.63935  0.52739  0.88890  Biso   1.000  C
  H20      1.0000 0.46320  0.46228  0.93558  Biso   1.000  H
  C27      1.0000 0.91220  0.82766  0.69381  Biso   1.000  C
  H21      1.0000 0.98758  0.78633  0.59749  Biso   1.000  H
  H22      1.0000 0.08932  0.78437  0.63440  Biso   1.000  H
  H23      1.0000 0.16630  0.99145  0.73990  Biso   1.000  H
  H24      1.0000 0.17847  0.07378  0.67731  Biso   1.000  H
  H25      1.0000 0.04135  0.11342  0.72330  Biso   1.000  H
  C28      1.0000 0.11371  0.48208  0.79439  Biso   1.000  C
  C29      1.0000 0.30129  0.36915  0.95218  Biso   1.000  C
  H26      1.0000 0.59802  0.55583  0.93280  Biso   1.000  H
  H27      1.0000 0.66734  0.43849  0.88739  Biso   1.000  H
  H28      1.0000 0.71426  0.54129  0.87519  Biso   1.000  H
  C30      1.0000 0.80075  0.81683  0.69840  Biso   1.000  C
  C31      1.0000 0.94117  0.83960  0.75240  Biso   1.000  C
  H29      1.0000 0.05492  0.44708  0.80078  Biso   1.000  H
  H30      1.0000 0.06750  0.57105  0.78389  Biso   1.000  H
  H31      1.0000 0.18580  0.43986  0.75928  Biso   1.000  H
  C32      1.0000 0.39051  0.23149  0.93612  Biso   1.000  C
  H32      1.0000 0.21050  0.38749  0.95760  Biso   1.000  H
  H33      1.0000 0.31411  0.38520  0.99319  Biso   1.000  H
  O7       1.0000 0.77313  0.79332  0.64182  Biso   1.000  O
  C33      1.0000 0.71850  0.82093  0.75831  Biso   1.000  C
  C34      1.0000 0.86062  0.84476  0.81201  Biso   1.000  C
  H34      1.0000 0.01735  0.84440  0.75118  Biso   1.000  H
  C35      1.0000 0.36131  0.17283  0.89550  Biso   1.000  C
  C36      1.0000 0.51019  0.16405  0.95721  Biso   1.000  C
  C37      1.0000 0.65481  0.86289  0.62409  Biso   1.000  C
  C38      1.0000 0.74824  0.83447  0.81509  Biso   1.000  C
  H35      1.0000 0.64321  0.81442  0.75967  Biso   1.000  H
  O8       1.0000 0.88373  0.85591  0.87128  Biso   1.000  O
  C39      1.0000 0.44379  0.04952  0.87689  Biso   1.000  C
  H36      1.0000 0.28267  0.21829  0.88021  Biso   1.000  H
  C40      1.0000 0.59342  0.03906  0.94007  Biso   1.000  C
  O9       1.0000 0.53427  0.22922  0.99661  Biso   1.000  O
  H37      1.0000 0.58502  0.93086  0.64792  Biso   1.000  H
  C41      1.0000 0.64635  0.82188  0.56448  Biso   1.000  C
  C42      1.0000 0.65642  0.84250  0.88051  Biso   1.000  C
  C43      1.0000 0.00021  0.85865  0.87157  Biso   1.000  C
  C44      1.0000 0.56542  0.97928  0.89891  Biso   1.000  C
  O10      1.0000 0.42183  0.98555  0.83618  Biso   1.000  O
  H38      1.0000 0.67029  0.99362  0.95682  Biso   1.000  H
  C45      1.0000 0.65746  0.16977  0.01682  Biso   1.000  C
  H39      1.0000 0.59996  0.77268  0.57649  Biso   1.000  H
  H40      1.0000 0.59260  0.89686  0.54061  Biso   1.000  H
  C46      1.0000 0.76840  0.74716  0.52030  Biso   1.000  C
  H41      1.0000 0.70812  0.79800  0.91419  Biso   1.000  H
  H42      1.0000 0.60506  0.80194  0.87748  Biso   1.000  H
  H43      1.0000 0.99379  0.93921  0.85400  Biso   1.000  H
  H44      1.0000 0.07408  0.79147  0.84501  Biso   1.000  H
  C47      1.0000 0.02013  0.84017  0.94207  Biso   1.000  C
  C48      1.0000 0.35125  0.06216  0.78682  Biso   1.000  C
  H45      1.0000 0.72631  0.15517  0.97927  Biso   1.000  H
  H46      1.0000 0.65786  0.22373  0.04626  Biso   1.000  H
  H47      1.0000 0.67159  0.09035  0.03845  Biso   1.000  H
  H48      1.0000 0.80788  0.80175  0.50458  Biso   1.000  H
  H49      1.0000 0.82618  0.68024  0.54652  Biso   1.000  H
  C49      1.0000 0.77431  0.68497  0.46132  Biso   1.000  C
  H50      1.0000 0.95970  0.91832  0.96512  Biso   1.000  H
  C50      1.0000 0.99843  0.73122  0.97898  Biso   1.000  C
  H51      1.0000 0.10891  0.82280  0.94232  Biso   1.000  H
  H52      1.0000 0.25844  0.09753  0.80361  Biso   1.000  H
  H53      1.0000 0.37294  0.12944  0.77359  Biso   1.000  H
  H54      1.0000 0.37460  0.01101  0.74991  Biso   1.000  H
  Br1      1.0000 0.66161  0.80311  0.39985  Biso   1.000  Br
  H55      1.0000 0.86469  0.64326  0.43798  Biso   1.000  H
  H56      1.0000 0.74818  0.62010  0.47592  Biso   1.000  H
  H57      1.0000 0.90407  0.76370  0.99050  Biso   1.000  H
  H58      1.0000 0.03140  0.66560  0.94739  Biso   1.000  H
  C51      1.0000 0.05422  0.66233  0.04206  Biso   1.000  C
  Br2      1.0000 0.01201  0.79859  0.10543  Biso   1.000  Br
  H59      1.0000 0.01404  0.61001  0.06213  Biso   1.000  H
  H60      1.0000 0.14855  0.60821  0.03093  Biso   1.000  H
  C52      1.0000 0.39392  0.52244  0.40781  Biso   1.000  C
  C53      1.0000 0.26220  0.55843  0.40688  Biso   1.000  C
  C54      1.0000 0.49656  0.44710  0.35850  Biso   1.000  C
  H61      1.0000 0.39895  0.59991  0.40840  Biso   1.000  H
  H62      1.0000 0.41281  0.47808  0.44902  Biso   1.000  H
  C55      1.0000 0.23829  0.51529  0.35669  Biso   1.000  C
  C56      1.0000 0.15323  0.64604  0.45751  Biso   1.000  C
  C57      1.0000 0.46999  0.39992  0.30948  Biso   1.000  C
  O11      1.0000 0.62842  0.41107  0.35621  Biso   1.000  O
  O12      1.0000 0.10687  0.55179  0.35899  Biso   1.000  O
  C58      1.0000 0.34001  0.43555  0.31012  Biso   1.000  C
  C59      1.0000 0.10985  0.78248  0.43769  Biso   1.000  C
  H63      1.0000 0.07893  0.63001  0.46381  Biso   1.000  H
  H64      1.0000 0.18303  0.62890  0.49862  Biso   1.000  H
  C60      1.0000 0.58047  0.31679  0.25832  Biso   1.000  C
  C61      1.0000 0.65379  0.48224  0.39292  Biso   1.000  C
  C62      1.0000 0.07119  0.53667  0.30157  Biso   1.000  C
  H65      1.0000 0.32031  0.40504  0.27819  Biso   1.000  H
  C63      1.0000 0.16495  0.84959  0.45751  Biso   1.000  C
  C64      1.0000 0.02192  0.84482  0.39561  Biso   1.000  C
  H66      1.0000 0.55555  0.26244  0.24172  Biso   1.000  H
  H67      1.0000 0.65718  0.26280  0.27770  Biso   1.000  H
  C65      1.0000 0.61500  0.39302  0.20271  Biso   1.000  C
  H68      1.0000 0.60310  0.57100  0.38291  Biso   1.000  H
  H69      1.0000 0.74569  0.45825  0.38238  Biso   1.000  H
  H70      1.0000 0.62984  0.46641  0.43862  Biso   1.000  H
  H71      1.0000 0.11554  0.56362  0.26388  Biso   1.000  H
  H72      1.0000 0.09609  0.44911  0.29772  Biso   1.000  H
  H73      1.0000 0.97781  0.58728  0.30450  Biso   1.000  H
  O13      1.0000 0.25320  0.78263  0.49911  Biso   1.000  O
  C66      1.0000 0.12677  0.97209  0.43750  Biso   1.000  C
  C67      1.0000 0.98840  0.96805  0.37417  Biso   1.000  C
  H74      1.0000 0.98475  0.80268  0.38150  Biso   1.000  H
  C68      1.0000 0.71394  0.42532  0.20149  Biso   1.000  C
  C69      1.0000 0.54665  0.43911  0.15081  Biso   1.000  C
  C70      1.0000 0.31829  0.84195  0.51698  Biso   1.000  C
  H75      1.0000 0.16189  0.01621  0.45170  Biso   1.000  H
  C71      1.0000 0.03553  0.03374  0.39590  Biso   1.000  C
  O14      1.0000 0.90156  0.03181  0.33199  Biso   1.000  O
  H76      1.0000 0.76130  0.39600  0.23527  Biso   1.000  H
  C72      1.0000 0.74322  0.49929  0.15189  Biso   1.000  C
  O15      1.0000 0.45155  0.40399  0.15330  Biso   1.000  O
  C73      1.0000 0.57997  0.51134  0.09960  Biso   1.000  C
  H77      1.0000 0.36282  0.86637  0.47841  Biso   1.000  H
  H78      1.0000 0.38120  0.78376  0.54300  Biso   1.000  H
  H79      1.0000 0.25498  0.91584  0.54178  Biso   1.000  H
  C74      1.0000 0.00200  0.16996  0.37051  Biso   1.000  C
  C75      1.0000 0.87681  0.95696  0.29479  Biso   1.000  C
  O16      1.0000 0.83795  0.53492  0.14842  Biso   1.000  O
  C76      1.0000 0.67281  0.54286  0.10092  Biso   1.000  C
  C77      1.0000 0.36066  0.47250  0.11112  Biso   1.000  C
  H80      1.0000 0.53683  0.53760  0.06440  Biso   1.000  H
  H81      1.0000 0.91066  0.21561  0.36558  Biso   1.000  H
  C78      1.0000 0.08776  0.17232  0.30621  Biso   1.000  C
  H82      1.0000 0.01244  0.21355  0.40249  Biso   1.000  H
  H83      1.0000 0.82149  0.92619  0.32271  Biso   1.000  H
  H84      1.0000 0.95868  0.88646  0.27668  Biso   1.000  H
  H85      1.0000 0.83368  0.00853  0.26008  Biso   1.000  H
  C79      1.0000 0.88627  0.51790  0.20559  Biso   1.000  C
  C80      1.0000 0.69869  0.63084  0.04780  Biso   1.000  C
  H86      1.0000 0.40200  0.44405  0.06718  Biso   1.000  H
  H87      1.0000 0.33269  0.56140  0.11258  Biso   1.000  H
  H88      1.0000 0.28576  0.45860  0.12479  Biso   1.000  H
  C81      1.0000 0.19928  0.18305  0.30157  Biso   1.000  C
  C82      1.0000 0.05894  0.16028  0.24758  Biso   1.000  C
  H89      1.0000 0.94506  0.55290  0.19919  Biso   1.000  H
  H90      1.0000 0.93248  0.42893  0.21609  Biso   1.000  H
  H91      1.0000 0.81418  0.56012  0.24069  Biso   1.000  H
  H92      1.0000 0.78953  0.61240  0.04238  Biso   1.000  H
  H93      1.0000 0.68592  0.61468  0.00679  Biso   1.000  H
  C83      1.0000 0.60950  0.76839  0.06391  Biso   1.000  C
  O17      1.0000 0.22688  0.20656  0.35821  Biso   1.000  O
  C84      1.0000 0.28151  0.17895  0.24172  Biso   1.000  C
  H94      1.0000 0.98268  0.15549  0.24880  Biso   1.000  H
  C85      1.0000 0.13934  0.15522  0.18801  Biso   1.000  C
  C86      1.0000 0.63880  0.82705  0.10448  Biso   1.000  C
  C87      1.0000 0.48977  0.83593  0.04282  Biso   1.000  C
  C88      1.0000 0.34525  0.13709  0.37588  Biso   1.000  C
  C89      1.0000 0.25182  0.16551  0.18489  Biso   1.000  C
  H95      1.0000 0.35682  0.18546  0.24030  Biso   1.000  H
  O18      1.0000 0.11629  0.14398  0.12870  Biso   1.000  O
  H96      1.0000 0.71734  0.78159  0.11981  Biso   1.000  H
  C90      1.0000 0.55623  0.95036  0.12308  Biso   1.000  C
  O19      1.0000 0.46574  0.77067  0.00342  Biso   1.000  O
  C91      1.0000 0.40664  0.96092  0.05990  Biso   1.000  C
  H97      1.0000 0.41503  0.06912  0.35211  Biso   1.000  H
  C92      1.0000 0.35363  0.17810  0.43549  Biso   1.000  C
  C93      1.0000 0.34359  0.15739  0.11952  Biso   1.000  C
  C94      1.0000 0.99977  0.14133  0.12840  Biso   1.000  C
  O20      1.0000 0.57815  0.01443  0.16380  Biso   1.000  O
  C95      1.0000 0.43459  0.02060  0.10111  Biso   1.000  C
  C96      1.0000 0.34257  0.83011  0.98316  Biso   1.000  C
  H98      1.0000 0.32972  0.00626  0.04321  Biso   1.000  H
  H99      1.0000 0.40002  0.22730  0.42348  Biso   1.000  H
  H100     1.0000 0.40740  0.10303  0.45942  Biso   1.000  H
  C97      1.0000 0.23158  0.25282  0.47968  Biso   1.000  C
  H101     1.0000 0.29191  0.20189  0.08578  Biso   1.000  H
  H102     1.0000 0.39492  0.19804  0.12249  Biso   1.000  H
  H103     1.0000 0.92588  0.20851  0.15501  Biso   1.000  H
  C98      1.0000 0.97985  0.15981  0.05790  Biso   1.000  C
  H104     1.0000 0.00624  0.06067  0.14598  Biso   1.000  H
  C99      1.0000 0.64871  0.93782  0.21321  Biso   1.000  C
  H105     1.0000 0.27375  0.84481  0.02070  Biso   1.000  H
  H106     1.0000 0.34219  0.77625  0.95377  Biso   1.000  H
  H107     1.0000 0.32839  0.90963  0.96153  Biso   1.000  H
  H108     1.0000 0.19215  0.19813  0.49540  Biso   1.000  H
  H109     1.0000 0.17383  0.31964  0.45351  Biso   1.000  H
  C100     1.0000 0.22565  0.31501  0.53870  Biso   1.000  C
  H110     1.0000 0.89110  0.17708  0.05771  Biso   1.000  H
  H111     1.0000 0.04031  0.08157  0.03491  Biso   1.000  H
  C101     1.0000 0.00160  0.26867  0.02099  Biso   1.000  C
  H112     1.0000 0.74157  0.90235  0.19641  Biso   1.000  H
  H113     1.0000 0.62709  0.87045  0.22639  Biso   1.000  H
  H114     1.0000 0.62541  0.98887  0.25012  Biso   1.000  H
  Br3      1.0000 0.33842  0.19678  0.60012  Biso   1.000  Br
  H115     1.0000 0.13534  0.35663  0.56199  Biso   1.000  H
  H116     1.0000 0.25179  0.37988  0.52411  Biso   1.000  H
  C102     1.0000 0.94575  0.33765  0.95796  Biso   1.000  C
  H117     1.0000 0.96871  0.33429  0.05258  Biso   1.000  H
  H118     1.0000 0.09594  0.23619  0.00952  Biso   1.000  H
  Br4      1.0000 0.98810  0.20130  0.89454  Biso   1.000  Br
  H119     1.0000 0.98599  0.38988  0.93785  Biso   1.000  H
  H120     1.0000 0.85147  0.39168  0.96905  Biso   1.000  H
