data_image0
_cell_length_a       21.99
_cell_length_b       22.32
_cell_length_c       23.8
_cell_angle_alpha    94.65
_cell_angle_beta     116.85
_cell_angle_gamma    110.9

_symmetry_space_group_name_H-M    "P 1"
_symmetry_int_tables_number       1

loop_
  _symmetry_equiv_pos_as_xyz
  'x, y, z'

loop_
  _atom_site_label
  _atom_site_occupancy
  _atom_site_fract_x
  _atom_site_fract_y
  _atom_site_fract_z
  _atom_site_thermal_displace_type
  _atom_site_B_iso_or_equiv
  _atom_site_type_symbol
  C1       1.0000 0.55764  0.59741  0.38734  Biso   1.000  C
  C2       1.0000 0.48482  0.56632  0.32587  Biso   1.000  C
  N1       1.0000 0.59640  0.66094  0.41353  Biso   1.000  N
  H1       1.0000 0.57751  0.56922  0.40924  Biso   1.000  H
  C3       1.0000 0.44980  0.49708  0.30013  Biso   1.000  C
  C4       1.0000 0.45072  0.60441  0.29088  Biso   1.000  C
  C5       1.0000 0.66963  0.68780  0.47190  Biso   1.000  C
  C6       1.0000 0.38194  0.46290  0.23974  Biso   1.000  C
  H2       1.0000 0.47303  0.47201  0.32464  Biso   1.000  H
  C7       1.0000 0.38222  0.57120  0.23117  Biso   1.000  C
  O1       1.0000 0.48267  0.67197  0.31401  Biso   1.000  O
  C8       1.0000 0.70484  0.75654  0.50305  Biso   1.000  C
  C9       1.0000 0.70848  0.64919  0.49764  Biso   1.000  C
  C10      1.0000 0.34590  0.38884  0.21390  Biso   1.000  C
  C11      1.0000 0.34932  0.50253  0.20607  Biso   1.000  C
  H3       1.0000 0.35788  0.59609  0.20750  Biso   1.000  H
  H4       1.0000 0.52412  0.68534  0.34964  Biso   1.000  H
  H5       1.0000 0.67930  0.78290  0.48533  Biso   1.000  H
  C12      1.0000 0.77673  0.78688  0.55955  Biso   1.000  C
  C13      1.0000 0.77919  0.67928  0.55330  Biso   1.000  C
  H6       1.0000 0.68570  0.60261  0.47652  Biso   1.000  H
  C14      1.0000 0.38717  0.35207  0.23551  Biso   1.000  C
  C15      1.0000 0.26807  0.35207  0.16955  Biso   1.000  C
  H7       1.0000 0.30312  0.48123  0.16473  Biso   1.000  H
  H8       1.0000 0.79965  0.83354  0.58062  Biso   1.000  H
  C16      1.0000 0.81466  0.74885  0.58485  Biso   1.000  C
  C17      1.0000 0.82984  0.64528  0.58490  Biso   1.000  C
  C18      1.0000 0.35325  0.28196  0.21592  Biso   1.000  C
  H9       1.0000 0.44061  0.37562  0.26469  Biso   1.000  H
  C19      1.0000 0.23298  0.28288  0.14790  Biso   1.000  C
  H10      1.0000 0.23799  0.37541  0.15361  Biso   1.000  H
  C20      1.0000 0.89529  0.77316  0.64303  Biso   1.000  C
  H11      1.0000 0.80492  0.59611  0.56251  Biso   1.000  H
  C21      1.0000 0.90114  0.68355  0.58313  Biso   1.000  C
  C22      1.0000 0.85385  0.66105  0.65750  Biso   1.000  C
  C23      1.0000 0.27477  0.24678  0.17157  Biso   1.000  C
  C24      1.0000 0.39890  0.24663  0.24402  Biso   1.000  C
  H12      1.0000 0.18000  0.25970  0.11669  Biso   1.000  H
  H13      1.0000 0.92071  0.82231  0.66552  Biso   1.000  H
  C25      1.0000 0.93643  0.75237  0.61394  Biso   1.000  C
  C26      1.0000 0.88941  0.73005  0.68890  Biso   1.000  C
  C27      1.0000 0.93084  0.65625  0.55360  Biso   1.000  C
  C28      1.0000 0.84223  0.61446  0.69047  Biso   1.000  C
  O2       1.0000 0.23856  0.17900  0.15031  Biso   1.000  O
  N2       1.0000 0.36843  0.18254  0.23083  Biso   1.000  N
  H14      1.0000 0.45232  0.27152  0.27271  Biso   1.000  H
  C29      1.0000 0.00114  0.79413  0.61453  Biso   1.000  C
  C30      1.0000 0.91411  0.75200  0.75480  Biso   1.000  C
  C31      1.0000 0.99523  0.69769  0.55360  Biso   1.000  C
  H15      1.0000 0.90712  0.60932  0.53342  Biso   1.000  H
  C32      1.0000 0.86825  0.63665  0.75785  Biso   1.000  C
  H16      1.0000 0.81706  0.56794  0.66813  Biso   1.000  H
  H17      1.0000 0.26771  0.16351  0.17349  Biso   1.000  H
  C33      1.0000 0.41052  0.14654  0.25893  Biso   1.000  C
  C34      1.0000 0.03087  0.76675  0.58456  Biso   1.000  C
  H18      1.0000 0.02503  0.84095  0.63515  Biso   1.000  H
  C35      1.0000 0.90374  0.70544  0.78871  Biso   1.000  C
  H19      1.0000 0.93797  0.79856  0.77665  Biso   1.000  H
  N3       1.0000 0.03108  0.67290  0.52687  Biso   1.000  N
  N4       1.0000 0.85820  0.59281  0.79609  Biso   1.000  N
  C36      1.0000 0.37249  0.07755  0.23113  Biso   1.000  C
  C37      1.0000 0.48650  0.17676  0.31179  Biso   1.000  C
  H20      1.0000 0.07542  0.79493  0.58515  Biso   1.000  H
  H21      1.0000 0.92116  0.72063  0.83404  Biso   1.000  H
  C38      1.0000 0.99404  0.61384  0.48563  Biso   1.000  C
  C39      1.0000 0.84035  0.53012  0.77710  Biso   1.000  C
  H22      1.0000 0.32052  0.05732  0.19712  Biso   1.000  H
  C40      1.0000 0.40978  0.03759  0.25263  Biso   1.000  C
  C41      1.0000 0.52314  0.13707  0.33291  Biso   1.000  C
  H23      1.0000 0.51203  0.22371  0.33251  Biso   1.000  H
  C42      1.0000 0.03207  0.58383  0.46427  Biso   1.000  C
  H24      1.0000 0.94116  0.58943  0.46894  Biso   1.000  H
  C43      1.0000 0.82465  0.48464  0.81401  Biso   1.000  C
  H25      1.0000 0.83736  0.51323  0.73752  Biso   1.000  H
  C44      1.0000 0.48496  0.06729  0.30229  Biso   1.000  C
  H26      1.0000 0.38355  0.99040  0.23319  Biso   1.000  H
  C45      1.0000 0.60619  0.16119  0.38557  Biso   1.000  C
  C46      1.0000 0.98994  0.51954  0.42012  Biso   1.000  C
  C47      1.0000 0.11092  0.61730  0.48922  Biso   1.000  C
  C48      1.0000 0.80271  0.41666  0.79009  Biso   1.000  C
  C49      1.0000 0.82975  0.50765  0.87410  Biso   1.000  C
  C50      1.0000 0.53688  0.03279  0.32735  Biso   1.000  C
  H27      1.0000 0.63294  0.21042  0.40801  Biso   1.000  H
  C51      1.0000 0.64005  0.13974  0.34876  Biso   1.000  C
  C52      1.0000 0.60755  0.11865  0.43307  Biso   1.000  C
  C53      1.0000 0.02258  0.48723  0.39797  Biso   1.000  C
  H28      1.0000 0.93720  0.49680  0.40452  Biso   1.000  H
  C54      1.0000 0.14492  0.58451  0.47032  Biso   1.000  C
  O3       1.0000 0.15434  0.67983  0.53135  Biso   1.000  O
  C55      1.0000 0.78508  0.37002  0.82243  Biso   1.000  C
  H29      1.0000 0.79966  0.40154  0.75003  Biso   1.000  H
  C56      1.0000 0.81074  0.46111  0.90644  Biso   1.000  C
  O4       1.0000 0.85026  0.57271  0.89930  Biso   1.000  O
  C57      1.0000 0.60183  0.07047  0.31676  Biso   1.000  C
  C58      1.0000 0.56975  0.04975  0.40166  Biso   1.000  C
  H30      1.0000 0.51029  0.98350  0.30500  Biso   1.000  H
  C59      1.0000 0.69814  0.18278  0.34250  Biso   1.000  C
  C60      1.0000 0.64091  0.14237  0.50059  Biso   1.000  C
  C61      1.0000 0.97604  0.41901  0.35023  Biso   1.000  C
  C62      1.0000 0.10109  0.52101  0.42509  Biso   1.000  C
  H31      1.0000 0.19835  0.60551  0.48843  Biso   1.000  H
  H32      1.0000 0.12651  0.69501  0.53613  Biso   1.000  H
  C63      1.0000 0.76601  0.29924  0.79668  Biso   1.000  C
  C64      1.0000 0.78910  0.39417  0.88134  Biso   1.000  C
  H33      1.0000 0.81268  0.47576  0.94606  Biso   1.000  H
  H34      1.0000 0.85997  0.59475  0.87494  Biso   1.000  H
  C65      1.0000 0.62319  0.04481  0.27705  Biso   1.000  C
  C66      1.0000 0.56451  0.00451  0.43794  Biso   1.000  C
  C67      1.0000 0.71853  0.15664  0.30116  Biso   1.000  C
  H35      1.0000 0.72403  0.22921  0.36554  Biso   1.000  H
  C68      1.0000 0.63431  0.09687  0.53726  Biso   1.000  C
  H36      1.0000 0.66802  0.18921  0.52190  Biso   1.000  H
  C69      1.0000 0.91078  0.37331  0.34669  Biso   1.000  C
  C70      1.0000 0.99792  0.39563  0.30914  Biso   1.000  C
  H37      1.0000 0.12531  0.49993  0.41220  Biso   1.000  H
  C71      1.0000 0.72633  0.26794  0.72931  Biso   1.000  C
  C72      1.0000 0.79131  0.26222  0.83931  Biso   1.000  C
  H38      1.0000 0.77665  0.36366  0.90432  Biso   1.000  H
  C73      1.0000 0.68131  0.08851  0.26961  Biso   1.000  C
  H39      1.0000 0.59844  0.99819  0.25529  Biso   1.000  H
  C74      1.0000 0.59699  0.02823  0.50561  Biso   1.000  C
  H40      1.0000 0.53878  0.95771  0.41672  Biso   1.000  H
  N5       1.0000 0.77649  0.19739  0.29009  Biso   1.000  N
  N6       1.0000 0.66707  0.11796  0.60641  Biso   1.000  N
  C75      1.0000 0.87162  0.30696  0.30884  Biso   1.000  C
  H41      1.0000 0.89232  0.38832  0.37130  Biso   1.000  H
  C76      1.0000 0.95939  0.32991  0.27035  Biso   1.000  C
  H42      1.0000 0.04029  0.42589  0.30800  Biso   1.000  H
  C77      1.0000 0.71317  0.20269  0.70411  Biso   1.000  C
  H43      1.0000 0.70753  0.29152  0.69943  Biso   1.000  H
  C78      1.0000 0.77848  0.19778  0.81539  Biso   1.000  C
  H44      1.0000 0.81772  0.28194  0.88552  Biso   1.000  H
  H45      1.0000 0.69550  0.07103  0.24230  Biso   1.000  H
  H46      1.0000 0.59361  0.99733  0.53052  Biso   1.000  H
  C79      1.0000 0.80874  0.26163  0.31416  Biso   1.000  C
  C80      1.0000 0.67468  0.17510  0.63323  Biso   1.000  C
  C81      1.0000 0.89750  0.28437  0.27060  Biso   1.000  C
  H47      1.0000 0.97572  0.31579  0.24323  Biso   1.000  H
  C82      1.0000 0.74027  0.16709  0.74796  Biso   1.000  C
  H48      1.0000 0.79606  0.17397  0.84546  Biso   1.000  H
  H49      1.0000 0.79052  0.28060  0.33660  Biso   1.000  H
  H50      1.0000 0.65444  0.19983  0.60562  Biso   1.000  H
  O5       1.0000 0.86322  0.21943  0.23556  Biso   1.000  O
  O6       1.0000 0.73044  0.10461  0.72660  Biso   1.000  O
  H51      1.0000 0.83112  0.19689  0.24481  Biso   1.000  H
  H52      1.0000 0.70917  0.09325  0.68545  Biso   1.000  H
  C83      1.0000 0.44244  0.40263  0.61271  Biso   1.000  C
  N7       1.0000 0.40368  0.33911  0.58653  Biso   1.000  N
  H53      1.0000 0.42252  0.43083  0.59081  Biso   1.000  H
  C84      1.0000 0.51526  0.43372  0.67418  Biso   1.000  C
  C85      1.0000 0.33045  0.31225  0.52815  Biso   1.000  C
  C86      1.0000 0.54932  0.39564  0.70918  Biso   1.000  C
  C87      1.0000 0.55023  0.50297  0.69992  Biso   1.000  C
  C88      1.0000 0.29520  0.24351  0.49700  Biso   1.000  C
  C89      1.0000 0.29156  0.35086  0.50241  Biso   1.000  C
  O7       1.0000 0.51737  0.32808  0.68604  Biso   1.000  O
  C90      1.0000 0.61785  0.42885  0.76888  Biso   1.000  C
  C91      1.0000 0.61814  0.53714  0.76031  Biso   1.000  C
  H54      1.0000 0.52705  0.52804  0.67541  Biso   1.000  H
  C92      1.0000 0.22335  0.21317  0.44050  Biso   1.000  C
  H55      1.0000 0.32072  0.21710  0.51472  Biso   1.000  H
  C93      1.0000 0.22084  0.32077  0.44675  Biso   1.000  C
  H56      1.0000 0.31433  0.39744  0.52353  Biso   1.000  H
  H57      1.0000 0.47591  0.31471  0.65041  Biso   1.000  H
  H58      1.0000 0.64215  0.40396  0.79255  Biso   1.000  H
  C94      1.0000 0.65074  0.49747  0.79398  Biso   1.000  C
  C95      1.0000 0.65418  0.61121  0.78615  Biso   1.000  C
  C96      1.0000 0.18542  0.25120  0.41520  Biso   1.000  C
  H59      1.0000 0.20043  0.16651  0.41943  Biso   1.000  H
  C97      1.0000 0.17017  0.35473  0.41515  Biso   1.000  C
  H60      1.0000 0.69692  0.51881  0.83532  Biso   1.000  H
  C98      1.0000 0.73201  0.64798  0.83050  Biso   1.000  C
  C99      1.0000 0.61286  0.64798  0.76455  Biso   1.000  C
  C100     1.0000 0.10475  0.22689  0.35702  Biso   1.000  C
  C101     1.0000 0.14623  0.33900  0.34255  Biso   1.000  C
  C102     1.0000 0.09894  0.31650  0.41692  Biso   1.000  C
  H61      1.0000 0.19512  0.40394  0.43754  Biso   1.000  H
  C103     1.0000 0.76710  0.71716  0.85215  Biso   1.000  C
  H62      1.0000 0.76205  0.62464  0.84644  Biso   1.000  H
  C104     1.0000 0.64683  0.71809  0.78413  Biso   1.000  C
  H63      1.0000 0.55947  0.62443  0.73536  Biso   1.000  H
  C105     1.0000 0.11067  0.27000  0.31115  Biso   1.000  C
  H64      1.0000 0.07932  0.17774  0.33453  Biso   1.000  H
  C106     1.0000 0.06360  0.24767  0.38611  Biso   1.000  C
  C107     1.0000 0.15785  0.38559  0.30958  Biso   1.000  C
  C108     1.0000 0.06924  0.34380  0.44645  Biso   1.000  C
  C109     1.0000 0.72526  0.75327  0.82848  Biso   1.000  C
  H65      1.0000 0.82008  0.74035  0.88336  Biso   1.000  H
  C110     1.0000 0.60113  0.75342  0.75603  Biso   1.000  C
  C111     1.0000 0.08597  0.24805  0.24525  Biso   1.000  C
  C112     1.0000 0.99890  0.20592  0.38552  Biso   1.000  C
  C113     1.0000 0.13179  0.36340  0.24220  Biso   1.000  C
  H66      1.0000 0.18302  0.43210  0.33192  Biso   1.000  H
  C114     1.0000 0.00485  0.30236  0.44645  Biso   1.000  C
  H67      1.0000 0.09291  0.39072  0.46663  Biso   1.000  H
  O8       1.0000 0.76152  0.82105  0.84974  Biso   1.000  O
  N8       1.0000 0.63165  0.81751  0.76922  Biso   1.000  N
  H68      1.0000 0.54771  0.72852  0.72734  Biso   1.000  H
  C115     1.0000 0.09634  0.29461  0.21134  Biso   1.000  C
  H69      1.0000 0.06211  0.20149  0.22340  Biso   1.000  H
  C116     1.0000 0.96917  0.23330  0.41549  Biso   1.000  C
  H70      1.0000 0.97500  0.15910  0.36490  Biso   1.000  H
  N9       1.0000 0.14188  0.40724  0.20396  Biso   1.000  N
  N10      1.0000 0.96900  0.32715  0.47318  Biso   1.000  N
  H71      1.0000 0.73237  0.83654  0.82656  Biso   1.000  H
  C117     1.0000 0.58952  0.85350  0.74112  Biso   1.000  C
  H72      1.0000 0.07892  0.27942  0.16601  Biso   1.000  H
  H73      1.0000 0.92461  0.20512  0.41490  Biso   1.000  H
  C118     1.0000 0.15973  0.46993  0.22296  Biso   1.000  C
  C119     1.0000 0.00604  0.38621  0.51442  Biso   1.000  C
  C120     1.0000 0.51357  0.82324  0.68826  Biso   1.000  C
  C121     1.0000 0.62759  0.92250  0.76893  Biso   1.000  C
  H74      1.0000 0.16272  0.48682  0.26253  Biso   1.000  H
  C122     1.0000 0.17538  0.51540  0.18604  Biso   1.000  C
  H75      1.0000 0.05892  0.41062  0.53111  Biso   1.000  H
  C123     1.0000 0.96796  0.41622  0.53578  Biso   1.000  C
  C124     1.0000 0.47689  0.86298  0.66714  Biso   1.000  C
  H76      1.0000 0.48805  0.77634  0.66754  Biso   1.000  H
  C125     1.0000 0.59026  0.96246  0.74742  Biso   1.000  C
  H77      1.0000 0.67956  0.94273  0.80293  Biso   1.000  H
  C126     1.0000 0.17033  0.49239  0.12595  Biso   1.000  C
  C127     1.0000 0.19737  0.58339  0.20996  Biso   1.000  C
  C128     1.0000 0.01009  0.48051  0.57993  Biso   1.000  C
  C129     1.0000 0.88916  0.38275  0.51083  Biso   1.000  C
  C130     1.0000 0.39384  0.83886  0.61448  Biso   1.000  C
  C131     1.0000 0.51507  0.93275  0.69776  Biso   1.000  C
  H78      1.0000 0.61648  0.00965  0.76686  Biso   1.000  H
  O9       1.0000 0.14982  0.42734  0.10075  Biso   1.000  O
  C132     1.0000 0.18934  0.53894  0.09361  Biso   1.000  C
  C133     1.0000 0.21496  0.63003  0.17763  Biso   1.000  C
  H79      1.0000 0.20042  0.59850  0.25003  Biso   1.000  H
  H80      1.0000 0.06283  0.50325  0.59553  Biso   1.000  H
  C134     1.0000 0.97745  0.51281  0.60208  Biso   1.000  C
  O10      1.0000 0.84570  0.32021  0.46870  Biso   1.000  O
  C135     1.0000 0.85516  0.41553  0.52973  Biso   1.000  C
  C136     1.0000 0.39249  0.88140  0.56699  Biso   1.000  C
  H81      1.0000 0.36714  0.78963  0.59204  Biso   1.000  H
  C137     1.0000 0.35999  0.86030  0.65130  Biso   1.000  C
  C138     1.0000 0.46316  0.96726  0.67271  Biso   1.000  C
  H82      1.0000 0.14011  0.40529  0.12511  Biso   1.000  H
  H83      1.0000 0.18740  0.52429  0.05399  Biso   1.000  H
  C139     1.0000 0.21098  0.60588  0.11871  Biso   1.000  C
  C140     1.0000 0.23402  0.70081  0.20337  Biso   1.000  C
  C141     1.0000 0.02399  0.58104  0.64982  Biso   1.000  C
  C142     1.0000 0.89899  0.47904  0.57496  Biso   1.000  C
  H84      1.0000 0.87352  0.30504  0.46392  Biso   1.000  H
  H85      1.0000 0.80173  0.39454  0.51162  Biso   1.000  H
  C143     1.0000 0.35915  0.85763  0.49946  Biso   1.000  C
  C144     1.0000 0.43029  0.95030  0.59839  Biso   1.000  C
  C145     1.0000 0.39821  0.92957  0.68329  Biso   1.000  C
  C146     1.0000 0.30194  0.81726  0.65755  Biso   1.000  C
  H86      1.0000 0.48979  0.01655  0.69505  Biso   1.000  H
  H87      1.0000 0.22338  0.63639  0.09573  Biso   1.000  H
  C147     1.0000 0.20877  0.73783  0.16074  Biso   1.000  C
  C148     1.0000 0.27375  0.73211  0.27075  Biso   1.000  C
  C149     1.0000 0.00212  0.60442  0.69092  Biso   1.000  C
  C150     1.0000 0.08925  0.62674  0.65336  Biso   1.000  C
  H88      1.0000 0.87470  0.50010  0.58781  Biso   1.000  H
  C151     1.0000 0.36572  0.90317  0.46279  Biso   1.000  C
  H89      1.0000 0.33206  0.81084  0.47815  Biso   1.000  H
  C152     1.0000 0.43557  0.99553  0.56211  Biso   1.000  C
  C153     1.0000 0.37689  0.95524  0.72301  Biso   1.000  C
  C154     1.0000 0.28150  0.84341  0.69889  Biso   1.000  C
  H90      1.0000 0.27600  0.77084  0.63451  Biso   1.000  H
  C155     1.0000 0.22153  0.80225  0.18461  Biso   1.000  C
  H91      1.0000 0.18231  0.71811  0.11453  Biso   1.000  H
  C156     1.0000 0.28691  0.79736  0.29595  Biso   1.000  C
  H92      1.0000 0.29250  0.70853  0.30062  Biso   1.000  H
  C157     1.0000 0.04064  0.67014  0.72970  Biso   1.000  C
  H93      1.0000 0.95974  0.57416  0.69205  Biso   1.000  H
  C158     1.0000 0.12841  0.69309  0.69121  Biso   1.000  C
  H94      1.0000 0.10776  0.61173  0.62875  Biso   1.000  H
  N11      1.0000 0.33301  0.88209  0.39364  Biso   1.000  N
  C159     1.0000 0.40309  0.97182  0.49444  Biso   1.000  C
  H95      1.0000 0.46125  0.04234  0.58333  Biso   1.000  H
  C160     1.0000 0.31877  0.91154  0.73044  Biso   1.000  C
  H96      1.0000 0.40157  0.00181  0.74476  Biso   1.000  H
  N12      1.0000 0.22355  0.80266  0.70996  Biso   1.000  N
  C161     1.0000 0.25976  0.83296  0.25209  Biso   1.000  C
  H97      1.0000 0.20397  0.82607  0.15459  Biso   1.000  H
  C162     1.0000 0.32536  0.82495  0.36682  Biso   1.000  C
  C163     1.0000 0.10256  0.71563  0.72945  Biso   1.000  C
  H98      1.0000 0.02434  0.68421  0.75682  Biso   1.000  H
  C164     1.0000 0.19134  0.73842  0.68590  Biso   1.000  C
  H99      1.0000 0.40647  0.00272  0.46954  Biso   1.000  H
  H100     1.0000 0.30453  0.92902  0.75775  Biso   1.000  H
  O11      1.0000 0.26964  0.89544  0.27345  Biso   1.000  O
  H101     1.0000 0.34564  0.80022  0.39443  Biso   1.000  H
  O12      1.0000 0.13686  0.78062  0.76450  Biso   1.000  O
  H102     1.0000 0.20956  0.71945  0.66345  Biso   1.000  H
  H103     1.0000 0.29091  0.90680  0.31460  Biso   1.000  H
  H104     1.0000 0.16896  0.80316  0.75524  Biso   1.000  H
  C165     1.0000 0.67029  0.48859  0.35540  Biso   1.000  C
  C166     1.0000 0.68013  0.43359  0.37292  Biso   1.000  C
  C167     1.0000 0.61979  0.48348  0.28901  Biso   1.000  C
  C168     1.0000 0.63058  0.47659  0.27301  Biso   1.000  C
  C169     1.0000 0.70000  0.48643  0.32410  Biso   1.000  C
  H105     1.0000 0.69764  0.53049  0.38823  Biso   1.000  H
  C170     1.0000 0.64285  0.37291  0.32523  Biso   1.000  C
  C171     1.0000 0.71831  0.43281  0.33512  Biso   1.000  C
  H106     1.0000 0.71253  0.43761  0.41761  Biso   1.000  H
  C172     1.0000 0.58290  0.42258  0.24171  Biso   1.000  C
  C173     1.0000 0.58042  0.41230  0.23792  Biso   1.000  C
  C174     1.0000 0.60840  0.53869  0.26602  Biso   1.000  C
  H107     1.0000 0.73613  0.53042  0.35250  Biso   1.000  H
  C175     1.0000 0.59442  0.36510  0.26041  Biso   1.000  C
  C176     1.0000 0.59233  0.35623  0.24131  Biso   1.000  C
  C177     1.0000 0.66560  0.36743  0.29471  Biso   1.000  C
  O13      1.0000 0.65339  0.31888  0.34280  Biso   1.000  O
  H108     1.0000 0.76682  0.44080  0.37021  Biso   1.000  H
  H109     1.0000 0.55010  0.41820  0.19692  Biso   1.000  H
  H110     1.0000 0.53042  0.40501  0.20681  Biso   1.000  H
  C178     1.0000 0.65958  0.60408  0.30451  Biso   1.000  C
  C179     1.0000 0.54087  0.52839  0.21065  Biso   1.000  C
  C180     1.0000 0.54582  0.30001  0.20529  Biso   1.000  C
  C181     1.0000 0.54169  0.29371  0.20440  Biso   1.000  C
  O14      1.0000 0.68510  0.31720  0.30761  Biso   1.000  O
  H111     1.0000 0.63181  0.28700  0.30879  Biso   1.000  H
  C182     1.0000 0.64519  0.65793  0.28812  Biso   1.000  C
  H112     1.0000 0.70560  0.61238  0.34310  Biso   1.000  H
  C183     1.0000 0.52530  0.58128  0.19229  Biso   1.000  C
  H113     1.0000 0.50421  0.48378  0.18452  Biso   1.000  H
  N13      1.0000 0.55153  0.24380  0.21321  Biso   1.000  N
  H114     1.0000 0.50982  0.29948  0.16330  Biso   1.000  H
  H115     1.0000 0.49441  0.28729  0.16862  Biso   1.000  H
  H116     1.0000 0.64910  0.28070  0.27990  Biso   1.000  H
  C184     1.0000 0.57803  0.64687  0.23147  Biso   1.000  C
  H117     1.0000 0.68112  0.70230  0.31553  Biso   1.000  H
  C185     1.0000 0.45268  0.56552  0.13402  Biso   1.000  C
  C186     1.0000 0.49855  0.17952  0.16714  Biso   1.000  C
  O15      1.0000 0.56532  0.69989  0.21616  Biso   1.000  O
  N14      1.0000 0.43312  0.61012  0.11295  Biso   1.000  N
  H118     1.0000 0.41822  0.51979  0.11059  Biso   1.000  H
  C187     1.0000 0.42634  0.16523  0.11364  Biso   1.000  C
  C188     1.0000 0.51855  0.12713  0.17905  Biso   1.000  C
  H119     1.0000 0.52369  0.68638  0.18073  Biso   1.000  H
  C189     1.0000 0.36011  0.59142  0.05719  Biso   1.000  C
  C190     1.0000 0.37696  0.10031  0.07643  Biso   1.000  C
  H120     1.0000 0.41230  0.20029  0.10360  Biso   1.000  H
  C191     1.0000 0.46747  0.06106  0.14135  Biso   1.000  C
  H121     1.0000 0.56808  0.13678  0.21360  Biso   1.000  H
  C192     1.0000 0.30705  0.52550  0.01934  Biso   1.000  C
  C193     1.0000 0.34180  0.64389  0.04021  Biso   1.000  C
  C194     1.0000 0.29421  0.07536  0.02033  Biso   1.000  C
  C195     1.0000 0.39566  0.04722  0.09086  Biso   1.000  C
  H122     1.0000 0.48171  0.02589  0.15021  Biso   1.000  H
  C196     1.0000 0.23697  0.51244  0.96648  Biso   1.000  C
  H123     1.0000 0.31911  0.48949  0.02992  Biso   1.000  H
  C197     1.0000 0.27085  0.63090  0.98740  Biso   1.000  C
  H124     1.0000 0.37822  0.68888  0.06502  Biso   1.000  H
  C198     1.0000 0.24722  0.03063  0.04469  Biso   1.000  C
  H125     1.0000 0.28050  0.11259  0.00871  Biso   1.000  H
  C199     1.0000 0.28417  0.02903  0.96230  Biso   1.000  C
  C200     1.0000 0.32909  0.97790  0.04946  Biso   1.000  C
  C201     1.0000 0.17319  0.44379  0.92184  Biso   1.000  C
  C202     1.0000 0.21909  0.56554  0.95029  Biso   1.000  C
  H126     1.0000 0.25832  0.66664  0.97706  Biso   1.000  H
  C203     1.0000 0.19229  0.03900  0.05320  Biso   1.000  C
  C204     1.0000 0.26517  0.97759  0.06024  Biso   1.000  C
  C205     1.0000 0.30158  0.97588  0.97766  Biso   1.000  C
  C206     1.0000 0.25718  0.03433  0.89915  Biso   1.000  C
  H127     1.0000 0.34257  0.94054  0.06098  Biso   1.000  H
  C207     1.0000 0.10404  0.44029  0.92475  Biso   1.000  C
  H128     1.0000 0.18624  0.40634  0.93415  Biso   1.000  H
  C208     1.0000 0.15488  0.44530  0.85220  Biso   1.000  C
  C209     1.0000 0.13905  0.54080  0.89020  Biso   1.000  C
  C210     1.0000 0.15422  0.99453  0.07747  Biso   1.000  C
  H129     1.0000 0.18033  0.07501  0.04262  Biso   1.000  H
  C211     1.0000 0.22768  0.93318  0.08342  Biso   1.000  C
  C212     1.0000 0.29267  0.92767  0.93011  Biso   1.000  C
  C213     1.0000 0.24785  0.98429  0.84998  Biso   1.000  C
  H130     1.0000 0.24502  0.07026  0.88833  Biso   1.000  H
  C214     1.0000 0.06602  0.39481  0.94689  Biso   1.000  C
  C215     1.0000 0.08534  0.49226  0.90718  Biso   1.000  C
  C216     1.0000 0.13804  0.49855  0.83542  Biso   1.000  C
  C217     1.0000 0.15566  0.40091  0.80835  Biso   1.000  C
  H131     1.0000 0.12584  0.57813  0.87794  Biso   1.000  H
  N15      1.0000 0.09705  0.99853  0.08790  Biso   1.000  N
  C218     1.0000 0.17227  0.94162  0.09218  Biso   1.000  C
  H132     1.0000 0.23927  0.89694  0.09351  Biso   1.000  H
  C219     1.0000 0.26542  0.93304  0.86593  Biso   1.000  C
  H133     1.0000 0.30473  0.89174  0.94094  Biso   1.000  H
  N16      1.0000 0.21811  0.98449  0.78275  Biso   1.000  N
  C220     1.0000 0.00636  0.40024  0.95098  Biso   1.000  C
  H134     1.0000 0.07983  0.36015  0.95925  Biso   1.000  H
  C221     1.0000 0.02542  0.49689  0.90954  Biso   1.000  C
  C222     1.0000 0.12417  0.50873  0.77532  Biso   1.000  C
  C223     1.0000 0.13953  0.41065  0.74663  Biso   1.000  C
  H135     1.0000 0.16692  0.36483  0.81996  Biso   1.000  H
  C224     1.0000 0.07983  0.04805  0.07924  Biso   1.000  C
  H136     1.0000 0.14649  0.91094  0.10843  Biso   1.000  H
  H137     1.0000 0.25915  0.90045  0.83296  Biso   1.000  H
  C225     1.0000 0.21447  0.03702  0.76710  Biso   1.000  C
  N17      1.0000 0.96744  0.35943  0.97805  Biso   1.000  N
  C226     1.0000 0.98620  0.45099  0.93159  Biso   1.000  C
  H138     1.0000 0.01114  0.53115  0.89615  Biso   1.000  H
  C227     1.0000 0.12557  0.46467  0.73147  Biso   1.000  C
  H139     1.0000 0.11381  0.54531  0.76395  Biso   1.000  H
  N18      1.0000 0.13939  0.36871  0.69825  Biso   1.000  N
  H140     1.0000 0.10642  0.08197  0.06600  Biso   1.000  H
  C228     1.0000 0.02150  0.05367  0.08899  Biso   1.000  C
  H141     1.0000 0.23474  0.07663  0.80062  Biso   1.000  H
  C229     1.0000 0.17910  0.03712  0.69726  Biso   1.000  C
  C230     1.0000 0.97290  0.30480  0.98745  Biso   1.000  C
  H142     1.0000 0.94525  0.45417  0.93356  Biso   1.000  H
  H143     1.0000 0.11660  0.47184  0.69022  Biso   1.000  H
  C231     1.0000 0.12839  0.30825  0.69652  Biso   1.000  C
  C232     1.0000 0.00562  0.10808  0.07870  Biso   1.000  C
  C233     1.0000 0.97937  0.00473  0.10788  Biso   1.000  C
  C234     1.0000 0.15134  0.98271  0.64450  Biso   1.000  C
  C235     1.0000 0.17335  0.09500  0.68412  Biso   1.000  C
  C236     1.0000 0.94109  0.26606  0.02151  Biso   1.000  C
  H144     1.0000 0.99884  0.28954  0.97136  Biso   1.000  H
  C237     1.0000 0.13311  0.26740  0.64908  Biso   1.000  C
  H145     1.0000 0.11684  0.28944  0.72694  Biso   1.000  H
  H146     1.0000 0.03420  0.14086  0.06600  Biso   1.000  H
  C238     1.0000 0.94945  0.11673  0.08623  Biso   1.000  C
  O16      1.0000 0.99114  0.94963  0.11714  Biso   1.000  O
  C239     1.0000 0.92505  0.01343  0.11768  Biso   1.000  C
  O17      1.0000 0.15507  0.92481  0.65400  Biso   1.000  O
  C240     1.0000 0.11733  0.98711  0.58013  Biso   1.000  C
  C241     1.0000 0.14020  0.10129  0.62058  Biso   1.000  C
  H147     1.0000 0.19295  0.13214  0.72015  Biso   1.000  H
  C242     1.0000 0.95434  0.21035  0.03406  Biso   1.000  C
  C243     1.0000 0.90062  0.28486  0.04582  Biso   1.000  C
  C244     1.0000 0.12862  0.20427  0.65272  Biso   1.000  C
  C245     1.0000 0.14578  0.29259  0.60129  Biso   1.000  C
  C246     1.0000 0.91029  0.06791  0.10665  Biso   1.000  C
  C247     1.0000 0.93163  0.17403  0.07161  Biso   1.000  C
  H148     1.0000 0.02626  0.95135  0.11079  Biso   1.000  H
  H149     1.0000 0.89776  0.98164  0.13210  Biso   1.000  H
  H150     1.0000 0.17242  0.92710  0.69401  Biso   1.000  H
  H151     1.0000 0.09791  0.95002  0.54425  Biso   1.000  H
  C248     1.0000 0.11176  0.04557  0.56861  Biso   1.000  C
  C249     1.0000 0.13731  0.16498  0.61103  Biso   1.000  C
  H152     1.0000 0.97989  0.19677  0.01619  Biso   1.000  H
  C250     1.0000 0.87669  0.24817  0.08293  Biso   1.000  C
  O18      1.0000 0.88630  0.33815  0.03499  Biso   1.000  O
  H153     1.0000 0.11932  0.18724  0.68481  Biso   1.000  H
  C251     1.0000 0.15235  0.25331  0.55768  Biso   1.000  C
  O19      1.0000 0.15361  0.35505  0.59681  Biso   1.000  O
  H154     1.0000 0.87232  0.07241  0.11310  Biso   1.000  H
  C252     1.0000 0.89258  0.19449  0.09632  Biso   1.000  C
  H155     1.0000 0.08820  0.04780  0.52461  Biso   1.000  H
  C253     1.0000 0.14871  0.19116  0.56305  Biso   1.000  C
  H156     1.0000 0.84911  0.26028  0.09922  Biso   1.000  H
  H157     1.0000 0.90948  0.35866  0.01728  Biso   1.000  H
  H158     1.0000 0.15939  0.26943  0.52431  Biso   1.000  H
  H159     1.0000 0.15331  0.37512  0.62801  Biso   1.000  H
  H160     1.0000 0.87692  0.17101  0.12250  Biso   1.000  H
  H161     1.0000 0.15402  0.16534  0.53332  Biso   1.000  H
  C254     1.0000 0.32974  0.51146  0.64465  Biso   1.000  C
  C255     1.0000 0.31995  0.56646  0.62713  Biso   1.000  C
  H162     1.0000 0.30244  0.46956  0.61182  Biso   1.000  H
  C256     1.0000 0.38024  0.51657  0.71105  Biso   1.000  C
  C257     1.0000 0.30003  0.51362  0.67595  Biso   1.000  C
  C258     1.0000 0.36944  0.52341  0.72704  Biso   1.000  C
  C259     1.0000 0.35723  0.62714  0.67482  Biso   1.000  C
  H163     1.0000 0.28755  0.56244  0.58244  Biso   1.000  H
  C260     1.0000 0.28173  0.56724  0.66493  Biso   1.000  C
  C261     1.0000 0.41713  0.57747  0.75834  Biso   1.000  C
  C262     1.0000 0.39168  0.46136  0.73403  Biso   1.000  C
  C263     1.0000 0.41966  0.58775  0.76213  Biso   1.000  C
  H164     1.0000 0.26395  0.46963  0.64756  Biso   1.000  H
  O20      1.0000 0.34665  0.68117  0.65725  Biso   1.000  O
  C264     1.0000 0.40566  0.63495  0.73964  Biso   1.000  C
  C265     1.0000 0.40774  0.64382  0.75874  Biso   1.000  C
  C266     1.0000 0.33443  0.63262  0.70534  Biso   1.000  C
  H165     1.0000 0.23326  0.55925  0.62984  Biso   1.000  H
  H166     1.0000 0.44994  0.58185  0.80313  Biso   1.000  H
  H167     1.0000 0.46966  0.59504  0.79324  Biso   1.000  H
  C267     1.0000 0.34050  0.39597  0.69554  Biso   1.000  C
  C268     1.0000 0.45917  0.47166  0.78940  Biso   1.000  C
  H168     1.0000 0.36824  0.71304  0.69121  Biso   1.000  H
  O21      1.0000 0.31494  0.68285  0.69244  Biso   1.000  O
  C269     1.0000 0.45426  0.70004  0.79476  Biso   1.000  C
  C270     1.0000 0.45834  0.70634  0.79565  Biso   1.000  C
  C271     1.0000 0.35484  0.34212  0.71193  Biso   1.000  C
  H169     1.0000 0.29444  0.38767  0.65696  Biso   1.000  H
  C272     1.0000 0.47478  0.41877  0.80776  Biso   1.000  C
  H170     1.0000 0.49583  0.51627  0.81553  Biso   1.000  H
  H171     1.0000 0.35093  0.71935  0.72015  Biso   1.000  H
  N19      1.0000 0.44855  0.75625  0.78684  Biso   1.000  N
  H172     1.0000 0.49026  0.70057  0.83675  Biso   1.000  H
  H173     1.0000 0.50567  0.71276  0.83143  Biso   1.000  H
  C273     1.0000 0.42205  0.35318  0.76858  Biso   1.000  C
  H174     1.0000 0.31892  0.29775  0.68452  Biso   1.000  H
  C274     1.0000 0.54735  0.43453  0.86603  Biso   1.000  C
  C275     1.0000 0.50148  0.82053  0.83291  Biso   1.000  C
  O22      1.0000 0.43476  0.30016  0.78389  Biso   1.000  O
  N20      1.0000 0.56692  0.38993  0.88710  Biso   1.000  N
  H175     1.0000 0.58186  0.48026  0.88946  Biso   1.000  H
  C276     1.0000 0.48148  0.87292  0.82100  Biso   1.000  C
  C277     1.0000 0.57370  0.83482  0.88641  Biso   1.000  C
  H176     1.0000 0.47634  0.31366  0.81932  Biso   1.000  H
  C278     1.0000 0.63992  0.40863  0.94286  Biso   1.000  C
  H177     1.0000 0.43195  0.86327  0.78645  Biso   1.000  H
  C279     1.0000 0.53261  0.93899  0.85870  Biso   1.000  C
  C280     1.0000 0.62312  0.89974  0.92362  Biso   1.000  C
  H178     1.0000 0.58774  0.79976  0.89645  Biso   1.000  H
  C281     1.0000 0.65823  0.35615  0.95984  Biso   1.000  C
  C282     1.0000 0.69298  0.47455  0.98071  Biso   1.000  C
  H179     1.0000 0.51832  0.97416  0.84984  Biso   1.000  H
  C283     1.0000 0.60442  0.95283  0.90920  Biso   1.000  C
  C284     1.0000 0.70587  0.92469  0.97972  Biso   1.000  C
  H180     1.0000 0.62186  0.31117  0.93503  Biso   1.000  H
  C285     1.0000 0.72918  0.36914  0.01265  Biso   1.000  C
  H181     1.0000 0.68093  0.51056  0.97013  Biso   1.000  H
  C286     1.0000 0.76308  0.48759  0.03352  Biso   1.000  C
  C287     1.0000 0.67097  0.02210  0.95059  Biso   1.000  C
  H182     1.0000 0.71954  0.88745  0.99134  Biso   1.000  H
  C288     1.0000 0.75280  0.96937  0.95536  Biso   1.000  C
  C289     1.0000 0.71591  0.97101  0.03775  Biso   1.000  C
  H183     1.0000 0.74171  0.33340  0.02299  Biso   1.000  H
  C290     1.0000 0.78095  0.43451  0.04976  Biso   1.000  C
  C291     1.0000 0.82684  0.55625  0.07821  Biso   1.000  C
  H184     1.0000 0.65746  0.05950  0.93907  Biso   1.000  H
  C292     1.0000 0.73486  0.02246  0.93981  Biso   1.000  C
  C293     1.0000 0.69848  0.02412  0.02240  Biso   1.000  C
  C294     1.0000 0.80779  0.96104  0.94685  Biso   1.000  C
  C295     1.0000 0.74286  0.96572  0.10090  Biso   1.000  C
  C296     1.0000 0.86103  0.45925  0.10986  Biso   1.000  C
  H185     1.0000 0.81383  0.59371  0.06590  Biso   1.000  H
  C297     1.0000 0.84520  0.55475  0.14785  Biso   1.000  C
  C298     1.0000 0.89599  0.55976  0.07530  Biso   1.000  C
  C299     1.0000 0.77240  0.06687  0.91663  Biso   1.000  C
  C300     1.0000 0.70741  0.07238  0.06994  Biso   1.000  C
  H186     1.0000 0.81975  0.92504  0.95743  Biso   1.000  H
  C301     1.0000 0.84582  0.00552  0.92258  Biso   1.000  C
  H187     1.0000 0.75501  0.92979  0.11173  Biso   1.000  H
  C302     1.0000 0.75222  0.01576  0.15007  Biso   1.000  C
  H188     1.0000 0.87424  0.42192  0.12211  Biso   1.000  H
  C303     1.0000 0.86204  0.50150  0.16463  Biso   1.000  C
  C304     1.0000 0.91469  0.50779  0.09288  Biso   1.000  C
  C305     1.0000 0.84437  0.59914  0.19170  Biso   1.000  C
  C306     1.0000 0.93401  0.60524  0.05316  Biso   1.000  C
  C307     1.0000 0.82781  0.05842  0.90787  Biso   1.000  C
  H189     1.0000 0.76076  0.10311  0.90654  Biso   1.000  H
  C308     1.0000 0.73461  0.06701  0.13412  Biso   1.000  C
  H190     1.0000 0.69530  0.10831  0.05911  Biso   1.000  H
  N21      1.0000 0.90301  0.00147  0.91215  Biso   1.000  N
  N22      1.0000 0.78192  0.01556  0.21730  Biso   1.000  N
  C309     1.0000 0.87585  0.49127  0.22473  Biso   1.000  C
  C310     1.0000 0.97464  0.50311  0.09051  Biso   1.000  C
  C311     1.0000 0.86051  0.58940  0.25342  Biso   1.000  C
  H191     1.0000 0.83311  0.63522  0.18009  Biso   1.000  H
  C312     1.0000 0.99367  0.59981  0.04907  Biso   1.000  C
  H192     1.0000 0.92020  0.63990  0.04080  Biso   1.000  H
  H193     1.0000 0.85359  0.08911  0.89162  Biso   1.000  H
  H194     1.0000 0.74093  0.09959  0.16710  Biso   1.000  H
  C313     1.0000 0.92025  0.95200  0.92081  Biso   1.000  C
  C314     1.0000 0.78556  0.96302  0.23295  Biso   1.000  C
  C315     1.0000 0.87451  0.53537  0.26858  Biso   1.000  C
  H195     1.0000 0.88621  0.45469  0.23610  Biso   1.000  H
  H196     1.0000 0.98890  0.46890  0.10390  Biso   1.000  H
  C316     1.0000 0.01388  0.54905  0.06846  Biso   1.000  C
  N23      1.0000 0.86065  0.63134  0.30180  Biso   1.000  N
  N24      1.0000 0.03264  0.64062  0.02200  Biso   1.000  N
  H197     1.0000 0.89366  0.91808  0.93405  Biso   1.000  H
  C317     1.0000 0.97858  0.94638  0.91107  Biso   1.000  C
  H198     1.0000 0.76534  0.92342  0.19943  Biso   1.000  H
  C318     1.0000 0.82098  0.96292  0.30279  Biso   1.000  C
  H199     1.0000 0.88343  0.52820  0.30983  Biso   1.000  H
  H200     1.0000 0.05483  0.54588  0.06649  Biso   1.000  H
  C319     1.0000 0.87165  0.69180  0.30353  Biso   1.000  C
  C320     1.0000 0.02716  0.69520  0.01260  Biso   1.000  C
  C321     1.0000 0.99446  0.89197  0.92135  Biso   1.000  C
  C322     1.0000 0.02071  0.99532  0.89217  Biso   1.000  C
  C323     1.0000 0.82668  0.90504  0.31593  Biso   1.000  C
  C324     1.0000 0.84872  0.01729  0.35555  Biso   1.000  C
  H201     1.0000 0.88324  0.71061  0.27311  Biso   1.000  H
  C325     1.0000 0.86691  0.73260  0.35097  Biso   1.000  C
  C326     1.0000 0.05894  0.73399  0.97854  Biso   1.000  C
  H202     1.0000 0.00119  0.71051  0.02870  Biso   1.000  H
  H203     1.0000 0.96586  0.85914  0.93405  Biso   1.000  H
  C327     1.0000 0.05063  0.88332  0.91382  Biso   1.000  C
  C328     1.0000 0.07498  0.98662  0.88237  Biso   1.000  C
  O23      1.0000 0.00890  0.05042  0.88291  Biso   1.000  O
  C329     1.0000 0.85988  0.89876  0.37947  Biso   1.000  C
  H204     1.0000 0.80713  0.86791  0.27990  Biso   1.000  H
  O24      1.0000 0.84496  0.07524  0.34605  Biso   1.000  O
  C330     1.0000 0.88275  0.01293  0.41993  Biso   1.000  C
  C331     1.0000 0.85425  0.70746  0.39876  Biso   1.000  C
  C332     1.0000 0.87141  0.79578  0.34733  Biso   1.000  C
  C333     1.0000 0.09941  0.71519  0.95423  Biso   1.000  C
  C334     1.0000 0.04574  0.78970  0.96599  Biso   1.000  C
  C335     1.0000 0.08979  0.93214  0.89340  Biso   1.000  C
  C336     1.0000 0.06841  0.82601  0.92844  Biso   1.000  C
  H205     1.0000 0.10227  0.01841  0.86795  Biso   1.000  H
  H206     1.0000 0.97377  0.04870  0.88926  Biso   1.000  H
  C337     1.0000 0.88832  0.95448  0.43144  Biso   1.000  C
  C338     1.0000 0.86277  0.83507  0.38902  Biso   1.000  C
  H207     1.0000 0.82765  0.07290  0.30604  Biso   1.000  H
  H208     1.0000 0.90213  0.05002  0.45581  Biso   1.000  H
  O25      1.0000 0.84642  0.64500  0.40324  Biso   1.000  O
  C339     1.0000 0.84768  0.74674  0.44237  Biso   1.000  C
  H209     1.0000 0.88076  0.81281  0.31524  Biso   1.000  H
  O26      1.0000 0.11374  0.66190  0.96506  Biso   1.000  O
  C340     1.0000 0.12334  0.75188  0.91712  Biso   1.000  C
  H210     1.0000 0.02019  0.80328  0.98386  Biso   1.000  H
  H211     1.0000 0.12776  0.92764  0.88695  Biso   1.000  H
  C341     1.0000 0.10745  0.80556  0.90373  Biso   1.000  C
  H212     1.0000 0.91184  0.95224  0.47544  Biso   1.000  H
  C342     1.0000 0.85137  0.80889  0.43700  Biso   1.000  C
  H213     1.0000 0.84677  0.62493  0.37204  Biso   1.000  H
  H214     1.0000 0.84065  0.73062  0.47574  Biso   1.000  H
  H215     1.0000 0.09057  0.64137  0.98273  Biso   1.000  H
  H216     1.0000 0.15096  0.73977  0.90083  Biso   1.000  H
  H217     1.0000 0.12316  0.82904  0.87755  Biso   1.000  H
  H218     1.0000 0.84606  0.83471  0.46673  Biso   1.000  H
