data_image0
_cell_length_a       10.767
_cell_length_b       14.396
_cell_length_c       14.946
_cell_angle_alpha    95.62
_cell_angle_beta     91.07
_cell_angle_gamma    97.16

_symmetry_space_group_name_H-M    "P 1"
_symmetry_int_tables_number       1

loop_
  _symmetry_equiv_pos_as_xyz
  'x, y, z'

loop_
  _atom_site_label
  _atom_site_occupancy
  _atom_site_fract_x
  _atom_site_fract_y
  _atom_site_fract_z
  _atom_site_thermal_displace_type
  _atom_site_B_iso_or_equiv
  _atom_site_type_symbol
  O1       1.0000 0.28040  0.94542  0.83373  Biso   1.000  O
  C1       1.0000 0.20607  0.85968  0.82465  Biso   1.000  C
  C2       1.0000 0.25270  0.01933  0.78053  Biso   1.000  C
  C3       1.0000 0.18603  0.80596  0.74104  Biso   1.000  C
  C4       1.0000 0.16314  0.82253  0.90174  Biso   1.000  C
  H1       1.0000 0.18124  0.99632  0.74044  Biso   1.000  H
  C5       1.0000 0.36271  0.05141  0.72645  Biso   1.000  C
  H2       1.0000 0.23104  0.07215  0.81994  Biso   1.000  H
  O2       1.0000 0.23984  0.84356  0.66894  Biso   1.000  O
  C6       1.0000 0.11866  0.71711  0.73761  Biso   1.000  C
  C7       1.0000 0.10040  0.73127  0.89871  Biso   1.000  C
  H3       1.0000 0.17625  0.85915  0.95676  Biso   1.000  H
  H4       1.0000 0.38052  0.99993  0.68380  Biso   1.000  H
  O3       1.0000 0.47012  0.08288  0.78369  Biso   1.000  O
  H5       1.0000 0.34301  0.10225  0.69282  Biso   1.000  H
  C8       1.0000 0.21420  0.79184  0.58230  Biso   1.000  C
  C9       1.0000 0.07838  0.68062  0.81564  Biso   1.000  C
  H6       1.0000 0.10048  0.68186  0.68232  Biso   1.000  H
  C10      1.0000 0.05143  0.68995  0.98070  Biso   1.000  C
  C11      1.0000 0.57628  0.09767  0.72093  Biso   1.000  C
  C12      1.0000 0.58013  0.13273  0.75860  Biso   1.000  C
  C13      1.0000 0.29473  0.83615  0.51605  Biso   1.000  C
  H7       1.0000 0.23016  0.72727  0.58472  Biso   1.000  H
  H8       1.0000 0.12683  0.79133  0.56495  Biso   1.000  H
  H9       1.0000 0.03524  0.62016  0.81194  Biso   1.000  H
  H10      1.0000 0.00104  0.62994  0.96335  Biso   1.000  H
  H11      1.0000 0.99849  0.73140  0.01185  Biso   1.000  H
  O4       1.0000 0.15432  0.67599  0.04131  Biso   1.000  O
  C14      1.0000 0.69903  0.12107  0.78799  Biso   1.000  C
  H12      1.0000 0.58118  0.04144  0.68044  Biso   1.000  H
  H13      1.0000 0.56705  0.14975  0.68582  Biso   1.000  H
  C15      1.0000 0.67598  0.09804  0.74172  Biso   1.000  C
  H14      1.0000 0.67124  0.07791  0.67775  Biso   1.000  H
  H15      1.0000 0.55887  0.16222  0.70573  Biso   1.000  H
  H16      1.0000 0.60261  0.18334  0.80615  Biso   1.000  H
  O5       1.0000 0.40547  0.79895  0.49863  Biso   1.000  O
  O6       1.0000 0.42976  0.81865  0.56374  Biso   1.000  O
  H17      1.0000 0.31531  0.90239  0.53670  Biso   1.000  H
  H18      1.0000 0.24680  0.83202  0.45981  Biso   1.000  H
  H19      1.0000 0.28671  0.90246  0.51484  Biso   1.000  H
  H20      1.0000 0.28089  0.80369  0.45598  Biso   1.000  H
  C16      1.0000 0.11697  0.62446  0.10682  Biso   1.000  C
  O7       1.0000 0.71420  0.02332  0.78322  Biso   1.000  O
  H21      1.0000 0.68384  0.16982  0.83454  Biso   1.000  H
  H22      1.0000 0.76933  0.14633  0.75409  Biso   1.000  H
  H23      1.0000 0.74422  0.14882  0.75113  Biso   1.000  H
  O8       1.0000 0.73253  0.04663  0.82822  Biso   1.000  O
  C17      1.0000 0.50971  0.86396  0.52614  Biso   1.000  C
  H24      1.0000 0.49522  0.89375  0.58540  Biso   1.000  H
  O9       1.0000 0.01199  0.58400  0.11160  Biso   1.000  O
  C18      1.0000 0.21526  0.62247  0.17805  Biso   1.000  C
  C19      1.0000 0.80055  0.97416  0.76519  Biso   1.000  C
  C20      1.0000 0.83891  0.02155  0.81544  Biso   1.000  C
  H25      1.0000 0.51776  0.91249  0.48524  Biso   1.000  H
  C21      1.0000 0.62903  0.82365  0.52963  Biso   1.000  C
  H26      1.0000 0.52198  0.92814  0.55439  Biso   1.000  H
  H27      1.0000 0.48355  0.86543  0.46392  Biso   1.000  H
  N1       1.0000 0.33678  0.64397  0.15962  Biso   1.000  N
  C22      1.0000 0.17465  0.59930  0.26153  Biso   1.000  C
  C23      1.0000 0.86772  0.92843  0.83064  Biso   1.000  C
  H28      1.0000 0.74038  0.92913  0.72934  Biso   1.000  H
  H29      1.0000 0.85782  0.00631  0.72564  Biso   1.000  H
  H30      1.0000 0.85280  0.06218  0.87133  Biso   1.000  H
  H31      1.0000 0.89640  0.04721  0.77212  Biso   1.000  H
  O10      1.0000 0.63379  0.76523  0.59084  Biso   1.000  O
  H32      1.0000 0.69716  0.87453  0.54134  Biso   1.000  H
  H33      1.0000 0.64166  0.79094  0.47118  Biso   1.000  H
  C24      1.0000 0.41925  0.64553  0.22803  Biso   1.000  C
  C25      1.0000 0.26081  0.60342  0.33094  Biso   1.000  C
  H34      1.0000 0.09021  0.58117  0.27021  Biso   1.000  H
  O11      1.0000 0.78038  0.88679  0.88902  Biso   1.000  O
  H35      1.0000 0.92854  0.97433  0.86481  Biso   1.000  H
  H36      1.0000 0.91208  0.88065  0.79983  Biso   1.000  H
  H37      1.0000 0.95164  0.93303  0.85694  Biso   1.000  H
  H38      1.0000 0.86494  0.88937  0.77373  Biso   1.000  H
  C26      1.0000 0.74707  0.72036  0.59158  Biso   1.000  C
  C27      1.0000 0.55659  0.66733  0.21236  Biso   1.000  C
  C28      1.0000 0.38566  0.62728  0.31433  Biso   1.000  C
  H39      1.0000 0.23547  0.59019  0.38792  Biso   1.000  H
  C29      1.0000 0.77100  0.79283  0.90221  Biso   1.000  C
  H40      1.0000 0.74772  0.67505  0.53918  Biso   1.000  H
  H41      1.0000 0.82030  0.76696  0.59131  Biso   1.000  H
  C30      1.0000 0.74716  0.67214  0.67580  Biso   1.000  C
  O12      1.0000 0.58388  0.65723  0.12613  Biso   1.000  O
  O13      1.0000 0.63200  0.69012  0.27364  Biso   1.000  O
  H42      1.0000 0.44631  0.63129  0.36020  Biso   1.000  H
  C31      1.0000 0.75547  0.71917  0.83393  Biso   1.000  C
  C32      1.0000 0.76064  0.77323  0.99032  Biso   1.000  C
  O14      1.0000 0.76218  0.74425  0.74864  Biso   1.000  O
  H43      1.0000 0.81551  0.63411  0.67640  Biso   1.000  H
  H44      1.0000 0.66890  0.63156  0.68003  Biso   1.000  H
  C33      1.0000 0.71860  0.66518  0.10924  Biso   1.000  C
  C34      1.0000 0.73104  0.62656  0.85593  Biso   1.000  C
  H45      1.0000 0.77224  0.82237  0.03599  Biso   1.000  H
  C35      1.0000 0.73335  0.68127  0.01252  Biso   1.000  C
  H46      1.0000 0.76331  0.71740  0.14765  Biso   1.000  H
  H47      1.0000 0.75171  0.60786  0.12135  Biso   1.000  H
  C36      1.0000 0.71998  0.60883  0.94452  Biso   1.000  C
  H48      1.0000 0.72240  0.57675  0.81059  Biso   1.000  H
  H49      1.0000 0.70329  0.54717  0.95851  Biso   1.000  H
  C37      1.0000 0.25290  0.27975  0.40842  Biso   1.000  C
  C38      1.0000 0.25280  0.32790  0.32421  Biso   1.000  C
  O15      1.0000 0.36617  0.23481  0.40923  Biso   1.000  O
  H50      1.0000 0.25215  0.32505  0.46082  Biso   1.000  H
  H51      1.0000 0.17966  0.23315  0.40869  Biso   1.000  H
  O16      1.0000 0.23778  0.25580  0.25143  Biso   1.000  O
  H52      1.0000 0.18444  0.36592  0.32361  Biso   1.000  H
  H53      1.0000 0.33107  0.36855  0.32004  Biso   1.000  H
  C39      1.0000 0.37094  0.17646  0.47044  Biso   1.000  C
  C40      1.0000 0.24449  0.28094  0.16607  Biso   1.000  C
  C41      1.0000 0.49026  0.13615  0.47394  Biso   1.000  C
  H54      1.0000 0.30280  0.12551  0.45874  Biso   1.000  H
  H55      1.0000 0.35831  0.20916  0.52883  Biso   1.000  H
  C42      1.0000 0.22895  0.20721  0.09780  Biso   1.000  C
  C43      1.0000 0.26891  0.37347  0.14408  Biso   1.000  C
  O17      1.0000 0.59449  0.20115  0.50138  Biso   1.000  O
  H56      1.0000 0.48219  0.08755  0.51484  Biso   1.000  H
  H57      1.0000 0.50474  0.10636  0.41461  Biso   1.000  H
  H58      1.0000 0.47798  0.07190  0.44562  Biso   1.000  H
  H59      1.0000 0.51641  0.13460  0.53609  Biso   1.000  H
  O18      1.0000 0.57019  0.18139  0.43634  Biso   1.000  O
  O19      1.0000 0.21958  0.11325  0.11098  Biso   1.000  O
  C44      1.0000 0.23931  0.22681  0.00969  Biso   1.000  C
  C45      1.0000 0.27997  0.39120  0.05549  Biso   1.000  C
  H60      1.0000 0.27755  0.42328  0.18941  Biso   1.000  H
  C46      1.0000 0.70524  0.16396  0.48403  Biso   1.000  C
  C47      1.0000 0.13224  0.07161  0.16944  Biso   1.000  C
  H61      1.0000 0.22771  0.17766  0.96401  Biso   1.000  H
  C48      1.0000 0.26660  0.31876  0.98749  Biso   1.000  C
  H62      1.0000 0.29666  0.45287  0.04150  Biso   1.000  H
  C49      1.0000 0.78566  0.20820  0.41771  Biso   1.000  C
  H63      1.0000 0.68464  0.09764  0.46331  Biso   1.000  H
  H64      1.0000 0.75306  0.16801  0.54019  Biso   1.000  H
  H65      1.0000 0.71326  0.09765  0.48524  Biso   1.000  H
  H66      1.0000 0.71897  0.19635  0.54403  Biso   1.000  H
  H67      1.0000 0.07141  0.02571  0.13520  Biso   1.000  H
  H68      1.0000 0.08787  0.11939  0.20018  Biso   1.000  H
  C50      1.0000 0.19941  0.02595  0.23482  Biso   1.000  C
  H69      1.0000 0.04831  0.06701  0.14314  Biso   1.000  H
  H70      1.0000 0.13503  0.11074  0.22627  Biso   1.000  H
  C51      1.0000 0.16104  0.97849  0.18457  Biso   1.000  C
  C52      1.0000 0.28136  0.33486  0.89076  Biso   1.000  C
  O20      1.0000 0.76012  0.15648  0.33114  Biso   1.000  O
  H71      1.0000 0.76980  0.27284  0.41529  Biso   1.000  H
  H72      1.0000 0.87312  0.20871  0.43513  Biso   1.000  H
  H73      1.0000 0.25957  0.07091  0.27074  Biso   1.000  H
  O21      1.0000 0.28576  0.97672  0.21679  Biso   1.000  O
  H74      1.0000 0.14213  0.99373  0.27444  Biso   1.000  H
  O22      1.0000 0.26742  0.95340  0.17179  Biso   1.000  O
  H75      1.0000 0.14717  0.93792  0.12868  Biso   1.000  H
  H76      1.0000 0.10355  0.95283  0.22789  Biso   1.000  H
  O23      1.0000 0.41608  0.34280  0.87388  Biso   1.000  O
  H77      1.0000 0.23664  0.28264  0.85242  Biso   1.000  H
  H78      1.0000 0.24825  0.39218  0.87872  Biso   1.000  H
  C53      1.0000 0.81394  0.19415  0.25903  Biso   1.000  C
  C54      1.0000 0.30093  0.87904  0.21201  Biso   1.000  C
  C55      1.0000 0.32388  0.90199  0.25829  Biso   1.000  C
  C56      1.0000 0.44338  0.33278  0.78772  Biso   1.000  C
  C57      1.0000 0.88129  0.28293  0.26240  Biso   1.000  C
  C58      1.0000 0.79390  0.14043  0.17542  Biso   1.000  C
  H79      1.0000 0.31611  0.83023  0.16554  Biso   1.000  H
  H80      1.0000 0.23062  0.85371  0.24592  Biso   1.000  H
  C59      1.0000 0.42359  0.90244  0.27908  Biso   1.000  C
  H81      1.0000 0.25574  0.85122  0.24888  Biso   1.000  H
  C60      1.0000 0.41983  0.86730  0.24141  Biso   1.000  C
  H82      1.0000 0.32871  0.92213  0.32233  Biso   1.000  H
  O24      1.0000 0.36796  0.30999  0.72637  Biso   1.000  O
  C61      1.0000 0.58072  0.35457  0.77198  Biso   1.000  C
  C62      1.0000 0.92158  0.31942  0.18444  Biso   1.000  C
  H83      1.0000 0.89948  0.31825  0.31769  Biso   1.000  H
  O25      1.0000 0.71946  0.05462  0.16628  Biso   1.000  O
  C63      1.0000 0.83681  0.17750  0.09827  Biso   1.000  C
  O26      1.0000 0.52983  0.91716  0.21632  Biso   1.000  O
  H84      1.0000 0.41868  0.95861  0.31964  Biso   1.000  H
  H85      1.0000 0.43290  0.85028  0.31419  Biso   1.000  H
  H86      1.0000 0.44108  0.83782  0.29428  Biso   1.000  H
  H87      1.0000 0.39735  0.81671  0.19392  Biso   1.000  H
  N2       1.0000 0.66317  0.35607  0.84038  Biso   1.000  N
  C64      1.0000 0.61429  0.37275  0.68568  Biso   1.000  C
  H88      1.0000 0.96472  0.37988  0.18814  Biso   1.000  H
  C65      1.0000 0.89957  0.26884  0.10130  Biso   1.000  C
  C66      1.0000 0.74725  0.98071  0.21948  Biso   1.000  C
  H89      1.0000 0.82371  0.14089  0.04332  Biso   1.000  H
  C67      1.0000 0.63724  0.94863  0.27363  Biso   1.000  C
  C68      1.0000 0.78470  0.37758  0.82202  Biso   1.000  C
  H90      1.0000 0.55365  0.36874  0.63980  Biso   1.000  H
  C69      1.0000 0.73914  0.39662  0.66906  Biso   1.000  C
  C70      1.0000 0.94843  0.31008  0.01930  Biso   1.000  C
  H91      1.0000 0.81872  0.00372  0.25964  Biso   1.000  H
  H92      1.0000 0.76891  0.92789  0.18013  Biso   1.000  H
  H93      1.0000 0.61943  0.00011  0.31621  Biso   1.000  H
  H94      1.0000 0.65694  0.89778  0.30719  Biso   1.000  H
  C71      1.0000 0.82531  0.40074  0.73848  Biso   1.000  C
  C72      1.0000 0.88299  0.37558  0.89319  Biso   1.000  C
  H95      1.0000 0.76448  0.40985  0.61209  Biso   1.000  H
  O27      1.0000 0.84554  0.32405  0.95870  Biso   1.000  O
  H96      1.0000 0.99892  0.37010  0.03673  Biso   1.000  H
  H97      1.0000 0.00146  0.26864  0.98823  Biso   1.000  H
  H98      1.0000 0.90974  0.41886  0.72980  Biso   1.000  H
  O28      1.0000 0.98796  0.41603  0.88841  Biso   1.000  O
  Ne1      1.0000 0.52113  0.19179  0.13789  Biso   1.000  Ne
  He1      1.0000 0.55781  0.27750  0.07491  Biso   1.000  He
  He2      1.0000 0.34865  0.05215  0.35989  Biso   1.000  He
  He3      1.0000 0.56480  0.26929  0.04306  Biso   1.000  He
  Ar1      1.0000 0.51859  0.19242  0.13744  Biso   1.000  Ar
  Ne2      1.0000 0.47882  0.80826  0.86213  Biso   1.000  Ne
  He4      1.0000 0.42102  0.68738  0.90904  Biso   1.000  He
  He5      1.0000 0.00000  0.00000  0.00000  Biso   1.000  He
  He6      1.0000 0.65256  0.94863  0.63967  Biso   1.000  He
  Ar2      1.0000 0.48136  0.80763  0.86259  Biso   1.000  Ar
