data_image0
_cell_length_a       14.034
_cell_length_b       18.437
_cell_length_c       22.964
_cell_angle_alpha    99.54
_cell_angle_beta     104.45
_cell_angle_gamma    108.53

_symmetry_space_group_name_H-M    "P 1"
_symmetry_int_tables_number       1

loop_
  _symmetry_equiv_pos_as_xyz
  'x, y, z'

loop_
  _atom_site_label
  _atom_site_occupancy
  _atom_site_fract_x
  _atom_site_fract_y
  _atom_site_fract_z
  _atom_site_thermal_displace_type
  _atom_site_B_iso_or_equiv
  _atom_site_type_symbol
  C1       1.0000 0.67681  0.25190  0.61714  Biso   1.000  C
  O1       1.0000 0.60839  0.22922  0.55252  Biso   1.000  O
  C2       1.0000 0.77741  0.23934  0.61635  Biso   1.000  C
  H1       1.0000 0.64182  0.21963  0.64071  Biso   1.000  H
  H2       1.0000 0.69271  0.30722  0.63651  Biso   1.000  H
  C3       1.0000 0.51882  0.16763  0.53539  Biso   1.000  C
  C4       1.0000 0.86979  0.30432  0.62816  Biso   1.000  C
  C5       1.0000 0.77684  0.16363  0.60161  Biso   1.000  C
  C6       1.0000 0.46678  0.14113  0.46591  Biso   1.000  C
  O2       1.0000 0.48256  0.13413  0.57034  Biso   1.000  O
  C7       1.0000 0.96208  0.29201  0.62559  Biso   1.000  C
  H3       1.0000 0.87029  0.35552  0.63758  Biso   1.000  H
  C8       1.0000 0.86891  0.15152  0.59848  Biso   1.000  C
  H4       1.0000 0.71461  0.12023  0.59358  Biso   1.000  H
  N1       1.0000 0.51840  0.18088  0.43269  Biso   1.000  N
  C9       1.0000 0.37121  0.07564  0.43932  Biso   1.000  C
  C10      1.0000 0.96331  0.21654  0.61103  Biso   1.000  C
  O3       1.0000 0.04841  0.36047  0.63735  Biso   1.000  O
  O4       1.0000 0.85946  0.07454  0.58336  Biso   1.000  O
  C11      1.0000 0.47683  0.15375  0.37030  Biso   1.000  C
  C12      1.0000 0.33053  0.04886  0.37544  Biso   1.000  C
  H5       1.0000 0.33598  0.05073  0.46419  Biso   1.000  H
  H6       1.0000 0.02530  0.20924  0.60958  Biso   1.000  H
  C13      1.0000 0.14953  0.35609  0.64500  Biso   1.000  C
  C14      1.0000 0.94872  0.05813  0.57426  Biso   1.000  C
  C15      1.0000 0.53943  0.20425  0.33760  Biso   1.000  C
  C16      1.0000 0.38491  0.08716  0.33997  Biso   1.000  C
  H7       1.0000 0.26693  0.00535  0.35631  Biso   1.000  H
  C17      1.0000 0.22872  0.43863  0.66031  Biso   1.000  C
  H8       1.0000 0.14954  0.32410  0.60688  Biso   1.000  H
  H9       1.0000 0.16728  0.33188  0.67850  Biso   1.000  H
  H10      1.0000 0.96556  0.07673  0.53959  Biso   1.000  H
  C18      1.0000 0.92050  0.97026  0.56096  Biso   1.000  C
  H11      1.0000 0.01037  0.08515  0.61140  Biso   1.000  H
  O5       1.0000 0.51128  0.16653  0.27670  Biso   1.000  O
  O6       1.0000 0.60519  0.26949  0.36144  Biso   1.000  O
  H12      1.0000 0.36040  0.06874  0.29667  Biso   1.000  H
  O7       1.0000 0.21469  0.46442  0.60604  Biso   1.000  O
  H13      1.0000 0.21803  0.47327  0.69259  Biso   1.000  H
  H14      1.0000 0.30010  0.43948  0.67528  Biso   1.000  H
  O8       1.0000 0.84421  0.93248  0.50072  Biso   1.000  O
  H15      1.0000 0.98373  0.95847  0.56297  Biso   1.000  H
  H16      1.0000 0.89194  0.95045  0.59209  Biso   1.000  H
  C19      1.0000 0.57423  0.21047  0.24301  Biso   1.000  C
  C20      1.0000 0.28850  0.54138  0.61248  Biso   1.000  C
  C21      1.0000 0.81262  0.84880  0.48710  Biso   1.000  C
  C22      1.0000 0.68421  0.20798  0.25944  Biso   1.000  C
  H17      1.0000 0.58001  0.26523  0.25318  Biso   1.000  H
  H18      1.0000 0.53842  0.18786  0.19850  Biso   1.000  H
  C23      1.0000 0.33069  0.53942  0.55919  Biso   1.000  C
  H19      1.0000 0.34637  0.55831  0.65139  Biso   1.000  H
  H20      1.0000 0.25361  0.57910  0.61341  Biso   1.000  H
  C24      1.0000 0.73801  0.81227  0.42131  Biso   1.000  C
  H21      1.0000 0.77756  0.82900  0.51589  Biso   1.000  H
  H22      1.0000 0.87453  0.83461  0.49181  Biso   1.000  H
  C25      1.0000 0.77193  0.27906  0.27908  Biso   1.000  C
  C26      1.0000 0.69715  0.13679  0.25430  Biso   1.000  C
  O9       1.0000 0.24569  0.51193  0.50198  Biso   1.000  O
  H23      1.0000 0.37903  0.59220  0.56269  Biso   1.000  H
  H24      1.0000 0.36991  0.50448  0.56008  Biso   1.000  H
  O10      1.0000 0.79677  0.82710  0.37954  Biso   1.000  O
  H25      1.0000 0.70303  0.75562  0.41449  Biso   1.000  H
  H26      1.0000 0.68417  0.83510  0.41407  Biso   1.000  H
  C27      1.0000 0.87260  0.27725  0.29345  Biso   1.000  C
  H27      1.0000 0.76280  0.32724  0.28249  Biso   1.000  H
  C28      1.0000 0.79917  0.13525  0.26998  Biso   1.000  C
  H28      1.0000 0.63790  0.08957  0.24040  Biso   1.000  H
  C29      1.0000 0.28450  0.50953  0.44958  Biso   1.000  C
  C30      1.0000 0.73090  0.80768  0.31678  Biso   1.000  C
  O11      1.0000 0.96392  0.34363  0.31207  Biso   1.000  O
  C31      1.0000 0.88788  0.20547  0.29014  Biso   1.000  C
  O12      1.0000 0.80324  0.06111  0.26205  Biso   1.000  O
  C32      1.0000 0.19489  0.46194  0.39028  Biso   1.000  C
  H29      1.0000 0.33761  0.48586  0.45551  Biso   1.000  H
  H30      1.0000 0.31770  0.56309  0.44678  Biso   1.000  H
  C33      1.0000 0.79596  0.84463  0.27936  Biso   1.000  C
  H31      1.0000 0.67395  0.82711  0.31520  Biso   1.000  H
  H32      1.0000 0.69963  0.75051  0.29971  Biso   1.000  H
  C34      1.0000 0.95253  0.41545  0.30339  Biso   1.000  C
  H33      1.0000 0.95595  0.20477  0.30120  Biso   1.000  H
  C35      1.0000 0.90459  0.05458  0.28258  Biso   1.000  C
  O13      1.0000 0.12888  0.50510  0.37436  Biso   1.000  O
  H34      1.0000 0.22318  0.45072  0.35691  Biso   1.000  H
  H35      1.0000 0.15359  0.41183  0.39569  Biso   1.000  H
  O14      1.0000 0.82422  0.92802  0.29803  Biso   1.000  O
  H36      1.0000 0.85935  0.83221  0.28641  Biso   1.000  H
  H37      1.0000 0.75547  0.82401  0.23531  Biso   1.000  H
  H38      1.0000 0.92291  0.43514  0.33358  Biso   1.000  H
  H39      1.0000 0.90450  0.40583  0.26191  Biso   1.000  H
  C36      1.0000 0.06038  0.47605  0.31170  Biso   1.000  C
  H40      1.0000 0.93680  0.07716  0.32738  Biso   1.000  H
  H41      1.0000 0.95140  0.08318  0.26238  Biso   1.000  H
  C37      1.0000 0.88825  0.96890  0.26630  Biso   1.000  C
  H42      1.0000 0.09388  0.45205  0.28617  Biso   1.000  H
  H43      1.0000 0.05100  0.52031  0.29667  Biso   1.000  H
  H44      1.0000 0.85444  0.94621  0.22169  Biso   1.000  H
  H45      1.0000 0.95644  0.96330  0.27778  Biso   1.000  H
  C38      1.0000 0.76451  0.31018  0.77668  Biso   1.000  C
  C39      1.0000 0.67918  0.24018  0.76459  Biso   1.000  C
  H46      1.0000 0.75351  0.35707  0.77528  Biso   1.000  H
  C40      1.0000 0.86683  0.31040  0.79096  Biso   1.000  C
  C41      1.0000 0.56827  0.24070  0.74775  Biso   1.000  C
  C42      1.0000 0.69542  0.17041  0.76716  Biso   1.000  C
  O15      1.0000 0.94709  0.38251  0.80402  Biso   1.000  O
  C43      1.0000 0.88449  0.24061  0.79282  Biso   1.000  C
  O16      1.0000 0.50635  0.19497  0.78088  Biso   1.000  O
  H47      1.0000 0.53317  0.21839  0.70309  Biso   1.000  H
  H48      1.0000 0.57219  0.29499  0.75820  Biso   1.000  H
  H49      1.0000 0.63792  0.12342  0.75918  Biso   1.000  H
  C44      1.0000 0.79802  0.17070  0.78167  Biso   1.000  C
  C45      1.0000 0.05034  0.38401  0.80981  Biso   1.000  C
  H50      1.0000 0.95284  0.24061  0.80141  Biso   1.000  H
  C46      1.0000 0.53655  0.23021  0.84238  Biso   1.000  C
  O17      1.0000 0.80629  0.09923  0.78480  Biso   1.000  O
  C47      1.0000 0.12683  0.46826  0.82880  Biso   1.000  C
  H51      1.0000 0.07079  0.35721  0.84088  Biso   1.000  H
  H52      1.0000 0.05128  0.35647  0.77029  Biso   1.000  H
  O18      1.0000 0.60247  0.29551  0.86776  Biso   1.000  O
  C48      1.0000 0.47941  0.17617  0.87513  Biso   1.000  C
  C49      1.0000 0.91105  0.09683  0.79931  Biso   1.000  C
  O19      1.0000 0.14302  0.49288  0.88447  Biso   1.000  O
  H53      1.0000 0.09673  0.49957  0.80561  Biso   1.000  H
  H54      1.0000 0.19243  0.47100  0.82087  Biso   1.000  H
  H55      1.0000 0.19680  0.46798  0.83169  Biso   1.000  H
  H56      1.0000 0.10720  0.49267  0.79590  Biso   1.000  H
  O20      1.0000 0.13402  0.51869  0.88820  Biso   1.000  O
  N2       1.0000 0.52315  0.19985  0.93729  Biso   1.000  N
  C50      1.0000 0.39022  0.10839  0.84364  Biso   1.000  C
  H57      1.0000 0.93887  0.10542  0.76529  Biso   1.000  H
  H58      1.0000 0.95861  0.13818  0.83669  Biso   1.000  H
  C51      1.0000 0.90375  0.01742  0.80888  Biso   1.000  C
  C52      1.0000 0.23650  0.57155  0.92040  Biso   1.000  C
  C53      1.0000 0.47373  0.15598  0.96948  Biso   1.000  C
  H59      1.0000 0.36509  0.09273  0.80020  Biso   1.000  H
  C54      1.0000 0.33881  0.06419  0.87775  Biso   1.000  C
  H60      1.0000 0.86734  0.00599  0.83907  Biso   1.000  H
  H61      1.0000 0.97444  0.01731  0.82507  Biso   1.000  H
  O21      1.0000 0.84716  0.95808  0.75120  Biso   1.000  O
  C55      1.0000 0.30982  0.55044  0.96640  Biso   1.000  C
  H62      1.0000 0.27028  0.58555  0.88969  Biso   1.000  H
  H63      1.0000 0.23152  0.61938  0.94200  Biso   1.000  H
  C56      1.0000 0.38021  0.08956  0.94219  Biso   1.000  C
  C57      1.0000 0.52425  0.17907  0.03887  Biso   1.000  C
  H64      1.0000 0.27812  0.01857  0.85778  Biso   1.000  H
  C58      1.0000 0.83667  0.87978  0.75409  Biso   1.000  C
  H65      1.0000 0.37598  0.59584  0.98656  Biso   1.000  H
  H66      1.0000 0.32543  0.50767  0.94541  Biso   1.000  H
  O22      1.0000 0.26339  0.52627  0.01265  Biso   1.000  O
  H67      1.0000 0.34614  0.06270  0.96668  Biso   1.000  H
  O23      1.0000 0.62261  0.22989  0.05730  Biso   1.000  O
  O24      1.0000 0.48001  0.15179  0.07326  Biso   1.000  O
  H68      1.0000 0.81511  0.84673  0.71187  Biso   1.000  H
  H69      1.0000 0.90576  0.88077  0.77640  Biso   1.000  H
  C59      1.0000 0.75826  0.84147  0.78517  Biso   1.000  C
  C60      1.0000 0.33207  0.50474  0.05506  Biso   1.000  C
  C61      1.0000 0.68690  0.24238  0.12188  Biso   1.000  C
  O25      1.0000 0.80644  0.86060  0.84994  Biso   1.000  O
  H70      1.0000 0.73002  0.78437  0.76828  Biso   1.000  H
  H71      1.0000 0.69954  0.85943  0.77640  Biso   1.000  H
  C62      1.0000 0.30331  0.50528  0.10937  Biso   1.000  C
  H72      1.0000 0.32827  0.45208  0.03677  Biso   1.000  H
  H73      1.0000 0.40449  0.54173  0.06528  Biso   1.000  H
  C63      1.0000 0.78426  0.22657  0.11945  Biso   1.000  C
  H74      1.0000 0.70627  0.29648  0.14577  Biso   1.000  H
  H75      1.0000 0.64720  0.20647  0.14148  Biso   1.000  H
  C64      1.0000 0.73321  0.82742  0.88059  Biso   1.000  C
  O26      1.0000 0.21871  0.45510  0.09990  Biso   1.000  O
  H76      1.0000 0.35408  0.49379  0.13989  Biso   1.000  H
  H77      1.0000 0.30148  0.55676  0.12538  Biso   1.000  H
  H78      1.0000 0.30647  0.55793  0.12697  Biso   1.000  H
  H79      1.0000 0.35648  0.49712  0.14096  Biso   1.000  H
  C65      1.0000 0.77629  0.14968  0.10107  Biso   1.000  C
  C66      1.0000 0.88007  0.28755  0.13397  Biso   1.000  C
  C67      1.0000 0.78998  0.84355  0.94867  Biso   1.000  C
  H80      1.0000 0.67937  0.85035  0.87518  Biso   1.000  H
  H81      1.0000 0.69837  0.77053  0.86198  Biso   1.000  H
  C68      1.0000 0.18119  0.45316  0.15520  Biso   1.000  C
  C69      1.0000 0.86481  0.13346  0.09659  Biso   1.000  C
  H82      1.0000 0.71142  0.10819  0.09160  Biso   1.000  H
  C70      1.0000 0.96831  0.27048  0.12967  Biso   1.000  C
  H83      1.0000 0.88620  0.33985  0.14647  Biso   1.000  H
  O27      1.0000 0.82873  0.92584  0.97690  Biso   1.000  O
  H84      1.0000 0.84842  0.82531  0.95409  Biso   1.000  H
  H85      1.0000 0.74160  0.81511  0.96818  Biso   1.000  H
  C71      1.0000 0.06783  0.39749  0.14320  Biso   1.000  C
  O28      1.0000 0.17070  0.43356  0.09510  Biso   1.000  O
  H86      1.0000 0.23407  0.43844  0.18109  Biso   1.000  H
  H87      1.0000 0.19351  0.50857  0.17129  Biso   1.000  H
  O29      1.0000 0.84794  0.05510  0.07657  Biso   1.000  O
  C72      1.0000 0.96170  0.19377  0.11147  Biso   1.000  C
  O30      1.0000 0.07271  0.34106  0.17447  Biso   1.000  O
  O31      1.0000 0.05870  0.32418  0.12930  Biso   1.000  O
  C73      1.0000 0.89422  0.94752  0.04008  Biso   1.000  C
  H88      1.0000 0.02021  0.40656  0.10909  Biso   1.000  H
  H89      1.0000 0.04747  0.40858  0.18007  Biso   1.000  H
  C74      1.0000 0.16831  0.34954  0.10238  Biso   1.000  C
  C75      1.0000 0.93322  0.03540  0.06439  Biso   1.000  C
  H90      1.0000 0.02127  0.18296  0.10928  Biso   1.000  H
  C76      1.0000 0.16270  0.33896  0.16070  Biso   1.000  C
  H91      1.0000 0.85392  0.92174  0.06458  Biso   1.000  H
  H92      1.0000 0.95386  0.93096  0.04270  Biso   1.000  H
  H93      1.0000 0.21419  0.32458  0.09020  Biso   1.000  H
  H94      1.0000 0.09796  0.32244  0.07177  Biso   1.000  H
  H95      1.0000 0.95613  0.06100  0.03397  Biso   1.000  H
  H96      1.0000 0.99310  0.05336  0.10247  Biso   1.000  H
  H97      1.0000 0.22438  0.37985  0.19267  Biso   1.000  H
  H98      1.0000 0.16762  0.28826  0.16318  Biso   1.000  H
  O32      1.0000 0.39480  0.73037  0.63856  Biso   1.000  O
  C77      1.0000 0.46056  0.79561  0.66241  Biso   1.000  C
  C78      1.0000 0.52313  0.84610  0.62965  Biso   1.000  C
  O33      1.0000 0.48863  0.83333  0.72330  Biso   1.000  O
  N3       1.0000 0.48158  0.81899  0.56731  Biso   1.000  N
  C79      1.0000 0.61507  0.91270  0.66003  Biso   1.000  C
  C80      1.0000 0.42576  0.78939  0.75699  Biso   1.000  C
  C81      1.0000 0.53318  0.85872  0.53404  Biso   1.000  C
  C82      1.0000 0.66946  0.95100  0.62456  Biso   1.000  C
  H99      1.0000 0.63954  0.93105  0.70328  Biso   1.000  H
  C83      1.0000 0.31575  0.79187  0.74052  Biso   1.000  C
  H100     1.0000 0.41992  0.73455  0.74677  Biso   1.000  H
  H101     1.0000 0.46157  0.81200  0.80150  Biso   1.000  H
  C84      1.0000 0.48116  0.83223  0.46461  Biso   1.000  C
  C85      1.0000 0.62875  0.92421  0.56064  Biso   1.000  C
  H102     1.0000 0.73305  0.99451  0.64369  Biso   1.000  H
  C86      1.0000 0.22803  0.72079  0.72087  Biso   1.000  C
  C87      1.0000 0.30284  0.86307  0.74570  Biso   1.000  C
  O34      1.0000 0.39154  0.77057  0.44744  Biso   1.000  O
  O35      1.0000 0.51743  0.86573  0.42966  Biso   1.000  O
  H103     1.0000 0.66400  0.94913  0.53581  Biso   1.000  H
  C88      1.0000 0.12736  0.72260  0.70650  Biso   1.000  C
  H104     1.0000 0.23716  0.67257  0.71751  Biso   1.000  H
  C89      1.0000 0.20072  0.86460  0.72997  Biso   1.000  C
  H105     1.0000 0.36208  0.91030  0.75960  Biso   1.000  H
  C90      1.0000 0.32315  0.74794  0.38281  Biso   1.000  C
  O36      1.0000 0.03606  0.65623  0.68793  Biso   1.000  O
  C91      1.0000 0.11201  0.79437  0.70981  Biso   1.000  C
  O37      1.0000 0.19670  0.93868  0.73790  Biso   1.000  O
  C92      1.0000 0.22255  0.76051  0.38360  Biso   1.000  C
  H106     1.0000 0.35816  0.78023  0.35929  Biso   1.000  H
  H107     1.0000 0.30728  0.69264  0.36349  Biso   1.000  H
  C93      1.0000 0.04746  0.58441  0.69661  Biso   1.000  C
  H108     1.0000 0.04404  0.79510  0.69880  Biso   1.000  H
  C94      1.0000 0.09530  0.94527  0.71737  Biso   1.000  C
  C95      1.0000 0.13012  0.69554  0.37184  Biso   1.000  C
  C96      1.0000 0.22315  0.83623  0.39839  Biso   1.000  C
  H109     1.0000 0.07705  0.56471  0.66637  Biso   1.000  H
  H110     1.0000 0.09547  0.59397  0.73809  Biso   1.000  H
  C97      1.0000 0.93960  0.52381  0.68830  Biso   1.000  C
  H111     1.0000 0.06316  0.92268  0.67258  Biso   1.000  H
  H112     1.0000 0.04849  0.91666  0.73758  Biso   1.000  H
  C98      1.0000 0.11173  0.03096  0.73370  Biso   1.000  C
  C99      1.0000 0.03788  0.70783  0.37436  Biso   1.000  C
  H113     1.0000 0.12967  0.64433  0.36237  Biso   1.000  H
  C100     1.0000 0.13105  0.84832  0.40147  Biso   1.000  C
  H114     1.0000 0.28535  0.87962  0.40637  Biso   1.000  H
  O38      1.0000 0.87108  0.49474  0.62559  Biso   1.000  O
  H115     1.0000 0.90608  0.54779  0.71378  Biso   1.000  H
  H116     1.0000 0.94894  0.47947  0.70328  Biso   1.000  H
  O39      1.0000 0.17572  0.07177  0.70193  Biso   1.000  O
  H117     1.0000 0.14552  0.05364  0.77827  Biso   1.000  H
  H118     1.0000 0.04352  0.03654  0.72218  Biso   1.000  H
  C101     1.0000 0.03665  0.78331  0.38892  Biso   1.000  C
  O40      1.0000 0.95158  0.63939  0.36265  Biso   1.000  O
  O41      1.0000 0.14053  0.92532  0.41664  Biso   1.000  O
  C102     1.0000 0.80507  0.53791  0.60968  Biso   1.000  C
  C103     1.0000 0.20400  0.15522  0.72059  Biso   1.000  C
  H119     1.0000 0.97468  0.79062  0.39042  Biso   1.000  H
  C104     1.0000 0.85043  0.64371  0.35500  Biso   1.000  C
  C105     1.0000 0.05127  0.94174  0.42574  Biso   1.000  C
  C106     1.0000 0.71546  0.49032  0.55037  Biso   1.000  C
  H120     1.0000 0.77678  0.54908  0.64309  Biso   1.000  H
  H121     1.0000 0.84640  0.58803  0.60431  Biso   1.000  H
  C107     1.0000 0.26897  0.19211  0.68317  Biso   1.000  C
  H122     1.0000 0.14062  0.16760  0.71359  Biso   1.000  H
  H123     1.0000 0.24449  0.17579  0.76469  Biso   1.000  H
  C108     1.0000 0.77127  0.56123  0.33969  Biso   1.000  C
  H124     1.0000 0.85042  0.67574  0.39308  Biso   1.000  H
  H125     1.0000 0.83261  0.66792  0.32150  Biso   1.000  H
  H126     1.0000 0.03443  0.92313  0.46041  Biso   1.000  H
  H127     1.0000 0.98962  0.91471  0.38860  Biso   1.000  H
  C109     1.0000 0.07939  0.02954  0.43904  Biso   1.000  C
  O42      1.0000 0.75429  0.48793  0.49802  Biso   1.000  O
  H128     1.0000 0.66238  0.51401  0.54449  Biso   1.000  H
  H129     1.0000 0.68224  0.43669  0.55317  Biso   1.000  H
  O43      1.0000 0.20320  0.17270  0.62046  Biso   1.000  O
  H130     1.0000 0.32604  0.17275  0.68480  Biso   1.000  H
  H131     1.0000 0.30036  0.24935  0.70029  Biso   1.000  H
  O44      1.0000 0.78522  0.53544  0.39396  Biso   1.000  O
  H132     1.0000 0.78193  0.52653  0.30741  Biso   1.000  H
  H133     1.0000 0.69986  0.56032  0.32472  Biso   1.000  H
  O45      1.0000 0.15570  0.06738  0.49928  Biso   1.000  O
  H134     1.0000 0.01623  0.04137  0.43698  Biso   1.000  H
  H135     1.0000 0.10802  0.04935  0.40791  Biso   1.000  H
  C110     1.0000 0.66929  0.46044  0.44081  Biso   1.000  C
  C111     1.0000 0.26195  0.18753  0.57869  Biso   1.000  C
  C112     1.0000 0.71144  0.45841  0.38748  Biso   1.000  C
  C113     1.0000 0.18730  0.15106  0.51290  Biso   1.000  C
  H136     1.0000 0.62096  0.40766  0.43731  Biso   1.000  H
  H137     1.0000 0.63003  0.49531  0.43988  Biso   1.000  H
  H138     1.0000 0.29689  0.24424  0.58551  Biso   1.000  H
  H139     1.0000 0.31579  0.16474  0.58588  Biso   1.000  H
  H140     1.0000 0.65354  0.44155  0.34861  Biso   1.000  H
  H141     1.0000 0.74637  0.42076  0.38659  Biso   1.000  H
  H142     1.0000 0.22243  0.17086  0.48411  Biso   1.000  H
  H143     1.0000 0.12538  0.16525  0.50819  Biso   1.000  H
  C114     1.0000 0.43164  0.75916  0.25225  Biso   1.000  C
  C115     1.0000 0.32078  0.75966  0.23536  Biso   1.000  C
  O46      1.0000 0.49364  0.80489  0.21912  Biso   1.000  O
  H144     1.0000 0.46679  0.78142  0.29691  Biso   1.000  H
  H145     1.0000 0.42777  0.70482  0.24180  Biso   1.000  H
  C116     1.0000 0.23548  0.68968  0.22332  Biso   1.000  C
  C117     1.0000 0.30457  0.82945  0.23284  Biso   1.000  C
  C118     1.0000 0.46344  0.76965  0.15762  Biso   1.000  C
  C119     1.0000 0.13313  0.68945  0.20900  Biso   1.000  C
  H146     1.0000 0.24642  0.64271  0.22467  Biso   1.000  H
  C120     1.0000 0.20194  0.82915  0.21828  Biso   1.000  C
  H147     1.0000 0.36207  0.87644  0.24082  Biso   1.000  H
  O47      1.0000 0.39745  0.70435  0.13224  Biso   1.000  O
  C121     1.0000 0.52055  0.82367  0.12482  Biso   1.000  C
  O48      1.0000 0.05289  0.61735  0.19598  Biso   1.000  O
  C122     1.0000 0.11542  0.75925  0.20718  Biso   1.000  C
  O49      1.0000 0.19367  0.90062  0.21516  Biso   1.000  O
  N4       1.0000 0.47671  0.79994  0.06267  Biso   1.000  N
  C123     1.0000 0.60976  0.89147  0.15636  Biso   1.000  C
  C124     1.0000 0.94964  0.61585  0.19019  Biso   1.000  C
  H148     1.0000 0.04715  0.75925  0.19859  Biso   1.000  H
  C125     1.0000 0.08894  0.90303  0.20069  Biso   1.000  C
  C126     1.0000 0.52625  0.84389  0.03052  Biso   1.000  C
  H149     1.0000 0.63482  0.90713  0.19980  Biso   1.000  H
  C127     1.0000 0.66117  0.93567  0.12225  Biso   1.000  C
  C128     1.0000 0.87313  0.53154  0.17120  Biso   1.000  C
  H150     1.0000 0.92919  0.64265  0.15912  Biso   1.000  H
  H151     1.0000 0.94868  0.64334  0.22971  Biso   1.000  H
  H152     1.0000 0.06112  0.89444  0.23471  Biso   1.000  H
  H153     1.0000 0.04135  0.86163  0.16331  Biso   1.000  H
  C129     1.0000 0.09622  0.98243  0.19108  Biso   1.000  C
  C130     1.0000 0.61976  0.91024  0.05781  Biso   1.000  C
  C131     1.0000 0.47567  0.82079  0.96113  Biso   1.000  C
  H154     1.0000 0.72181  0.98121  0.14218  Biso   1.000  H
  O50      1.0000 0.85694  0.50697  0.11549  Biso   1.000  O
  H155     1.0000 0.90323  0.50023  0.19439  Biso   1.000  H
  H156     1.0000 0.80753  0.52884  0.17909  Biso   1.000  H
  H157     1.0000 0.80318  0.53188  0.16831  Biso   1.000  H
  H158     1.0000 0.89276  0.50713  0.20410  Biso   1.000  H
  O51      1.0000 0.86597  0.48118  0.11180  Biso   1.000  O
  H159     1.0000 0.13263  0.99386  0.16089  Biso   1.000  H
  H160     1.0000 0.02552  0.98254  0.17489  Biso   1.000  H
  O52      1.0000 0.15281  0.04172  0.24880  Biso   1.000  O
  H161     1.0000 0.65384  0.93716  0.03332  Biso   1.000  H
  O53      1.0000 0.37735  0.76995  0.94265  Biso   1.000  O
  O54      1.0000 0.51997  0.84807  0.92674  Biso   1.000  O
  C132     1.0000 0.76346  0.42826  0.07960  Biso   1.000  C
  C133     1.0000 0.16332  0.12008  0.24591  Biso   1.000  C
  C134     1.0000 0.31306  0.75747  0.87807  Biso   1.000  C
  C135     1.0000 0.69014  0.44936  0.03360  Biso   1.000  C
  H162     1.0000 0.72968  0.41425  0.11031  Biso   1.000  H
  H163     1.0000 0.76847  0.38048  0.05800  Biso   1.000  H
  H164     1.0000 0.18483  0.15305  0.28809  Biso   1.000  H
  H165     1.0000 0.09423  0.11909  0.22360  Biso   1.000  H
  C136     1.0000 0.24170  0.15837  0.21478  Biso   1.000  C
  C137     1.0000 0.21570  0.77328  0.88050  Biso   1.000  C
  H166     1.0000 0.29369  0.70336  0.85418  Biso   1.000  H
  H167     1.0000 0.35279  0.79339  0.85852  Biso   1.000  H
  O55      1.0000 0.73658  0.47358  0.98731  Biso   1.000  O
  H168     1.0000 0.62398  0.40400  0.01339  Biso   1.000  H
  H169     1.0000 0.67456  0.49219  0.05459  Biso   1.000  H
  O56      1.0000 0.19354  0.13926  0.15006  Biso   1.000  O
  H170     1.0000 0.26987  0.21547  0.23167  Biso   1.000  H
  H171     1.0000 0.30042  0.14037  0.22360  Biso   1.000  H
  C138     1.0000 0.22367  0.85017  0.89888  Biso   1.000  C
  C139     1.0000 0.11989  0.71229  0.86599  Biso   1.000  C
  C140     1.0000 0.66787  0.49504  0.94489  Biso   1.000  C
  C141     1.0000 0.26668  0.17238  0.11941  Biso   1.000  C
  C142     1.0000 0.13515  0.86635  0.90341  Biso   1.000  C
  H172     1.0000 0.28856  0.89167  0.90840  Biso   1.000  H
  C143     1.0000 0.03165  0.72936  0.87028  Biso   1.000  C
  H173     1.0000 0.11376  0.65999  0.85348  Biso   1.000  H
  C144     1.0000 0.69665  0.49457  0.89058  Biso   1.000  C
  H174     1.0000 0.67169  0.54776  0.96318  Biso   1.000  H
  H175     1.0000 0.59547  0.45807  0.93472  Biso   1.000  H
  C145     1.0000 0.20998  0.15629  0.05128  Biso   1.000  C
  H176     1.0000 0.32062  0.14951  0.12482  Biso   1.000  H
  H177     1.0000 0.30157  0.22926  0.13798  Biso   1.000  H
  C146     1.0000 0.03826  0.80608  0.88848  Biso   1.000  C
  O57      1.0000 0.15202  0.94475  0.92338  Biso   1.000  O
  O58      1.0000 0.92725  0.65878  0.82549  Biso   1.000  O
  O59      1.0000 0.94129  0.67568  0.87070  Biso   1.000  O
  O60      1.0000 0.78128  0.54476  0.90010  Biso   1.000  O
  H178     1.0000 0.64590  0.50607  0.86011  Biso   1.000  H
  H179     1.0000 0.69850  0.44310  0.87462  Biso   1.000  H
  H180     1.0000 0.69347  0.44186  0.87299  Biso   1.000  H
  H181     1.0000 0.64345  0.50266  0.85899  Biso   1.000  H
  O61      1.0000 0.17125  0.07402  0.02310  Biso   1.000  O
  H182     1.0000 0.15155  0.17449  0.04591  Biso   1.000  H
  H183     1.0000 0.25826  0.18468  0.03178  Biso   1.000  H
  H184     1.0000 0.97869  0.81685  0.89072  Biso   1.000  H
  C147     1.0000 0.06677  0.96446  0.93561  Biso   1.000  C
  C148     1.0000 0.93215  0.60237  0.85680  Biso   1.000  C
  C149     1.0000 0.83729  0.66090  0.83930  Biso   1.000  C
  C150     1.0000 0.83163  0.65025  0.89758  Biso   1.000  C
  C151     1.0000 0.81879  0.54670  0.84480  Biso   1.000  C
  C152     1.0000 0.10576  0.05234  0.95992  Biso   1.000  C
  H185     1.0000 0.04383  0.93885  0.96598  Biso   1.000  H
  H186     1.0000 0.00686  0.94648  0.89748  Biso   1.000  H
  H187     1.0000 0.97978  0.59330  0.89091  Biso   1.000  H
  H188     1.0000 0.95250  0.59127  0.81989  Biso   1.000  H
  H189     1.0000 0.77558  0.62000  0.80729  Biso   1.000  H
  H190     1.0000 0.83237  0.71160  0.83683  Biso   1.000  H
  O62      1.0000 0.82929  0.56630  0.90490  Biso   1.000  O
  H191     1.0000 0.78579  0.67528  0.90980  Biso   1.000  H
  H192     1.0000 0.90197  0.67735  0.92819  Biso   1.000  H
  H193     1.0000 0.76589  0.56136  0.81891  Biso   1.000  H
  H194     1.0000 0.80648  0.49129  0.82871  Biso   1.000  H
  H195     1.0000 0.14607  0.07812  0.93542  Biso   1.000  H
  H196     1.0000 0.04613  0.06890  0.95730  Biso   1.000  H
