data_image0
_cell_length_a       15.884
_cell_length_b       12.48
_cell_length_c       14.175
_cell_angle_alpha    90
_cell_angle_beta     90
_cell_angle_gamma    90

_symmetry_space_group_name_H-M    "P 1"
_symmetry_int_tables_number       1

loop_
  _symmetry_equiv_pos_as_xyz
  'x, y, z'

loop_
  _atom_site_label
  _atom_site_occupancy
  _atom_site_fract_x
  _atom_site_fract_y
  _atom_site_fract_z
  _atom_site_thermal_displace_type
  _atom_site_B_iso_or_equiv
  _atom_site_type_symbol
  C1       1.0000 0.86389  0.87380  0.67908  Biso   1.000  C
  N1       1.0000 0.80049  0.94303  0.70060  Biso   1.000  N
  N2       1.0000 0.91438  0.92155  0.61298  Biso   1.000  N
  O1       1.0000 0.87421  0.78534  0.71217  Biso   1.000  O
  C2       1.0000 0.73502  0.91795  0.76741  Biso   1.000  C
  C3       1.0000 0.80408  0.04151  0.64607  Biso   1.000  C
  C4       1.0000 0.88328  0.02500  0.58370  Biso   1.000  C
  C5       1.0000 0.98193  0.86418  0.56748  Biso   1.000  C
  H1       1.0000 0.68257  0.94952  0.74575  Biso   1.000  H
  N3       1.0000 0.75233  0.95561  0.86215  Biso   1.000  N
  H2       1.0000 0.72727  0.84079  0.76910  Biso   1.000  H
  H3       1.0000 0.72734  0.84079  0.76910  Biso   1.000  H
  N4       1.0000 0.82391  0.13734  0.69841  Biso   1.000  N
  H4       1.0000 0.75340  0.05096  0.60762  Biso   1.000  H
  N5       1.0000 0.93560  0.11546  0.60776  Biso   1.000  N
  H5       1.0000 0.86874  0.02532  0.51647  Biso   1.000  H
  H6       1.0000 0.98288  0.88373  0.50131  Biso   1.000  H
  H7       1.0000 0.97028  0.78798  0.57129  Biso   1.000  H
  N6       1.0000 0.06440  0.88462  0.60776  Biso   1.000  N
  N7       1.0000 0.06447  0.88462  0.60776  Biso   1.000  N
  C6       1.0000 0.78437  0.88870  0.93037  Biso   1.000  C
  C7       1.0000 0.72904  0.06026  0.89877  Biso   1.000  C
  C8       1.0000 0.89958  0.18085  0.67365  Biso   1.000  C
  C9       1.0000 0.76712  0.18886  0.76451  Biso   1.000  C
  C10      1.0000 0.01813  0.13582  0.56748  Biso   1.000  C
  C11      1.0000 0.11672  0.97500  0.58370  Biso   1.000  C
  C12      1.0000 0.10042  0.81923  0.67365  Biso   1.000  C
  O2       1.0000 0.80251  0.79527  0.91986  Biso   1.000  O
  N8       1.0000 0.79042  0.94599  0.01256  Biso   1.000  N
  H8       1.0000 0.66797  0.07171  0.89608  Biso   1.000  H
  N9       1.0000 0.77455  0.14984  0.86039  Biso   1.000  N
  H9       1.0000 0.66803  0.07171  0.89608  Biso   1.000  H
  C13      1.0000 0.76146  0.05473  0.00268  Biso   1.000  C
  O3       1.0000 0.92924  0.26370  0.70392  Biso   1.000  O
  H10      1.0000 0.77802  0.26530  0.76409  Biso   1.000  H
  H11      1.0000 0.70971  0.17804  0.74321  Biso   1.000  H
  H12      1.0000 0.01712  0.11627  0.50131  Biso   1.000  H
  H13      1.0000 0.02972  0.21202  0.57129  Biso   1.000  H
  N10      1.0000 0.08562  0.07853  0.61298  Biso   1.000  N
  H14      1.0000 0.01712  0.11635  0.50131  Biso   1.000  H
  C14      1.0000 0.19592  0.95849  0.64607  Biso   1.000  C
  H15      1.0000 0.13133  0.97476  0.51647  Biso   1.000  H
  N11      1.0000 0.17609  0.86274  0.69841  Biso   1.000  N
  O4       1.0000 0.07076  0.73638  0.70392  Biso   1.000  O
  C15      1.0000 0.82819  0.90048  0.09594  Biso   1.000  C
  C16      1.0000 0.82819  0.90056  0.09594  Biso   1.000  C
  C17      1.0000 0.82939  0.19495  0.92409  Biso   1.000  C
  N12      1.0000 0.82731  0.13542  0.00444  Biso   1.000  N
  H16      1.0000 0.71663  0.07123  0.04790  Biso   1.000  H
  C18      1.0000 0.13611  0.12620  0.67908  Biso   1.000  C
  H17      1.0000 0.24660  0.94912  0.60762  Biso   1.000  H
  N13      1.0000 0.19951  0.05705  0.70060  Biso   1.000  N
  C19      1.0000 0.23288  0.81122  0.76451  Biso   1.000  C
  C20      1.0000 0.23294  0.81122  0.76451  Biso   1.000  C
  H18      1.0000 0.79948  0.92893  0.15097  Biso   1.000  H
  N14      1.0000 0.91740  0.92139  0.10533  Biso   1.000  N
  H19      1.0000 0.81938  0.82364  0.09531  Biso   1.000  H
  O5       1.0000 0.87107  0.27524  0.91041  Biso   1.000  O
  C21      1.0000 0.86911  0.16987  0.09009  Biso   1.000  C
  C22      1.0000 0.86911  0.16995  0.09009  Biso   1.000  C
  O6       1.0000 0.12585  0.21474  0.71217  Biso   1.000  O
  C23      1.0000 0.26498  0.08213  0.76741  Biso   1.000  C
  H20      1.0000 0.22198  0.73470  0.76409  Biso   1.000  H
  H21      1.0000 0.29029  0.82204  0.74321  Biso   1.000  H
  N15      1.0000 0.22545  0.85016  0.86039  Biso   1.000  N
  N16      1.0000 0.22545  0.85024  0.86039  Biso   1.000  N
  C24      1.0000 0.97664  0.84599  0.08346  Biso   1.000  C
  C25      1.0000 0.95259  0.01210  0.15626  Biso   1.000  C
  N17      1.0000 0.94705  0.11362  0.10787  Biso   1.000  N
  H22      1.0000 0.88082  0.24615  0.08564  Biso   1.000  H
  H23      1.0000 0.83153  0.15905  0.14307  Biso   1.000  H
  H24      1.0000 0.27273  0.15921  0.76910  Biso   1.000  H
  H25      1.0000 0.31743  0.05048  0.74575  Biso   1.000  H
  N18      1.0000 0.24767  0.04439  0.86215  Biso   1.000  N
  H26      1.0000 0.31743  0.05056  0.74575  Biso   1.000  H
  C26      1.0000 0.17061  0.80513  0.92409  Biso   1.000  C
  C27      1.0000 0.27103  0.93982  0.89877  Biso   1.000  C
  O7       1.0000 0.96298  0.75873  0.04832  Biso   1.000  O
  N19      1.0000 0.05295  0.88638  0.10787  Biso   1.000  N
  N20      1.0000 0.05295  0.88646  0.10787  Biso   1.000  N
  H27      1.0000 0.93012  0.01675  0.22060  Biso   1.000  H
  C28      1.0000 0.04741  0.98790  0.15626  Biso   1.000  C
  C29      1.0000 0.02336  0.15401  0.08346  Biso   1.000  C
  C30      1.0000 0.21563  0.11130  0.93037  Biso   1.000  C
  O8       1.0000 0.12893  0.72484  0.91041  Biso   1.000  O
  N21      1.0000 0.17269  0.86458  0.00444  Biso   1.000  N
  H28      1.0000 0.33203  0.92829  0.89608  Biso   1.000  H
  C31      1.0000 0.23854  0.94535  0.00268  Biso   1.000  C
  C32      1.0000 0.13089  0.83013  0.09009  Biso   1.000  C
  H29      1.0000 0.06988  0.98333  0.22060  Biso   1.000  H
  N22      1.0000 0.08260  0.07861  0.10533  Biso   1.000  N
  O9       1.0000 0.03708  0.24127  0.04832  Biso   1.000  O
  O10      1.0000 0.19756  0.20473  0.91986  Biso   1.000  O
  N23      1.0000 0.20958  0.05401  0.01256  Biso   1.000  N
  H30      1.0000 0.28343  0.92877  0.04790  Biso   1.000  H
  H31      1.0000 0.28343  0.92885  0.04790  Biso   1.000  H
  H32      1.0000 0.11918  0.75393  0.08564  Biso   1.000  H
  H33      1.0000 0.16847  0.84103  0.14307  Biso   1.000  H
  H34      1.0000 0.16853  0.84103  0.14307  Biso   1.000  H
  C33      1.0000 0.17181  0.09952  0.09594  Biso   1.000  C
  H35      1.0000 0.18062  0.17644  0.09531  Biso   1.000  H
  H36      1.0000 0.20052  0.07115  0.15097  Biso   1.000  H
  C34      1.0000 0.69592  0.54151  0.35386  Biso   1.000  C
  C35      1.0000 0.61672  0.52500  0.41630  Biso   1.000  C
  N24      1.0000 0.69951  0.44303  0.29940  Biso   1.000  N
  N25      1.0000 0.67609  0.63734  0.30159  Biso   1.000  N
  H37      1.0000 0.74660  0.55088  0.39238  Biso   1.000  H
  N26      1.0000 0.58562  0.42147  0.38702  Biso   1.000  N
  N27      1.0000 0.56440  0.61538  0.39224  Biso   1.000  N
  H38      1.0000 0.63133  0.52532  0.48346  Biso   1.000  H
  C36      1.0000 0.63611  0.37380  0.32092  Biso   1.000  C
  C37      1.0000 0.76498  0.41795  0.23259  Biso   1.000  C
  C38      1.0000 0.60042  0.68085  0.32628  Biso   1.000  C
  C39      1.0000 0.73288  0.68878  0.23549  Biso   1.000  C
  C40      1.0000 0.51813  0.36418  0.43252  Biso   1.000  C
  C41      1.0000 0.48193  0.63582  0.43252  Biso   1.000  C
  O11      1.0000 0.62585  0.28534  0.28783  Biso   1.000  O
  H39      1.0000 0.77273  0.34079  0.23090  Biso   1.000  H
  H40      1.0000 0.81743  0.44952  0.25418  Biso   1.000  H
  N28      1.0000 0.74767  0.45561  0.13778  Biso   1.000  N
  O12      1.0000 0.57076  0.76370  0.29608  Biso   1.000  O
  H41      1.0000 0.72198  0.76530  0.23591  Biso   1.000  H
  H42      1.0000 0.79029  0.67804  0.25679  Biso   1.000  H
  N29      1.0000 0.72545  0.64984  0.13961  Biso   1.000  N
  N30      1.0000 0.43560  0.38462  0.39224  Biso   1.000  N
  H43      1.0000 0.51712  0.38373  0.49869  Biso   1.000  H
  H44      1.0000 0.52972  0.28798  0.42871  Biso   1.000  H
  N31      1.0000 0.41438  0.57853  0.38702  Biso   1.000  N
  H45      1.0000 0.48288  0.61635  0.49869  Biso   1.000  H
  H46      1.0000 0.47028  0.71202  0.42871  Biso   1.000  H
  C42      1.0000 0.71563  0.38870  0.06963  Biso   1.000  C
  C43      1.0000 0.77103  0.56018  0.10116  Biso   1.000  C
  C44      1.0000 0.67061  0.69495  0.07591  Biso   1.000  C
  C45      1.0000 0.39958  0.31923  0.32628  Biso   1.000  C
  C46      1.0000 0.38328  0.47500  0.41630  Biso   1.000  C
  C47      1.0000 0.36389  0.62620  0.32092  Biso   1.000  C
  N32      1.0000 0.70958  0.44599  0.98737  Biso   1.000  N
  O13      1.0000 0.69749  0.29527  0.08014  Biso   1.000  O
  C48      1.0000 0.73854  0.55473  0.99732  Biso   1.000  C
  H47      1.0000 0.83203  0.57171  0.10392  Biso   1.000  H
  N33      1.0000 0.67269  0.63542  0.99549  Biso   1.000  N
  O14      1.0000 0.62893  0.77524  0.08959  Biso   1.000  O
  N34      1.0000 0.32391  0.36274  0.30159  Biso   1.000  N
  O15      1.0000 0.42924  0.23638  0.29608  Biso   1.000  O
  C49      1.0000 0.30408  0.45849  0.35386  Biso   1.000  C
  H48      1.0000 0.36867  0.47468  0.48346  Biso   1.000  H
  N35      1.0000 0.30049  0.55705  0.29940  Biso   1.000  N
  O16      1.0000 0.37421  0.71474  0.28783  Biso   1.000  O
  C50      1.0000 0.67181  0.40048  0.90399  Biso   1.000  C
  H49      1.0000 0.78343  0.57123  0.95210  Biso   1.000  H
  C51      1.0000 0.63089  0.66995  0.90991  Biso   1.000  C
  C52      1.0000 0.26712  0.31122  0.23549  Biso   1.000  C
  H50      1.0000 0.25340  0.44912  0.39238  Biso   1.000  H
  C53      1.0000 0.23502  0.58213  0.23259  Biso   1.000  C
  N36      1.0000 0.58260  0.42139  0.89467  Biso   1.000  N
  H51      1.0000 0.68062  0.32364  0.90469  Biso   1.000  H
  H52      1.0000 0.70052  0.42893  0.84903  Biso   1.000  H
  N37      1.0000 0.55295  0.61362  0.89213  Biso   1.000  N
  H53      1.0000 0.61918  0.74615  0.91429  Biso   1.000  H
  H54      1.0000 0.66853  0.65905  0.85693  Biso   1.000  H
  H55      1.0000 0.27802  0.23470  0.23591  Biso   1.000  H
  H56      1.0000 0.20971  0.32204  0.25679  Biso   1.000  H
  N38      1.0000 0.27455  0.35024  0.13961  Biso   1.000  N
  N39      1.0000 0.25233  0.54439  0.13778  Biso   1.000  N
  H57      1.0000 0.22727  0.65921  0.23090  Biso   1.000  H
  H58      1.0000 0.18257  0.55048  0.25418  Biso   1.000  H
  C54      1.0000 0.52336  0.34599  0.91647  Biso   1.000  C
  C55      1.0000 0.54741  0.51210  0.84367  Biso   1.000  C
  C56      1.0000 0.47664  0.65401  0.91647  Biso   1.000  C
  C57      1.0000 0.32939  0.30513  0.07591  Biso   1.000  C
  C58      1.0000 0.22897  0.43982  0.10116  Biso   1.000  C
  C59      1.0000 0.28437  0.61130  0.06963  Biso   1.000  C
  N40      1.0000 0.44705  0.38638  0.89213  Biso   1.000  N
  O17      1.0000 0.53708  0.25873  0.95160  Biso   1.000  O
  C60      1.0000 0.45259  0.48790  0.84367  Biso   1.000  C
  H59      1.0000 0.56988  0.51675  0.77940  Biso   1.000  H
  N41      1.0000 0.41740  0.57861  0.89467  Biso   1.000  N
  O18      1.0000 0.46298  0.74127  0.95160  Biso   1.000  O
  O19      1.0000 0.37107  0.22484  0.08959  Biso   1.000  O
  N42      1.0000 0.32731  0.36458  0.99549  Biso   1.000  N
  H60      1.0000 0.16803  0.42829  0.10392  Biso   1.000  H
  C61      1.0000 0.26146  0.44527  0.99732  Biso   1.000  C
  N43      1.0000 0.29042  0.55401  0.98737  Biso   1.000  N
  O20      1.0000 0.30251  0.70473  0.08014  Biso   1.000  O
  C62      1.0000 0.36911  0.33013  0.90991  Biso   1.000  C
  H61      1.0000 0.43012  0.48333  0.77940  Biso   1.000  H
  C63      1.0000 0.32819  0.59952  0.90399  Biso   1.000  C
  H62      1.0000 0.21657  0.42885  0.95210  Biso   1.000  H
  H63      1.0000 0.38082  0.25393  0.91429  Biso   1.000  H
  H64      1.0000 0.33153  0.34103  0.85693  Biso   1.000  H
  H65      1.0000 0.31938  0.67644  0.90469  Biso   1.000  H
  H66      1.0000 0.29948  0.57107  0.84903  Biso   1.000  H
