data_image0
_cell_length_a       15.884
_cell_length_b       12.48
_cell_length_c       14.175
_cell_angle_alpha    90
_cell_angle_beta     90
_cell_angle_gamma    90

_symmetry_space_group_name_H-M    "P 1"
_symmetry_int_tables_number       1

loop_
  _symmetry_equiv_pos_as_xyz
  'x, y, z'

loop_
  _atom_site_label
  _atom_site_occupancy
  _atom_site_fract_x
  _atom_site_fract_y
  _atom_site_fract_z
  _atom_site_thermal_displace_type
  _atom_site_B_iso_or_equiv
  _atom_site_type_symbol
  C1       1.0000 0.13473  0.12428  0.67908  Biso   1.000  C
  N1       1.0000 0.08505  0.07837  0.61319  Biso   1.000  N
  N2       1.0000 0.08505  0.07845  0.61319  Biso   1.000  N
  N3       1.0000 0.19963  0.05673  0.70116  Biso   1.000  N
  O1       1.0000 0.12679  0.21595  0.71132  Biso   1.000  O
  O2       1.0000 0.12686  0.21595  0.71132  Biso   1.000  O
  C2       1.0000 0.01694  0.13486  0.56776  Biso   1.000  C
  C3       1.0000 0.01687  0.13478  0.56776  Biso   1.000  C
  C4       1.0000 0.13473  0.12436  0.67908  Biso   1.000  C
  C5       1.0000 0.01687  0.13486  0.56776  Biso   1.000  C
  C6       1.0000 0.01694  0.13478  0.56776  Biso   1.000  C
  C7       1.0000 0.11823  0.97452  0.58399  Biso   1.000  C
  C8       1.0000 0.19624  0.95817  0.64578  Biso   1.000  C
  C9       1.0000 0.19624  0.95825  0.64578  Biso   1.000  C
  C10      1.0000 0.19630  0.95817  0.64578  Biso   1.000  C
  C11      1.0000 0.19630  0.95825  0.64578  Biso   1.000  C
  C12      1.0000 0.26542  0.08173  0.76776  Biso   1.000  C
  H1       1.0000 0.02852  0.21194  0.57058  Biso   1.000  H
  H2       1.0000 0.01530  0.11410  0.50109  Biso   1.000  H
  N4       1.0000 0.93578  0.11498  0.60882  Biso   1.000  N
  H3       1.0000 0.13271  0.97388  0.51612  Biso   1.000  H
  N5       1.0000 0.06422  0.88502  0.60882  Biso   1.000  N
  H4       1.0000 0.13271  0.97396  0.51612  Biso   1.000  H
  N6       1.0000 0.06422  0.88510  0.60882  Biso   1.000  N
  H5       1.0000 0.24767  0.94872  0.60720  Biso   1.000  H
  N7       1.0000 0.17716  0.86362  0.69912  Biso   1.000  N
  H6       1.0000 0.24773  0.94872  0.60720  Biso   1.000  H
  H7       1.0000 0.31818  0.04960  0.74589  Biso   1.000  H
  H8       1.0000 0.27329  0.15962  0.76959  Biso   1.000  H
  N8       1.0000 0.24817  0.04415  0.86208  Biso   1.000  N
  C13      1.0000 0.89984  0.17909  0.67309  Biso   1.000  C
  C14      1.0000 0.88177  0.02548  0.58399  Biso   1.000  C
  C15      1.0000 0.89984  0.17917  0.67309  Biso   1.000  C
  C16      1.0000 0.88177  0.02556  0.58399  Biso   1.000  C
  C17      1.0000 0.98313  0.86522  0.56776  Biso   1.000  C
  C18      1.0000 0.10016  0.82091  0.67309  Biso   1.000  C
  C19      1.0000 0.23294  0.81202  0.76416  Biso   1.000  C
  C20      1.0000 0.21556  0.11122  0.93079  Biso   1.000  C
  C21      1.0000 0.27071  0.94006  0.89989  Biso   1.000  C
  C22      1.0000 0.27071  0.94014  0.89989  Biso   1.000  C
  N9       1.0000 0.82284  0.13638  0.69912  Biso   1.000  N
  O3       1.0000 0.92993  0.26418  0.70392  Biso   1.000  O
  O4       1.0000 0.92993  0.26426  0.70392  Biso   1.000  O
  N10      1.0000 0.91495  0.92163  0.61319  Biso   1.000  N
  H9       1.0000 0.86729  0.02612  0.51612  Biso   1.000  H
  C23      1.0000 0.80376  0.04183  0.64578  Biso   1.000  C
  H10      1.0000 0.97148  0.78806  0.57058  Biso   1.000  H
  H11      1.0000 0.98470  0.88590  0.50109  Biso   1.000  H
  H12      1.0000 0.97148  0.78814  0.57058  Biso   1.000  H
  O5       1.0000 0.07007  0.73582  0.70392  Biso   1.000  O
  H13      1.0000 0.29098  0.82276  0.74279  Biso   1.000  H
  H14      1.0000 0.22173  0.73478  0.76332  Biso   1.000  H
  N11      1.0000 0.22601  0.84968  0.86004  Biso   1.000  N
  H15      1.0000 0.29098  0.82284  0.74279  Biso   1.000  H
  H16      1.0000 0.22173  0.73486  0.76332  Biso   1.000  H
  O6       1.0000 0.19680  0.20537  0.92042  Biso   1.000  O
  O7       1.0000 0.19680  0.20545  0.92042  Biso   1.000  O
  N12      1.0000 0.20977  0.05377  0.01164  Biso   1.000  N
  H17      1.0000 0.33228  0.92869  0.89778  Biso   1.000  H
  C24      1.0000 0.23848  0.94567  0.00289  Biso   1.000  C
  C25      1.0000 0.23848  0.94575  0.00289  Biso   1.000  C
  C26      1.0000 0.76706  0.18798  0.76416  Biso   1.000  C
  C27      1.0000 0.76706  0.18806  0.76416  Biso   1.000  C
  C28      1.0000 0.86527  0.87572  0.67908  Biso   1.000  C
  N13      1.0000 0.80037  0.94327  0.70116  Biso   1.000  N
  H18      1.0000 0.75233  0.05128  0.60720  Biso   1.000  H
  H19      1.0000 0.75233  0.05136  0.60720  Biso   1.000  H
  C29      1.0000 0.17030  0.80537  0.92416  Biso   1.000  C
  C30      1.0000 0.17030  0.80545  0.92416  Biso   1.000  C
  C31      1.0000 0.17130  0.09848  0.09665  Biso   1.000  C
  C32      1.0000 0.17130  0.09856  0.09665  Biso   1.000  C
  H20      1.0000 0.28368  0.92933  0.04875  Biso   1.000  H
  N14      1.0000 0.17269  0.86482  0.00416  Biso   1.000  N
  H21      1.0000 0.70902  0.17724  0.74279  Biso   1.000  H
  H22      1.0000 0.77827  0.26522  0.76332  Biso   1.000  H
  N15      1.0000 0.77399  0.15032  0.86004  Biso   1.000  N
  N16      1.0000 0.77399  0.15040  0.86004  Biso   1.000  N
  H23      1.0000 0.77833  0.26522  0.76332  Biso   1.000  H
  O8       1.0000 0.87321  0.78405  0.71132  Biso   1.000  O
  C33      1.0000 0.73458  0.91827  0.76776  Biso   1.000  C
  C34      1.0000 0.73458  0.91835  0.76776  Biso   1.000  C
  O9       1.0000 0.12862  0.72540  0.90998  Biso   1.000  O
  H24      1.0000 0.19989  0.06883  0.15210  Biso   1.000  H
  H25      1.0000 0.18018  0.17620  0.09707  Biso   1.000  H
  N17      1.0000 0.08323  0.07772  0.10490  Biso   1.000  N
  N18      1.0000 0.08323  0.07780  0.10490  Biso   1.000  N
  C35      1.0000 0.13120  0.82901  0.08945  Biso   1.000  C
  C36      1.0000 0.82970  0.19463  0.92416  Biso   1.000  C
  C37      1.0000 0.72929  0.05994  0.89989  Biso   1.000  C
  H26      1.0000 0.68182  0.95040  0.74589  Biso   1.000  H
  H27      1.0000 0.72671  0.84038  0.76959  Biso   1.000  H
  N19      1.0000 0.75183  0.95585  0.86208  Biso   1.000  N
  N20      1.0000 0.75183  0.95593  0.86208  Biso   1.000  N
  C38      1.0000 0.04728  0.98822  0.15563  Biso   1.000  C
  C39      1.0000 0.02373  0.15433  0.08360  Biso   1.000  C
  H28      1.0000 0.16942  0.83870  0.14300  Biso   1.000  H
  H29      1.0000 0.11880  0.75232  0.08395  Biso   1.000  H
  N21      1.0000 0.05345  0.88662  0.10787  Biso   1.000  N
  N22      1.0000 0.05351  0.88662  0.10787  Biso   1.000  N
  O10      1.0000 0.87138  0.27460  0.90998  Biso   1.000  O
  N23      1.0000 0.82731  0.13518  0.00416  Biso   1.000  N
  H30      1.0000 0.66772  0.07131  0.89778  Biso   1.000  H
  C40      1.0000 0.76152  0.05433  0.00289  Biso   1.000  C
  C41      1.0000 0.78444  0.88878  0.93079  Biso   1.000  C
  C42      1.0000 0.95272  0.01178  0.15563  Biso   1.000  C
  C43      1.0000 0.95272  0.01186  0.15563  Biso   1.000  C
  H31      1.0000 0.06969  0.98373  0.22067  Biso   1.000  H
  N24      1.0000 0.94655  0.11338  0.10787  Biso   1.000  N
  N25      1.0000 0.94655  0.11346  0.10787  Biso   1.000  N
  O11      1.0000 0.03740  0.24079  0.04861  Biso   1.000  O
  C44      1.0000 0.97627  0.84567  0.08360  Biso   1.000  C
  C45      1.0000 0.97627  0.84575  0.08360  Biso   1.000  C
  C46      1.0000 0.86880  0.17099  0.08945  Biso   1.000  C
  N26      1.0000 0.79023  0.94623  0.01164  Biso   1.000  N
  H32      1.0000 0.71632  0.07067  0.04875  Biso   1.000  H
  H33      1.0000 0.71632  0.07075  0.04875  Biso   1.000  H
  O12      1.0000 0.80320  0.79463  0.92042  Biso   1.000  O
  N27      1.0000 0.91677  0.92228  0.10490  Biso   1.000  N
  H34      1.0000 0.93031  0.01627  0.22067  Biso   1.000  H
  H35      1.0000 0.93031  0.01635  0.22067  Biso   1.000  H
  O13      1.0000 0.96260  0.75921  0.04861  Biso   1.000  O
  O14      1.0000 0.96267  0.75921  0.04861  Biso   1.000  O
  H36      1.0000 0.83058  0.16130  0.14300  Biso   1.000  H
  H37      1.0000 0.88120  0.24768  0.08395  Biso   1.000  H
  H38      1.0000 0.88120  0.24776  0.08395  Biso   1.000  H
  C47      1.0000 0.82870  0.90152  0.09665  Biso   1.000  C
  H39      1.0000 0.80011  0.93117  0.15210  Biso   1.000  H
  H40      1.0000 0.81982  0.82380  0.09707  Biso   1.000  H
  H41      1.0000 0.80011  0.93125  0.15210  Biso   1.000  H
  C48      1.0000 0.13473  0.12428  0.67908  Biso   1.000  C
  N28      1.0000 0.08505  0.07845  0.61319  Biso   1.000  N
  N29      1.0000 0.19963  0.05673  0.70116  Biso   1.000  N
  O15      1.0000 0.12679  0.21595  0.71132  Biso   1.000  O
  N30      1.0000 0.08505  0.07837  0.61319  Biso   1.000  N
  O16      1.0000 0.12686  0.21595  0.71132  Biso   1.000  O
  C49      1.0000 0.13473  0.12436  0.67908  Biso   1.000  C
  C50      1.0000 0.11823  0.97452  0.58399  Biso   1.000  C
  C51      1.0000 0.01687  0.13478  0.56776  Biso   1.000  C
  C52      1.0000 0.01687  0.13486  0.56776  Biso   1.000  C
  C53      1.0000 0.01694  0.13478  0.56776  Biso   1.000  C
  C54      1.0000 0.01694  0.13486  0.56776  Biso   1.000  C
  C55      1.0000 0.19624  0.95817  0.64578  Biso   1.000  C
  C56      1.0000 0.19624  0.95825  0.64578  Biso   1.000  C
  C57      1.0000 0.19630  0.95817  0.64578  Biso   1.000  C
  C58      1.0000 0.19630  0.95825  0.64578  Biso   1.000  C
  C59      1.0000 0.26542  0.08173  0.76776  Biso   1.000  C
  H42      1.0000 0.13271  0.97388  0.51612  Biso   1.000  H
  N31      1.0000 0.06422  0.88502  0.60882  Biso   1.000  N
  H43      1.0000 0.13271  0.97396  0.51612  Biso   1.000  H
  N32      1.0000 0.06422  0.88510  0.60882  Biso   1.000  N
  H44      1.0000 0.02852  0.21194  0.57058  Biso   1.000  H
  H45      1.0000 0.01530  0.11410  0.50109  Biso   1.000  H
  N33      1.0000 0.93578  0.11498  0.60882  Biso   1.000  N
  H46      1.0000 0.24767  0.94872  0.60720  Biso   1.000  H
  N34      1.0000 0.17716  0.86362  0.69912  Biso   1.000  N
  H47      1.0000 0.24773  0.94872  0.60720  Biso   1.000  H
  H48      1.0000 0.31818  0.04960  0.74589  Biso   1.000  H
  H49      1.0000 0.27329  0.15962  0.76959  Biso   1.000  H
  N35      1.0000 0.24817  0.04415  0.86208  Biso   1.000  N
  C60      1.0000 0.98313  0.86522  0.56776  Biso   1.000  C
  C61      1.0000 0.10016  0.82091  0.67309  Biso   1.000  C
  C62      1.0000 0.89984  0.17909  0.67309  Biso   1.000  C
  C63      1.0000 0.88177  0.02548  0.58399  Biso   1.000  C
  C64      1.0000 0.89984  0.17917  0.67309  Biso   1.000  C
  C65      1.0000 0.88177  0.02556  0.58399  Biso   1.000  C
  C66      1.0000 0.23294  0.81202  0.76416  Biso   1.000  C
  C67      1.0000 0.21556  0.11122  0.93079  Biso   1.000  C
  C68      1.0000 0.27071  0.94006  0.89989  Biso   1.000  C
  C69      1.0000 0.27071  0.94014  0.89989  Biso   1.000  C
  H50      1.0000 0.97148  0.78806  0.57058  Biso   1.000  H
  H51      1.0000 0.98470  0.88590  0.50109  Biso   1.000  H
  N36      1.0000 0.91495  0.92163  0.61319  Biso   1.000  N
  H52      1.0000 0.97148  0.78814  0.57058  Biso   1.000  H
  O17      1.0000 0.07007  0.73582  0.70392  Biso   1.000  O
  N37      1.0000 0.82284  0.13638  0.69912  Biso   1.000  N
  O18      1.0000 0.92993  0.26418  0.70392  Biso   1.000  O
  O19      1.0000 0.92993  0.26426  0.70392  Biso   1.000  O
  H53      1.0000 0.86729  0.02612  0.51612  Biso   1.000  H
  C70      1.0000 0.80376  0.04183  0.64578  Biso   1.000  C
  H54      1.0000 0.29098  0.82276  0.74279  Biso   1.000  H
  H55      1.0000 0.22173  0.73478  0.76332  Biso   1.000  H
  N38      1.0000 0.22601  0.84968  0.86004  Biso   1.000  N
  H56      1.0000 0.29098  0.82284  0.74279  Biso   1.000  H
  H57      1.0000 0.22173  0.73486  0.76332  Biso   1.000  H
  O20      1.0000 0.19680  0.20537  0.92042  Biso   1.000  O
  O21      1.0000 0.19680  0.20545  0.92042  Biso   1.000  O
  N39      1.0000 0.20977  0.05377  0.01164  Biso   1.000  N
  H58      1.0000 0.33228  0.92869  0.89778  Biso   1.000  H
  C71      1.0000 0.23848  0.94567  0.00289  Biso   1.000  C
  C72      1.0000 0.23848  0.94575  0.00289  Biso   1.000  C
  C73      1.0000 0.86527  0.87572  0.67908  Biso   1.000  C
  C74      1.0000 0.76706  0.18798  0.76416  Biso   1.000  C
  C75      1.0000 0.76706  0.18806  0.76416  Biso   1.000  C
  N40      1.0000 0.80037  0.94327  0.70116  Biso   1.000  N
  H59      1.0000 0.75233  0.05128  0.60720  Biso   1.000  H
  H60      1.0000 0.75233  0.05136  0.60720  Biso   1.000  H
  C76      1.0000 0.17030  0.80537  0.92416  Biso   1.000  C
  C77      1.0000 0.17030  0.80545  0.92416  Biso   1.000  C
  C78      1.0000 0.17130  0.09848  0.09665  Biso   1.000  C
  C79      1.0000 0.17130  0.09856  0.09665  Biso   1.000  C
  H61      1.0000 0.28368  0.92933  0.04875  Biso   1.000  H
  N41      1.0000 0.17269  0.86482  0.00416  Biso   1.000  N
  O22      1.0000 0.87321  0.78405  0.71132  Biso   1.000  O
  H62      1.0000 0.70902  0.17724  0.74279  Biso   1.000  H
  H63      1.0000 0.77827  0.26522  0.76332  Biso   1.000  H
  N42      1.0000 0.77399  0.15032  0.86004  Biso   1.000  N
  N43      1.0000 0.77399  0.15040  0.86004  Biso   1.000  N
  H64      1.0000 0.77833  0.26522  0.76332  Biso   1.000  H
  C80      1.0000 0.73458  0.91827  0.76776  Biso   1.000  C
  C81      1.0000 0.73458  0.91835  0.76776  Biso   1.000  C
  O23      1.0000 0.12862  0.72540  0.90998  Biso   1.000  O
  H65      1.0000 0.19989  0.06883  0.15210  Biso   1.000  H
  H66      1.0000 0.18018  0.17620  0.09707  Biso   1.000  H
  N44      1.0000 0.08323  0.07772  0.10490  Biso   1.000  N
  N45      1.0000 0.08323  0.07780  0.10490  Biso   1.000  N
  C82      1.0000 0.13120  0.82901  0.08945  Biso   1.000  C
  C83      1.0000 0.82970  0.19463  0.92416  Biso   1.000  C
  C84      1.0000 0.72929  0.05994  0.89989  Biso   1.000  C
  H67      1.0000 0.68182  0.95040  0.74589  Biso   1.000  H
  H68      1.0000 0.72671  0.84038  0.76959  Biso   1.000  H
  N46      1.0000 0.75183  0.95585  0.86208  Biso   1.000  N
  N47      1.0000 0.75183  0.95593  0.86208  Biso   1.000  N
  C85      1.0000 0.04728  0.98822  0.15563  Biso   1.000  C
  C86      1.0000 0.02373  0.15433  0.08360  Biso   1.000  C
  H69      1.0000 0.16942  0.83870  0.14300  Biso   1.000  H
  H70      1.0000 0.11880  0.75232  0.08395  Biso   1.000  H
  N48      1.0000 0.05345  0.88662  0.10787  Biso   1.000  N
  N49      1.0000 0.05351  0.88662  0.10787  Biso   1.000  N
  O24      1.0000 0.87138  0.27460  0.90998  Biso   1.000  O
  N50      1.0000 0.82731  0.13518  0.00416  Biso   1.000  N
  H71      1.0000 0.66772  0.07131  0.89778  Biso   1.000  H
  C87      1.0000 0.76152  0.05433  0.00289  Biso   1.000  C
  C88      1.0000 0.78444  0.88878  0.93079  Biso   1.000  C
  C89      1.0000 0.95272  0.01178  0.15563  Biso   1.000  C
  C90      1.0000 0.95272  0.01186  0.15563  Biso   1.000  C
  H72      1.0000 0.06969  0.98373  0.22067  Biso   1.000  H
  N51      1.0000 0.94655  0.11338  0.10787  Biso   1.000  N
  N52      1.0000 0.94655  0.11346  0.10787  Biso   1.000  N
  O25      1.0000 0.03740  0.24079  0.04861  Biso   1.000  O
  C91      1.0000 0.97627  0.84567  0.08360  Biso   1.000  C
  C92      1.0000 0.97627  0.84575  0.08360  Biso   1.000  C
  C93      1.0000 0.86880  0.17099  0.08945  Biso   1.000  C
  N53      1.0000 0.79023  0.94623  0.01164  Biso   1.000  N
  H73      1.0000 0.71632  0.07067  0.04875  Biso   1.000  H
  H74      1.0000 0.71632  0.07075  0.04875  Biso   1.000  H
  O26      1.0000 0.80320  0.79463  0.92042  Biso   1.000  O
  N54      1.0000 0.91677  0.92228  0.10490  Biso   1.000  N
  H75      1.0000 0.93031  0.01627  0.22067  Biso   1.000  H
  H76      1.0000 0.93031  0.01635  0.22067  Biso   1.000  H
  O27      1.0000 0.96260  0.75921  0.04861  Biso   1.000  O
  O28      1.0000 0.96267  0.75921  0.04861  Biso   1.000  O
  H77      1.0000 0.83058  0.16130  0.14300  Biso   1.000  H
  H78      1.0000 0.88120  0.24768  0.08395  Biso   1.000  H
  H79      1.0000 0.88120  0.24776  0.08395  Biso   1.000  H
  C94      1.0000 0.82870  0.90152  0.09665  Biso   1.000  C
  H80      1.0000 0.80011  0.93117  0.15210  Biso   1.000  H
  H81      1.0000 0.81982  0.82380  0.09707  Biso   1.000  H
  H82      1.0000 0.80011  0.93125  0.15210  Biso   1.000  H
  C95      1.0000 0.13473  0.12428  0.67908  Biso   1.000  C
  N55      1.0000 0.19963  0.05673  0.70116  Biso   1.000  N
  N56      1.0000 0.08505  0.07837  0.61319  Biso   1.000  N
  O29      1.0000 0.12679  0.21595  0.71132  Biso   1.000  O
  N57      1.0000 0.08505  0.07845  0.61319  Biso   1.000  N
  O30      1.0000 0.12686  0.21595  0.71132  Biso   1.000  O
  C96      1.0000 0.26542  0.08173  0.76776  Biso   1.000  C
  C97      1.0000 0.19624  0.95817  0.64578  Biso   1.000  C
  C98      1.0000 0.19624  0.95825  0.64578  Biso   1.000  C
  C99      1.0000 0.19630  0.95817  0.64578  Biso   1.000  C
  C100     1.0000 0.19630  0.95825  0.64578  Biso   1.000  C
  C101     1.0000 0.13473  0.12436  0.67908  Biso   1.000  C
  C102     1.0000 0.11823  0.97452  0.58399  Biso   1.000  C
  C103     1.0000 0.01687  0.13478  0.56776  Biso   1.000  C
  C104     1.0000 0.01687  0.13486  0.56776  Biso   1.000  C
  C105     1.0000 0.01694  0.13478  0.56776  Biso   1.000  C
  C106     1.0000 0.01694  0.13486  0.56776  Biso   1.000  C
  H83      1.0000 0.31818  0.04960  0.74589  Biso   1.000  H
  H84      1.0000 0.27329  0.15962  0.76959  Biso   1.000  H
  N58      1.0000 0.24817  0.04415  0.86208  Biso   1.000  N
  H85      1.0000 0.24767  0.94872  0.60720  Biso   1.000  H
  N59      1.0000 0.17716  0.86362  0.69912  Biso   1.000  N
  H86      1.0000 0.24773  0.94872  0.60720  Biso   1.000  H
  H87      1.0000 0.13271  0.97388  0.51612  Biso   1.000  H
  N60      1.0000 0.06422  0.88502  0.60882  Biso   1.000  N
  H88      1.0000 0.13271  0.97396  0.51612  Biso   1.000  H
  N61      1.0000 0.06422  0.88510  0.60882  Biso   1.000  N
  H89      1.0000 0.02852  0.21194  0.57058  Biso   1.000  H
  H90      1.0000 0.01530  0.11410  0.50109  Biso   1.000  H
  N62      1.0000 0.93578  0.11498  0.60882  Biso   1.000  N
  C107     1.0000 0.21556  0.11122  0.93079  Biso   1.000  C
  C108     1.0000 0.27071  0.94006  0.89989  Biso   1.000  C
  C109     1.0000 0.27071  0.94014  0.89989  Biso   1.000  C
  C110     1.0000 0.10016  0.82091  0.67309  Biso   1.000  C
  C111     1.0000 0.23294  0.81202  0.76416  Biso   1.000  C
  C112     1.0000 0.98313  0.86522  0.56776  Biso   1.000  C
  C113     1.0000 0.89984  0.17909  0.67309  Biso   1.000  C
  C114     1.0000 0.88177  0.02548  0.58399  Biso   1.000  C
  C115     1.0000 0.89984  0.17917  0.67309  Biso   1.000  C
  C116     1.0000 0.88177  0.02556  0.58399  Biso   1.000  C
  O31      1.0000 0.19680  0.20537  0.92042  Biso   1.000  O
  O32      1.0000 0.19680  0.20545  0.92042  Biso   1.000  O
  N63      1.0000 0.20977  0.05377  0.01164  Biso   1.000  N
  H91      1.0000 0.33228  0.92869  0.89778  Biso   1.000  H
  N64      1.0000 0.22601  0.84968  0.86004  Biso   1.000  N
  C117     1.0000 0.23848  0.94567  0.00289  Biso   1.000  C
  C118     1.0000 0.23848  0.94575  0.00289  Biso   1.000  C
  O33      1.0000 0.07007  0.73582  0.70392  Biso   1.000  O
  H92      1.0000 0.29098  0.82276  0.74279  Biso   1.000  H
  H93      1.0000 0.22173  0.73478  0.76332  Biso   1.000  H
  H94      1.0000 0.29098  0.82284  0.74279  Biso   1.000  H
  H95      1.0000 0.22173  0.73486  0.76332  Biso   1.000  H
  H96      1.0000 0.97148  0.78806  0.57058  Biso   1.000  H
  H97      1.0000 0.98470  0.88590  0.50109  Biso   1.000  H
  N65      1.0000 0.91495  0.92163  0.61319  Biso   1.000  N
  H98      1.0000 0.97148  0.78814  0.57058  Biso   1.000  H
  N66      1.0000 0.82284  0.13638  0.69912  Biso   1.000  N
  O34      1.0000 0.92993  0.26418  0.70392  Biso   1.000  O
  O35      1.0000 0.92993  0.26426  0.70392  Biso   1.000  O
  H99      1.0000 0.86729  0.02612  0.51612  Biso   1.000  H
  C119     1.0000 0.80376  0.04183  0.64578  Biso   1.000  C
  C120     1.0000 0.17130  0.09848  0.09665  Biso   1.000  C
  C121     1.0000 0.17130  0.09856  0.09665  Biso   1.000  C
  C122     1.0000 0.17030  0.80537  0.92416  Biso   1.000  C
  C123     1.0000 0.17030  0.80545  0.92416  Biso   1.000  C
  H100     1.0000 0.28368  0.92933  0.04875  Biso   1.000  H
  N67      1.0000 0.17269  0.86482  0.00416  Biso   1.000  N
  C124     1.0000 0.86527  0.87572  0.67908  Biso   1.000  C
  C125     1.0000 0.76706  0.18798  0.76416  Biso   1.000  C
  C126     1.0000 0.76706  0.18806  0.76416  Biso   1.000  C
  N68      1.0000 0.80037  0.94327  0.70116  Biso   1.000  N
  H101     1.0000 0.75233  0.05128  0.60720  Biso   1.000  H
  H102     1.0000 0.75233  0.05136  0.60720  Biso   1.000  H
  H103     1.0000 0.19989  0.06883  0.15210  Biso   1.000  H
  H104     1.0000 0.18018  0.17620  0.09707  Biso   1.000  H
  N69      1.0000 0.08323  0.07772  0.10490  Biso   1.000  N
  N70      1.0000 0.08323  0.07780  0.10490  Biso   1.000  N
  O36      1.0000 0.12862  0.72540  0.90998  Biso   1.000  O
  C127     1.0000 0.13120  0.82901  0.08945  Biso   1.000  C
  O37      1.0000 0.87321  0.78405  0.71132  Biso   1.000  O
  H105     1.0000 0.70902  0.17724  0.74279  Biso   1.000  H
  H106     1.0000 0.77827  0.26522  0.76332  Biso   1.000  H
  N71      1.0000 0.77399  0.15032  0.86004  Biso   1.000  N
  N72      1.0000 0.77399  0.15040  0.86004  Biso   1.000  N
  H107     1.0000 0.77833  0.26522  0.76332  Biso   1.000  H
  C128     1.0000 0.73458  0.91827  0.76776  Biso   1.000  C
  C129     1.0000 0.73458  0.91835  0.76776  Biso   1.000  C
  C130     1.0000 0.04728  0.98822  0.15563  Biso   1.000  C
  C131     1.0000 0.02373  0.15433  0.08360  Biso   1.000  C
  H108     1.0000 0.16942  0.83870  0.14300  Biso   1.000  H
  H109     1.0000 0.11880  0.75232  0.08395  Biso   1.000  H
  N73      1.0000 0.05345  0.88662  0.10787  Biso   1.000  N
  N74      1.0000 0.05351  0.88662  0.10787  Biso   1.000  N
  C132     1.0000 0.82970  0.19463  0.92416  Biso   1.000  C
  C133     1.0000 0.72929  0.05994  0.89989  Biso   1.000  C
  H110     1.0000 0.68182  0.95040  0.74589  Biso   1.000  H
  H111     1.0000 0.72671  0.84038  0.76959  Biso   1.000  H
  N75      1.0000 0.75183  0.95585  0.86208  Biso   1.000  N
  N76      1.0000 0.75183  0.95593  0.86208  Biso   1.000  N
  C134     1.0000 0.95272  0.01178  0.15563  Biso   1.000  C
  C135     1.0000 0.95272  0.01186  0.15563  Biso   1.000  C
  H112     1.0000 0.06969  0.98373  0.22067  Biso   1.000  H
  N77      1.0000 0.94655  0.11338  0.10787  Biso   1.000  N
  N78      1.0000 0.94655  0.11346  0.10787  Biso   1.000  N
  O38      1.0000 0.03740  0.24079  0.04861  Biso   1.000  O
  C136     1.0000 0.97627  0.84567  0.08360  Biso   1.000  C
  C137     1.0000 0.97627  0.84575  0.08360  Biso   1.000  C
  N79      1.0000 0.82731  0.13518  0.00416  Biso   1.000  N
  O39      1.0000 0.87138  0.27460  0.90998  Biso   1.000  O
  H113     1.0000 0.66772  0.07131  0.89778  Biso   1.000  H
  C138     1.0000 0.76152  0.05433  0.00289  Biso   1.000  C
  C139     1.0000 0.78444  0.88878  0.93079  Biso   1.000  C
  N80      1.0000 0.91677  0.92228  0.10490  Biso   1.000  N
  H114     1.0000 0.93031  0.01627  0.22067  Biso   1.000  H
  H115     1.0000 0.93031  0.01635  0.22067  Biso   1.000  H
  C140     1.0000 0.86880  0.17099  0.08945  Biso   1.000  C
  O40      1.0000 0.96260  0.75921  0.04861  Biso   1.000  O
  O41      1.0000 0.96267  0.75921  0.04861  Biso   1.000  O
  N81      1.0000 0.79023  0.94623  0.01164  Biso   1.000  N
  H116     1.0000 0.71632  0.07067  0.04875  Biso   1.000  H
  H117     1.0000 0.71632  0.07075  0.04875  Biso   1.000  H
  O42      1.0000 0.80320  0.79463  0.92042  Biso   1.000  O
  C141     1.0000 0.82870  0.90152  0.09665  Biso   1.000  C
  H118     1.0000 0.83058  0.16130  0.14300  Biso   1.000  H
  H119     1.0000 0.88120  0.24768  0.08395  Biso   1.000  H
  H120     1.0000 0.88120  0.24776  0.08395  Biso   1.000  H
  H121     1.0000 0.80011  0.93117  0.15210  Biso   1.000  H
  H122     1.0000 0.81982  0.82380  0.09707  Biso   1.000  H
  H123     1.0000 0.80011  0.93125  0.15210  Biso   1.000  H
  C142     1.0000 0.13473  0.12428  0.67908  Biso   1.000  C
  N82      1.0000 0.19963  0.05673  0.70116  Biso   1.000  N
  N83      1.0000 0.08505  0.07837  0.61319  Biso   1.000  N
  O43      1.0000 0.12679  0.21595  0.71132  Biso   1.000  O
  N84      1.0000 0.08505  0.07845  0.61319  Biso   1.000  N
  O44      1.0000 0.12686  0.21595  0.71132  Biso   1.000  O
  C143     1.0000 0.26542  0.08173  0.76776  Biso   1.000  C
  C144     1.0000 0.19624  0.95817  0.64578  Biso   1.000  C
  C145     1.0000 0.19624  0.95825  0.64578  Biso   1.000  C
  C146     1.0000 0.19630  0.95817  0.64578  Biso   1.000  C
  C147     1.0000 0.19630  0.95825  0.64578  Biso   1.000  C
  C148     1.0000 0.13473  0.12436  0.67908  Biso   1.000  C
  C149     1.0000 0.11823  0.97452  0.58399  Biso   1.000  C
  C150     1.0000 0.01687  0.13478  0.56776  Biso   1.000  C
  C151     1.0000 0.01687  0.13486  0.56776  Biso   1.000  C
  C152     1.0000 0.01694  0.13478  0.56776  Biso   1.000  C
  C153     1.0000 0.01694  0.13486  0.56776  Biso   1.000  C
  H124     1.0000 0.31818  0.04960  0.74589  Biso   1.000  H
  H125     1.0000 0.27329  0.15962  0.76959  Biso   1.000  H
  N85      1.0000 0.24817  0.04415  0.86208  Biso   1.000  N
  H126     1.0000 0.24767  0.94872  0.60720  Biso   1.000  H
  N86      1.0000 0.17716  0.86362  0.69912  Biso   1.000  N
  H127     1.0000 0.24773  0.94872  0.60720  Biso   1.000  H
  H128     1.0000 0.13271  0.97388  0.51612  Biso   1.000  H
  N87      1.0000 0.06422  0.88502  0.60882  Biso   1.000  N
  H129     1.0000 0.13271  0.97396  0.51612  Biso   1.000  H
  N88      1.0000 0.06422  0.88510  0.60882  Biso   1.000  N
  H130     1.0000 0.02852  0.21194  0.57058  Biso   1.000  H
  H131     1.0000 0.01530  0.11410  0.50109  Biso   1.000  H
  N89      1.0000 0.93578  0.11498  0.60882  Biso   1.000  N
  C154     1.0000 0.21556  0.11122  0.93079  Biso   1.000  C
  C155     1.0000 0.27071  0.94006  0.89989  Biso   1.000  C
  C156     1.0000 0.27071  0.94014  0.89989  Biso   1.000  C
  C157     1.0000 0.10016  0.82091  0.67309  Biso   1.000  C
  C158     1.0000 0.23294  0.81202  0.76416  Biso   1.000  C
  C159     1.0000 0.98313  0.86522  0.56776  Biso   1.000  C
  C160     1.0000 0.89984  0.17909  0.67309  Biso   1.000  C
  C161     1.0000 0.88177  0.02548  0.58399  Biso   1.000  C
  C162     1.0000 0.89984  0.17917  0.67309  Biso   1.000  C
  C163     1.0000 0.88177  0.02556  0.58399  Biso   1.000  C
  O45      1.0000 0.19680  0.20537  0.92042  Biso   1.000  O
  O46      1.0000 0.19680  0.20545  0.92042  Biso   1.000  O
  N90      1.0000 0.20977  0.05377  0.01164  Biso   1.000  N
  H132     1.0000 0.33228  0.92869  0.89778  Biso   1.000  H
  N91      1.0000 0.22601  0.84968  0.86004  Biso   1.000  N
  C164     1.0000 0.23848  0.94567  0.00289  Biso   1.000  C
  C165     1.0000 0.23848  0.94575  0.00289  Biso   1.000  C
  O47      1.0000 0.07007  0.73582  0.70392  Biso   1.000  O
  H133     1.0000 0.29098  0.82276  0.74279  Biso   1.000  H
  H134     1.0000 0.22173  0.73478  0.76332  Biso   1.000  H
  H135     1.0000 0.29098  0.82284  0.74279  Biso   1.000  H
  H136     1.0000 0.22173  0.73486  0.76332  Biso   1.000  H
  H137     1.0000 0.97148  0.78806  0.57058  Biso   1.000  H
  H138     1.0000 0.98470  0.88590  0.50109  Biso   1.000  H
  N92      1.0000 0.91495  0.92163  0.61319  Biso   1.000  N
  H139     1.0000 0.97148  0.78814  0.57058  Biso   1.000  H
  N93      1.0000 0.82284  0.13638  0.69912  Biso   1.000  N
  O48      1.0000 0.92993  0.26418  0.70392  Biso   1.000  O
  O49      1.0000 0.92993  0.26426  0.70392  Biso   1.000  O
  H140     1.0000 0.86729  0.02612  0.51612  Biso   1.000  H
  C166     1.0000 0.80376  0.04183  0.64578  Biso   1.000  C
  C167     1.0000 0.17130  0.09848  0.09665  Biso   1.000  C
  C168     1.0000 0.17130  0.09856  0.09665  Biso   1.000  C
  C169     1.0000 0.17030  0.80537  0.92416  Biso   1.000  C
  C170     1.0000 0.17030  0.80545  0.92416  Biso   1.000  C
  H141     1.0000 0.28368  0.92933  0.04875  Biso   1.000  H
  N94      1.0000 0.17269  0.86482  0.00416  Biso   1.000  N
  C171     1.0000 0.86527  0.87572  0.67908  Biso   1.000  C
  C172     1.0000 0.76706  0.18798  0.76416  Biso   1.000  C
  C173     1.0000 0.76706  0.18806  0.76416  Biso   1.000  C
  N95      1.0000 0.80037  0.94327  0.70116  Biso   1.000  N
  H142     1.0000 0.75233  0.05128  0.60720  Biso   1.000  H
  H143     1.0000 0.75233  0.05136  0.60720  Biso   1.000  H
  H144     1.0000 0.19989  0.06883  0.15210  Biso   1.000  H
  H145     1.0000 0.18018  0.17620  0.09707  Biso   1.000  H
  N96      1.0000 0.08323  0.07772  0.10490  Biso   1.000  N
  N97      1.0000 0.08323  0.07780  0.10490  Biso   1.000  N
  O50      1.0000 0.12862  0.72540  0.90998  Biso   1.000  O
  C174     1.0000 0.13120  0.82901  0.08945  Biso   1.000  C
  O51      1.0000 0.87321  0.78405  0.71132  Biso   1.000  O
  H146     1.0000 0.70902  0.17724  0.74279  Biso   1.000  H
  H147     1.0000 0.77827  0.26522  0.76332  Biso   1.000  H
  N98      1.0000 0.77399  0.15032  0.86004  Biso   1.000  N
  N99      1.0000 0.77399  0.15040  0.86004  Biso   1.000  N
  H148     1.0000 0.77833  0.26522  0.76332  Biso   1.000  H
  C175     1.0000 0.73458  0.91827  0.76776  Biso   1.000  C
  C176     1.0000 0.73458  0.91835  0.76776  Biso   1.000  C
  C177     1.0000 0.04728  0.98822  0.15563  Biso   1.000  C
  C178     1.0000 0.02373  0.15433  0.08360  Biso   1.000  C
  H149     1.0000 0.16942  0.83870  0.14300  Biso   1.000  H
  H150     1.0000 0.11880  0.75232  0.08395  Biso   1.000  H
  N100     1.0000 0.05345  0.88662  0.10787  Biso   1.000  N
  N101     1.0000 0.05351  0.88662  0.10787  Biso   1.000  N
  C179     1.0000 0.82970  0.19463  0.92416  Biso   1.000  C
  C180     1.0000 0.72929  0.05994  0.89989  Biso   1.000  C
  H151     1.0000 0.68182  0.95040  0.74589  Biso   1.000  H
  H152     1.0000 0.72671  0.84038  0.76959  Biso   1.000  H
  N102     1.0000 0.75183  0.95585  0.86208  Biso   1.000  N
  N103     1.0000 0.75183  0.95593  0.86208  Biso   1.000  N
  C181     1.0000 0.95272  0.01178  0.15563  Biso   1.000  C
  C182     1.0000 0.95272  0.01186  0.15563  Biso   1.000  C
  H153     1.0000 0.06969  0.98373  0.22067  Biso   1.000  H
  N104     1.0000 0.94655  0.11338  0.10787  Biso   1.000  N
  N105     1.0000 0.94655  0.11346  0.10787  Biso   1.000  N
  O52      1.0000 0.03740  0.24079  0.04861  Biso   1.000  O
  C183     1.0000 0.97627  0.84567  0.08360  Biso   1.000  C
  C184     1.0000 0.97627  0.84575  0.08360  Biso   1.000  C
  N106     1.0000 0.82731  0.13518  0.00416  Biso   1.000  N
  O53      1.0000 0.87138  0.27460  0.90998  Biso   1.000  O
  H154     1.0000 0.66772  0.07131  0.89778  Biso   1.000  H
  C185     1.0000 0.76152  0.05433  0.00289  Biso   1.000  C
  C186     1.0000 0.78444  0.88878  0.93079  Biso   1.000  C
  N107     1.0000 0.91677  0.92228  0.10490  Biso   1.000  N
  H155     1.0000 0.93031  0.01627  0.22067  Biso   1.000  H
  H156     1.0000 0.93031  0.01635  0.22067  Biso   1.000  H
  C187     1.0000 0.86880  0.17099  0.08945  Biso   1.000  C
  O54      1.0000 0.96260  0.75921  0.04861  Biso   1.000  O
  O55      1.0000 0.96267  0.75921  0.04861  Biso   1.000  O
  N108     1.0000 0.79023  0.94623  0.01164  Biso   1.000  N
  H157     1.0000 0.71632  0.07067  0.04875  Biso   1.000  H
  H158     1.0000 0.71632  0.07075  0.04875  Biso   1.000  H
  O56      1.0000 0.80320  0.79463  0.92042  Biso   1.000  O
  C188     1.0000 0.82870  0.90152  0.09665  Biso   1.000  C
  H159     1.0000 0.83058  0.16130  0.14300  Biso   1.000  H
  H160     1.0000 0.88120  0.24768  0.08395  Biso   1.000  H
  H161     1.0000 0.88120  0.24776  0.08395  Biso   1.000  H
  H162     1.0000 0.80011  0.93117  0.15210  Biso   1.000  H
  H163     1.0000 0.81982  0.82380  0.09707  Biso   1.000  H
  H164     1.0000 0.80011  0.93125  0.15210  Biso   1.000  H
  C189     1.0000 0.30376  0.45817  0.35422  Biso   1.000  C
  N109     1.0000 0.32284  0.36362  0.30088  Biso   1.000  N
  C190     1.0000 0.38177  0.47452  0.41601  Biso   1.000  C
  H165     1.0000 0.25233  0.44872  0.39280  Biso   1.000  H
  N110     1.0000 0.30037  0.55673  0.29884  Biso   1.000  N
  C191     1.0000 0.26706  0.31202  0.23577  Biso   1.000  C
  C192     1.0000 0.39984  0.32091  0.32691  Biso   1.000  C
  N111     1.0000 0.43578  0.38510  0.39118  Biso   1.000  N
  H166     1.0000 0.36729  0.47388  0.48388  Biso   1.000  H
  N112     1.0000 0.41495  0.57837  0.38681  Biso   1.000  N
  C193     1.0000 0.36527  0.62428  0.32092  Biso   1.000  C
  C194     1.0000 0.23458  0.58173  0.23217  Biso   1.000  C
  H167     1.0000 0.20902  0.32284  0.25721  Biso   1.000  H
  H168     1.0000 0.27833  0.23478  0.23668  Biso   1.000  H
  N113     1.0000 0.27399  0.34968  0.13996  Biso   1.000  N
  O57      1.0000 0.42993  0.23582  0.29608  Biso   1.000  O
  C195     1.0000 0.51687  0.36522  0.43217  Biso   1.000  C
  C196     1.0000 0.48313  0.63478  0.43217  Biso   1.000  C
  O58      1.0000 0.37321  0.71595  0.28868  Biso   1.000  O
  N114     1.0000 0.25183  0.54415  0.13792  Biso   1.000  N
  H169     1.0000 0.18182  0.54960  0.25411  Biso   1.000  H
  H170     1.0000 0.22671  0.65962  0.23041  Biso   1.000  H
  C197     1.0000 0.32970  0.30537  0.07577  Biso   1.000  C
  C198     1.0000 0.22929  0.44014  0.10011  Biso   1.000  C
  N115     1.0000 0.58505  0.42163  0.38681  Biso   1.000  N
  H171     1.0000 0.52852  0.28814  0.42942  Biso   1.000  H
  H172     1.0000 0.51530  0.38590  0.49891  Biso   1.000  H
  H173     1.0000 0.47148  0.71194  0.42942  Biso   1.000  H
  H174     1.0000 0.48470  0.61410  0.49891  Biso   1.000  H
  N116     1.0000 0.56422  0.61498  0.39118  Biso   1.000  N
  C199     1.0000 0.28444  0.61122  0.06921  Biso   1.000  C
  O59      1.0000 0.37138  0.22540  0.09002  Biso   1.000  O
  N117     1.0000 0.32731  0.36482  0.99584  Biso   1.000  N
  H175     1.0000 0.16772  0.42869  0.10222  Biso   1.000  H
  C200     1.0000 0.26152  0.44567  0.99711  Biso   1.000  C
  C201     1.0000 0.61823  0.52548  0.41601  Biso   1.000  C
  C202     1.0000 0.63473  0.37572  0.32092  Biso   1.000  C
  C203     1.0000 0.60016  0.67909  0.32691  Biso   1.000  C
  N118     1.0000 0.29023  0.55377  0.98836  Biso   1.000  N
  O60      1.0000 0.30320  0.70537  0.07958  Biso   1.000  O
  C204     1.0000 0.36880  0.32901  0.91048  Biso   1.000  C
  H176     1.0000 0.21632  0.42933  0.95118  Biso   1.000  H
  H177     1.0000 0.63271  0.52612  0.48388  Biso   1.000  H
  C205     1.0000 0.69624  0.54183  0.35422  Biso   1.000  C
  N119     1.0000 0.69963  0.44327  0.29884  Biso   1.000  N
  O61      1.0000 0.62679  0.28405  0.28868  Biso   1.000  O
  N120     1.0000 0.67716  0.63638  0.30088  Biso   1.000  N
  O62      1.0000 0.57007  0.76418  0.29608  Biso   1.000  O
  C206     1.0000 0.32870  0.59848  0.90328  Biso   1.000  C
  H178     1.0000 0.33058  0.33870  0.85700  Biso   1.000  H
  H179     1.0000 0.38120  0.25232  0.91598  Biso   1.000  H
  N121     1.0000 0.44655  0.38662  0.89213  Biso   1.000  N
  H180     1.0000 0.74773  0.55128  0.39280  Biso   1.000  H
  C207     1.0000 0.76542  0.41835  0.23217  Biso   1.000  C
  C208     1.0000 0.73294  0.68798  0.23577  Biso   1.000  C
  H181     1.0000 0.30011  0.56883  0.84790  Biso   1.000  H
  H182     1.0000 0.31982  0.67620  0.90293  Biso   1.000  H
  N122     1.0000 0.41677  0.57772  0.89510  Biso   1.000  N
  C209     1.0000 0.52373  0.34567  0.91633  Biso   1.000  C
  C210     1.0000 0.45272  0.48822  0.84430  Biso   1.000  C
  H183     1.0000 0.81818  0.45040  0.25411  Biso   1.000  H
  H184     1.0000 0.77329  0.34038  0.23041  Biso   1.000  H
  N123     1.0000 0.74817  0.45585  0.13792  Biso   1.000  N
  H185     1.0000 0.79098  0.67724  0.25721  Biso   1.000  H
  H186     1.0000 0.72173  0.76522  0.23668  Biso   1.000  H
  N124     1.0000 0.72601  0.65040  0.13996  Biso   1.000  N
  C211     1.0000 0.47627  0.65433  0.91633  Biso   1.000  C
  N125     1.0000 0.58323  0.42228  0.89510  Biso   1.000  N
  O63      1.0000 0.53740  0.25921  0.95139  Biso   1.000  O
  C212     1.0000 0.54728  0.51178  0.84430  Biso   1.000  C
  H187     1.0000 0.43031  0.48373  0.77933  Biso   1.000  H
  C213     1.0000 0.77071  0.55994  0.10011  Biso   1.000  C
  C214     1.0000 0.71556  0.38878  0.06921  Biso   1.000  C
  C215     1.0000 0.67030  0.69463  0.07577  Biso   1.000  C
  N126     1.0000 0.55351  0.61338  0.89213  Biso   1.000  N
  O64      1.0000 0.46260  0.74079  0.95139  Biso   1.000  O
  C216     1.0000 0.67130  0.40152  0.90328  Biso   1.000  C
  H188     1.0000 0.56969  0.51635  0.77933  Biso   1.000  H
  C217     1.0000 0.73848  0.55433  0.99711  Biso   1.000  C
  H189     1.0000 0.83228  0.57131  0.10222  Biso   1.000  H
  N127     1.0000 0.70977  0.44623  0.98836  Biso   1.000  N
  O65      1.0000 0.69680  0.29463  0.07958  Biso   1.000  O
  N128     1.0000 0.67269  0.63518  0.99584  Biso   1.000  N
  O66      1.0000 0.62862  0.77460  0.09002  Biso   1.000  O
  C218     1.0000 0.63120  0.67099  0.91048  Biso   1.000  C
  H190     1.0000 0.69989  0.43125  0.84790  Biso   1.000  H
  H191     1.0000 0.68018  0.32380  0.90293  Biso   1.000  H
  H192     1.0000 0.78368  0.57075  0.95118  Biso   1.000  H
  H193     1.0000 0.66942  0.66130  0.85700  Biso   1.000  H
  H194     1.0000 0.61880  0.74776  0.91598  Biso   1.000  H
