data_image0
_cell_length_a       27.851
_cell_length_b       14.331
_cell_length_c       25.199
_cell_angle_alpha    90
_cell_angle_beta     96.27
_cell_angle_gamma    90

_symmetry_space_group_name_H-M    "P 1"
_symmetry_int_tables_number       1

loop_
  _symmetry_equiv_pos_as_xyz
  'x, y, z'

loop_
  _atom_site_label
  _atom_site_occupancy
  _atom_site_fract_x
  _atom_site_fract_y
  _atom_site_fract_z
  _atom_site_thermal_displace_type
  _atom_site_B_iso_or_equiv
  _atom_site_type_symbol
  C1       1.0000 0.61191  0.37953  0.38745  Biso   1.000  C
  N1       1.0000 0.63170  0.28916  0.37699  Biso   1.000  N
  N2       1.0000 0.63593  0.42370  0.43508  Biso   1.000  N
  H1       1.0000 0.57717  0.37241  0.39160  Biso   1.000  H
  H2       1.0000 0.61469  0.42063  0.35639  Biso   1.000  H
  C2       1.0000 0.62874  0.20780  0.41025  Biso   1.000  C
  C3       1.0000 0.66013  0.27423  0.33655  Biso   1.000  C
  C4       1.0000 0.61670  0.41651  0.48315  Biso   1.000  C
  C5       1.0000 0.68676  0.45272  0.44147  Biso   1.000  C
  N3       1.0000 0.58336  0.15903  0.40378  Biso   1.000  N
  C6       1.0000 0.66341  0.13698  0.38825  Biso   1.000  C
  H3       1.0000 0.63889  0.22252  0.44861  Biso   1.000  H
  N4       1.0000 0.67579  0.18373  0.33958  Biso   1.000  N
  O1       1.0000 0.66944  0.33159  0.30329  Biso   1.000  O
  O2       1.0000 0.57715  0.38560  0.48953  Biso   1.000  O
  N5       1.0000 0.65012  0.45091  0.52155  Biso   1.000  N
  N6       1.0000 0.69586  0.53611  0.41224  Biso   1.000  N
  H4       1.0000 0.70917  0.40060  0.43460  Biso   1.000  H
  C7       1.0000 0.69323  0.48580  0.50043  Biso   1.000  C
  C8       1.0000 0.53840  0.19489  0.42043  Biso   1.000  C
  C9       1.0000 0.58839  0.06782  0.38925  Biso   1.000  C
  N7       1.0000 0.63440  0.05429  0.37851  Biso   1.000  N
  H5       1.0000 0.69257  0.12518  0.41412  Biso   1.000  H
  C10      1.0000 0.71379  0.15233  0.30836  Biso   1.000  C
  C11      1.0000 0.64309  0.45119  0.57764  Biso   1.000  C
  C12      1.0000 0.70159  0.61301  0.44470  Biso   1.000  C
  C13      1.0000 0.70812  0.53827  0.35783  Biso   1.000  C
  N8       1.0000 0.69558  0.58677  0.49548  Biso   1.000  N
  H6       1.0000 0.72338  0.45991  0.52032  Biso   1.000  H
  C14      1.0000 0.50738  0.24688  0.37715  Biso   1.000  C
  H7       1.0000 0.54618  0.23732  0.45121  Biso   1.000  H
  H8       1.0000 0.51958  0.14200  0.43272  Biso   1.000  H
  O3       1.0000 0.55592  0.00893  0.38582  Biso   1.000  O
  C15      1.0000 0.65414  0.96085  0.37256  Biso   1.000  C
  N9       1.0000 0.76133  0.15833  0.33751  Biso   1.000  N
  H9       1.0000 0.71299  0.19078  0.27559  Biso   1.000  H
  H10      1.0000 0.70738  0.08680  0.29731  Biso   1.000  H
  N10      1.0000 0.67490  0.38832  0.60926  Biso   1.000  N
  H11      1.0000 0.64826  0.51518  0.59182  Biso   1.000  H
  H12      1.0000 0.60917  0.43368  0.58140  Biso   1.000  H
  O4       1.0000 0.71069  0.69151  0.43005  Biso   1.000  O
  H13      1.0000 0.69837  0.59947  0.34202  Biso   1.000  H
  H14      1.0000 0.68907  0.48978  0.33699  Biso   1.000  H
  C16      1.0000 0.76057  0.52292  0.35200  Biso   1.000  C
  C17      1.0000 0.70548  0.65006  0.54044  Biso   1.000  C
  C18      1.0000 0.51623  0.25469  0.32653  Biso   1.000  C
  H15      1.0000 0.47918  0.27660  0.38689  Biso   1.000  H
  H16      1.0000 0.68328  0.96609  0.35352  Biso   1.000  H
  H17      1.0000 0.63008  0.92338  0.35000  Biso   1.000  H
  C19      1.0000 0.66741  0.90971  0.42366  Biso   1.000  C
  C20      1.0000 0.78475  0.08199  0.35939  Biso   1.000  C
  C21      1.0000 0.78507  0.24478  0.35468  Biso   1.000  C
  C22      1.0000 0.71517  0.41798  0.64064  Biso   1.000  C
  C23      1.0000 0.67327  0.28651  0.60431  Biso   1.000  C
  H18      1.0000 0.77016  0.53290  0.31751  Biso   1.000  H
  C24      1.0000 0.79347  0.49801  0.38809  Biso   1.000  C
  H19      1.0000 0.72968  0.69681  0.53169  Biso   1.000  H
  H20      1.0000 0.71968  0.61426  0.57190  Biso   1.000  H
  C25      1.0000 0.66117  0.70030  0.55461  Biso   1.000  C
  H21      1.0000 0.54407  0.22608  0.31499  Biso   1.000  H
  H22      1.0000 0.49470  0.28881  0.30190  Biso   1.000  H
  H23      1.0000 0.67936  0.84802  0.42111  Biso   1.000  H
  C26      1.0000 0.66396  0.94215  0.47161  Biso   1.000  C
  O5       1.0000 0.77253  0.00049  0.35204  Biso   1.000  O
  N11      1.0000 0.82504  0.11172  0.39073  Biso   1.000  N
  N12      1.0000 0.81012  0.29000  0.31451  Biso   1.000  N
  C27      1.0000 0.82665  0.21352  0.39572  Biso   1.000  C
  H24      1.0000 0.76266  0.28861  0.37060  Biso   1.000  H
  O6       1.0000 0.72741  0.49948  0.64795  Biso   1.000  O
  N13      1.0000 0.73862  0.34171  0.66248  Biso   1.000  N
  N14      1.0000 0.63038  0.24471  0.62156  Biso   1.000  N
  H25      1.0000 0.67849  0.26600  0.56742  Biso   1.000  H
  C28      1.0000 0.71487  0.25518  0.64531  Biso   1.000  C
  H26      1.0000 0.78587  0.48699  0.42342  Biso   1.000  H
  H27      1.0000 0.82568  0.49041  0.37971  Biso   1.000  H
  H28      1.0000 0.66587  0.74196  0.58399  Biso   1.000  H
  C29      1.0000 0.61689  0.69332  0.53121  Biso   1.000  C
  H29      1.0000 0.65216  0.00363  0.47612  Biso   1.000  H
  H30      1.0000 0.67328  0.90440  0.50199  Biso   1.000  H
  C30      1.0000 0.85686  0.04878  0.42234  Biso   1.000  C
  C31      1.0000 0.85795  0.30207  0.33056  Biso   1.000  C
  C32      1.0000 0.78673  0.33961  0.26788  Biso   1.000  C
  N15      1.0000 0.86957  0.25532  0.37843  Biso   1.000  N
  H31      1.0000 0.82146  0.23397  0.43260  Biso   1.000  H
  C33      1.0000 0.78617  0.34771  0.69166  Biso   1.000  C
  C34      1.0000 0.64200  0.19789  0.66947  Biso   1.000  C
  C35      1.0000 0.58778  0.22029  0.58619  Biso   1.000  C
  N16      1.0000 0.68984  0.20996  0.68552  Biso   1.000  N
  H32      1.0000 0.73725  0.21143  0.62942  Biso   1.000  H
  H33      1.0000 0.60997  0.65271  0.50151  Biso   1.000  H
  H34      1.0000 0.59168  0.72877  0.54391  Biso   1.000  H
  N17      1.0000 0.84983  0.04912  0.47844  Biso   1.000  N
  H35      1.0000 0.89078  0.06629  0.41859  Biso   1.000  H
  H36      1.0000 0.85165  0.98479  0.40821  Biso   1.000  H
  O7       1.0000 0.88658  0.34729  0.30709  Biso   1.000  O
  H37      1.0000 0.75357  0.35692  0.27459  Biso   1.000  H
  H38      1.0000 0.80479  0.39788  0.26281  Biso   1.000  H
  C36      1.0000 0.78440  0.28219  0.21702  Biso   1.000  C
  C37      1.0000 0.91217  0.27967  0.41380  Biso   1.000  C
  N18      1.0000 0.82415  0.31631  0.66040  Biso   1.000  N
  H39      1.0000 0.78696  0.30919  0.72440  Biso   1.000  H
  H40      1.0000 0.79257  0.41316  0.70272  Biso   1.000  H
  O8       1.0000 0.61337  0.15268  0.69290  Biso   1.000  O
  H41      1.0000 0.58008  0.27242  0.56092  Biso   1.000  H
  H42      1.0000 0.56028  0.21338  0.60771  Biso   1.000  H
  C38      1.0000 0.59239  0.13181  0.55469  Biso   1.000  C
  C39      1.0000 0.71319  0.16042  0.73215  Biso   1.000  C
  C40      1.0000 0.88322  0.08353  0.51688  Biso   1.000  C
  C41      1.0000 0.80671  0.01417  0.49956  Biso   1.000  C
  H43      1.0000 0.81219  0.24778  0.21011  Biso   1.000  H
  C42      1.0000 0.74639  0.27779  0.18265  Biso   1.000  C
  H44      1.0000 0.91988  0.22762  0.43911  Biso   1.000  H
  H45      1.0000 0.93967  0.28658  0.39232  Biso   1.000  H
  C43      1.0000 0.90753  0.36822  0.44534  Biso   1.000  C
  C44      1.0000 0.83982  0.22580  0.66344  Biso   1.000  C
  C45      1.0000 0.83655  0.36299  0.61178  Biso   1.000  C
  H46      1.0000 0.61996  0.12567  0.53581  Biso   1.000  H
  C46      1.0000 0.56169  0.06322  0.55142  Biso   1.000  C
  H47      1.0000 0.74638  0.14312  0.72540  Biso   1.000  H
  H48      1.0000 0.69516  0.10209  0.73722  Biso   1.000  H
  C47      1.0000 0.71551  0.21778  0.78297  Biso   1.000  C
  O9       1.0000 0.92280  0.11437  0.51049  Biso   1.000  O
  N19      1.0000 0.86402  0.07627  0.56495  Biso   1.000  N
  C48      1.0000 0.81319  0.04731  0.55856  Biso   1.000  C
  H49      1.0000 0.77657  0.04012  0.47971  Biso   1.000  H
  N20      1.0000 0.80437  0.91320  0.50455  Biso   1.000  N
  H50      1.0000 0.71819  0.31156  0.18872  Biso   1.000  H
  H51      1.0000 0.74678  0.24081  0.15139  Biso   1.000  H
  H52      1.0000 0.87995  0.37429  0.46422  Biso   1.000  H
  C49      1.0000 0.93827  0.43682  0.44861  Biso   1.000  C
  N21      1.0000 0.86825  0.21080  0.62304  Biso   1.000  N
  O10      1.0000 0.83047  0.16845  0.69669  Biso   1.000  O
  N22      1.0000 0.86552  0.44568  0.62152  Biso   1.000  N
  H53      1.0000 0.80738  0.37478  0.58591  Biso   1.000  H
  C50      1.0000 0.87121  0.29216  0.58974  Biso   1.000  C
  H54      1.0000 0.53367  0.06671  0.56982  Biso   1.000  H
  H55      1.0000 0.56718  0.00970  0.53070  Biso   1.000  H
  H56      1.0000 0.68776  0.25218  0.78991  Biso   1.000  H
  C51      1.0000 0.75352  0.22218  0.81734  Biso   1.000  C
  C52      1.0000 0.88804  0.12051  0.61254  Biso   1.000  C
  H57      1.0000 0.79078  0.09937  0.56539  Biso   1.000  H
  N23      1.0000 0.80409  0.96385  0.58779  Biso   1.000  N
  C53      1.0000 0.79836  0.88696  0.55529  Biso   1.000  C
  C54      1.0000 0.79447  0.84991  0.45959  Biso   1.000  C
  H58      1.0000 0.96628  0.43333  0.43021  Biso   1.000  H
  H59      1.0000 0.93277  0.49027  0.46929  Biso   1.000  H
  C55      1.0000 0.91156  0.43221  0.61078  Biso   1.000  C
  C56      1.0000 0.84581  0.53911  0.62743  Biso   1.000  C
  N24      1.0000 0.91659  0.34101  0.59625  Biso   1.000  N
  H60      1.0000 0.86107  0.27751  0.55142  Biso   1.000  H
  H61      1.0000 0.78176  0.18840  0.81131  Biso   1.000  H
  H62      1.0000 0.75317  0.25923  0.84860  Biso   1.000  H
  H63      1.0000 0.92278  0.12763  0.60843  Biso   1.000  H
  H64      1.0000 0.88525  0.07941  0.64360  Biso   1.000  H
  C57      1.0000 0.79179  0.96169  0.64216  Biso   1.000  C
  O11      1.0000 0.78922  0.80846  0.56998  Biso   1.000  O
  H65      1.0000 0.77027  0.80315  0.46830  Biso   1.000  H
  H66      1.0000 0.78026  0.88570  0.42809  Biso   1.000  H
  C58      1.0000 0.83877  0.79967  0.44538  Biso   1.000  C
  O12      1.0000 0.94403  0.49110  0.61417  Biso   1.000  O
  H67      1.0000 0.81668  0.53388  0.64651  Biso   1.000  H
  H68      1.0000 0.86988  0.57658  0.65003  Biso   1.000  H
  C59      1.0000 0.83254  0.59026  0.57637  Biso   1.000  C
  C60      1.0000 0.96155  0.30507  0.57956  Biso   1.000  C
  H69      1.0000 0.81087  0.01019  0.66300  Biso   1.000  H
  H70      1.0000 0.80155  0.90050  0.65801  Biso   1.000  H
  C61      1.0000 0.73937  0.97711  0.64799  Biso   1.000  C
  H71      1.0000 0.83408  0.75801  0.41600  Biso   1.000  H
  C62      1.0000 0.88306  0.80671  0.46881  Biso   1.000  C
  H72      1.0000 0.82055  0.65201  0.57892  Biso   1.000  H
  C63      1.0000 0.83596  0.55781  0.52842  Biso   1.000  C
  H73      1.0000 0.95377  0.26272  0.54882  Biso   1.000  H
  H74      1.0000 0.98037  0.35797  0.56730  Biso   1.000  H
  C64      1.0000 0.99254  0.25309  0.62288  Biso   1.000  C
  C65      1.0000 0.70647  0.00202  0.61190  Biso   1.000  C
  H75      1.0000 0.72975  0.96706  0.68252  Biso   1.000  H
  H76      1.0000 0.88998  0.84725  0.49852  Biso   1.000  H
  H77      1.0000 0.90827  0.77120  0.45612  Biso   1.000  H
  H78      1.0000 0.84776  0.49641  0.52391  Biso   1.000  H
  H79      1.0000 0.82667  0.59556  0.49800  Biso   1.000  H
  C66      1.0000 0.98372  0.24527  0.67350  Biso   1.000  C
  H80      1.0000 0.02076  0.22343  0.61310  Biso   1.000  H
  H81      1.0000 0.71408  0.01298  0.57661  Biso   1.000  H
  H82      1.0000 0.67427  0.00963  0.62032  Biso   1.000  H
  H83      1.0000 0.95584  0.27388  0.68500  Biso   1.000  H
  H84      1.0000 0.00529  0.21122  0.69809  Biso   1.000  H
  O13      1.0000 0.61337  0.84725  0.19291  Biso   1.000  O
  C67      1.0000 0.64203  0.80211  0.16943  Biso   1.000  C
  N25      1.0000 0.63037  0.75529  0.12157  Biso   1.000  N
  N26      1.0000 0.68983  0.78997  0.18548  Biso   1.000  N
  C68      1.0000 0.67330  0.71349  0.10428  Biso   1.000  C
  C69      1.0000 0.58781  0.77971  0.08619  Biso   1.000  C
  C70      1.0000 0.71491  0.74482  0.14532  Biso   1.000  C
  C71      1.0000 0.71322  0.83958  0.23215  Biso   1.000  C
  N27      1.0000 0.67490  0.61168  0.10927  Biso   1.000  N
  H85      1.0000 0.67848  0.73400  0.06739  Biso   1.000  H
  H86      1.0000 0.58007  0.72758  0.06088  Biso   1.000  H
  H87      1.0000 0.56028  0.78662  0.10771  Biso   1.000  H
  C72      1.0000 0.59242  0.86819  0.05469  Biso   1.000  C
  N28      1.0000 0.73865  0.65829  0.16249  Biso   1.000  N
  H88      1.0000 0.73728  0.78857  0.12939  Biso   1.000  H
  H89      1.0000 0.74638  0.85688  0.22540  Biso   1.000  H
  H90      1.0000 0.69519  0.89791  0.23722  Biso   1.000  H
  C73      1.0000 0.71555  0.78222  0.28297  Biso   1.000  C
  C74      1.0000 0.64309  0.54881  0.07765  Biso   1.000  C
  C75      1.0000 0.71520  0.58202  0.14061  Biso   1.000  C
  H91      1.0000 0.62000  0.87426  0.03581  Biso   1.000  H
  C76      1.0000 0.56168  0.93678  0.05138  Biso   1.000  C
  C77      1.0000 0.78617  0.65229  0.19167  Biso   1.000  C
  H92      1.0000 0.68776  0.74782  0.28992  Biso   1.000  H
  C78      1.0000 0.75356  0.77775  0.31735  Biso   1.000  C
  N29      1.0000 0.65011  0.54909  0.02156  Biso   1.000  N
  H93      1.0000 0.64829  0.48482  0.09178  Biso   1.000  H
  H94      1.0000 0.60917  0.56632  0.08140  Biso   1.000  H
  O14      1.0000 0.72741  0.50052  0.14795  Biso   1.000  O
  H95      1.0000 0.53370  0.93329  0.06979  Biso   1.000  H
  H96      1.0000 0.56718  0.99030  0.03070  Biso   1.000  H
  N30      1.0000 0.82415  0.68369  0.16041  Biso   1.000  N
  H97      1.0000 0.78699  0.69081  0.22441  Biso   1.000  H
  H98      1.0000 0.79257  0.58677  0.20269  Biso   1.000  H
  H99      1.0000 0.78180  0.81160  0.31132  Biso   1.000  H
  H100     1.0000 0.75316  0.74077  0.34861  Biso   1.000  H
  C79      1.0000 0.69323  0.51420  0.00044  Biso   1.000  C
  C80      1.0000 0.61670  0.58349  0.98315  Biso   1.000  C
  C81      1.0000 0.83986  0.77420  0.16344  Biso   1.000  C
  C82      1.0000 0.83655  0.63701  0.11178  Biso   1.000  C
  N31      1.0000 0.69554  0.41316  0.99549  Biso   1.000  N
  H101     1.0000 0.72338  0.54009  0.02028  Biso   1.000  H
  C83      1.0000 0.68676  0.54728  0.94147  Biso   1.000  C
  N32      1.0000 0.63590  0.57630  0.93509  Biso   1.000  N
  O15      1.0000 0.57711  0.61440  0.98954  Biso   1.000  O
  O16      1.0000 0.83050  0.83155  0.19670  Biso   1.000  O
  N33      1.0000 0.86825  0.78920  0.12300  Biso   1.000  N
  N34      1.0000 0.86555  0.55432  0.12153  Biso   1.000  N
  H102     1.0000 0.80738  0.62522  0.08591  Biso   1.000  H
  C84      1.0000 0.87121  0.70777  0.08975  Biso   1.000  C
  C85      1.0000 0.70552  0.34987  0.04044  Biso   1.000  C
  C86      1.0000 0.70155  0.38699  0.94471  Biso   1.000  C
  N35      1.0000 0.69586  0.46389  0.91225  Biso   1.000  N
  H103     1.0000 0.70917  0.59940  0.93461  Biso   1.000  H
  C87      1.0000 0.61188  0.62047  0.88750  Biso   1.000  C
  C88      1.0000 0.88807  0.87949  0.11254  Biso   1.000  C
  C89      1.0000 0.91159  0.56779  0.11075  Biso   1.000  C
  C90      1.0000 0.84581  0.46089  0.12743  Biso   1.000  C
  N36      1.0000 0.91659  0.65899  0.09625  Biso   1.000  N
  H104     1.0000 0.86110  0.72249  0.05138  Biso   1.000  H
  C91      1.0000 0.66117  0.29970  0.05461  Biso   1.000  C
  H105     1.0000 0.72968  0.30319  0.03170  Biso   1.000  H
  H106     1.0000 0.71968  0.38567  0.07190  Biso   1.000  H
  O17      1.0000 0.71069  0.30849  0.93006  Biso   1.000  O
  C92      1.0000 0.70812  0.46173  0.85787  Biso   1.000  C
  N37      1.0000 0.63166  0.71077  0.87700  Biso   1.000  N
  H107     1.0000 0.57717  0.62759  0.89161  Biso   1.000  H
  H108     1.0000 0.61466  0.57937  0.85644  Biso   1.000  H
  N38      1.0000 0.86405  0.92366  0.06491  Biso   1.000  N
  H109     1.0000 0.92278  0.87237  0.10839  Biso   1.000  H
  H110     1.0000 0.88529  0.92059  0.14360  Biso   1.000  H
  O18      1.0000 0.94407  0.50890  0.11418  Biso   1.000  O
  H111     1.0000 0.81668  0.46612  0.14652  Biso   1.000  H
  H112     1.0000 0.86987  0.42342  0.14999  Biso   1.000  H
  C93      1.0000 0.83254  0.40967  0.07633  Biso   1.000  C
  C94      1.0000 0.96154  0.69486  0.07957  Biso   1.000  C
  C95      1.0000 0.61689  0.30668  0.03122  Biso   1.000  C
  H113     1.0000 0.66587  0.25797  0.08400  Biso   1.000  H
  H114     1.0000 0.69837  0.40046  0.84202  Biso   1.000  H
  H115     1.0000 0.68908  0.51022  0.83703  Biso   1.000  H
  C96      1.0000 0.76057  0.47708  0.85201  Biso   1.000  C
  C97      1.0000 0.66009  0.72577  0.83656  Biso   1.000  C
  C98      1.0000 0.62874  0.79220  0.91029  Biso   1.000  C
  C99      1.0000 0.88325  0.91647  0.01689  Biso   1.000  C
  C100     1.0000 0.81319  0.95269  0.05853  Biso   1.000  C
  H116     1.0000 0.82058  0.34799  0.07889  Biso   1.000  H
  C101     1.0000 0.83599  0.44219  0.02839  Biso   1.000  C
  H117     1.0000 0.95376  0.73728  0.04879  Biso   1.000  H
  H118     1.0000 0.98037  0.64196  0.06731  Biso   1.000  H
  C102     1.0000 0.99257  0.74691  0.12288  Biso   1.000  C
  H119     1.0000 0.61000  0.34729  0.00152  Biso   1.000  H
  H120     1.0000 0.59168  0.27123  0.04392  Biso   1.000  H
  H121     1.0000 0.77016  0.46710  0.81751  Biso   1.000  H
  C103     1.0000 0.79348  0.50199  0.88814  Biso   1.000  C
  O19      1.0000 0.66945  0.66841  0.80334  Biso   1.000  O
  N39      1.0000 0.67580  0.81627  0.83963  Biso   1.000  N
  N40      1.0000 0.58333  0.84097  0.90379  Biso   1.000  N
  C104     1.0000 0.66337  0.86295  0.88826  Biso   1.000  C
  H122     1.0000 0.63885  0.77748  0.94862  Biso   1.000  H
  N41      1.0000 0.84984  0.95088  0.97848  Biso   1.000  N
  O20      1.0000 0.92280  0.88556  0.01050  Biso   1.000  O
  H123     1.0000 0.79078  0.90057  0.06539  Biso   1.000  H
  C105     1.0000 0.80668  0.98577  0.99960  Biso   1.000  C
  N42      1.0000 0.80409  0.03608  0.08779  Biso   1.000  N
  H124     1.0000 0.84779  0.50359  0.02391  Biso   1.000  H
  H125     1.0000 0.82667  0.40437  0.99800  Biso   1.000  H
  C106     1.0000 0.98372  0.75466  0.17351  Biso   1.000  C
  H126     1.0000 0.02080  0.77657  0.11310  Biso   1.000  H
  H127     1.0000 0.78587  0.51301  0.92343  Biso   1.000  H
  H128     1.0000 0.82564  0.50959  0.87971  Biso   1.000  H
  C107     1.0000 0.71378  0.84767  0.80837  Biso   1.000  C
  C108     1.0000 0.58835  0.93218  0.88925  Biso   1.000  C
  C109     1.0000 0.53841  0.80511  0.92047  Biso   1.000  C
  N43      1.0000 0.63440  0.94571  0.87851  Biso   1.000  N
  H129     1.0000 0.69257  0.87482  0.91413  Biso   1.000  H
  C110     1.0000 0.85686  0.95115  0.92239  Biso   1.000  C
  H130     1.0000 0.77657  0.95988  0.97972  Biso   1.000  H
  N44      1.0000 0.80437  0.08680  0.00451  Biso   1.000  N
  C111     1.0000 0.79840  0.11297  0.05529  Biso   1.000  C
  C112     1.0000 0.79183  0.03831  0.14217  Biso   1.000  C
  H131     1.0000 0.95588  0.72612  0.18500  Biso   1.000  H
  H132     1.0000 0.00528  0.78878  0.19810  Biso   1.000  H
  N45      1.0000 0.76130  0.84167  0.83755  Biso   1.000  N
  H133     1.0000 0.71296  0.80915  0.77563  Biso   1.000  H
  H134     1.0000 0.70734  0.91320  0.79731  Biso   1.000  H
  O21      1.0000 0.55588  0.99107  0.88586  Biso   1.000  O
  H135     1.0000 0.54615  0.76268  0.95121  Biso   1.000  H
  H136     1.0000 0.51955  0.85800  0.93273  Biso   1.000  H
  C113     1.0000 0.50738  0.75312  0.87716  Biso   1.000  C
  C114     1.0000 0.65413  0.03908  0.87257  Biso   1.000  C
  N46      1.0000 0.82505  0.88828  0.89077  Biso   1.000  N
  H137     1.0000 0.89074  0.93371  0.91864  Biso   1.000  H
  H138     1.0000 0.85165  0.01521  0.90822  Biso   1.000  H
  C115     1.0000 0.79444  0.15009  0.95960  Biso   1.000  C
  O22      1.0000 0.78926  0.19147  0.06998  Biso   1.000  O
  H139     1.0000 0.81087  0.98981  0.16301  Biso   1.000  H
  H140     1.0000 0.80158  0.09950  0.15801  Biso   1.000  H
  C116     1.0000 0.73937  0.02289  0.14799  Biso   1.000  C
  C117     1.0000 0.78475  0.91801  0.85939  Biso   1.000  C
  C118     1.0000 0.78504  0.75522  0.85472  Biso   1.000  C
  H141     1.0000 0.47915  0.72340  0.88694  Biso   1.000  H
  C119     1.0000 0.51620  0.74531  0.82653  Biso   1.000  C
  H142     1.0000 0.68327  0.03391  0.85352  Biso   1.000  H
  H143     1.0000 0.63007  0.07662  0.85001  Biso   1.000  H
  C120     1.0000 0.66737  0.09029  0.92367  Biso   1.000  C
  C121     1.0000 0.82665  0.78648  0.89572  Biso   1.000  C
  H144     1.0000 0.77027  0.19678  0.96834  Biso   1.000  H
  H145     1.0000 0.78027  0.11430  0.92814  Biso   1.000  H
  C122     1.0000 0.83874  0.20027  0.94543  Biso   1.000  C
  C123     1.0000 0.70647  0.99798  0.11190  Biso   1.000  C
  H146     1.0000 0.72978  0.03287  0.18249  Biso   1.000  H
  O23      1.0000 0.77253  0.99951  0.85205  Biso   1.000  O
  N47      1.0000 0.81008  0.71000  0.81452  Biso   1.000  N
  H147     1.0000 0.76266  0.71139  0.87061  Biso   1.000  H
  H148     1.0000 0.54407  0.77392  0.81504  Biso   1.000  H
  H149     1.0000 0.49466  0.71119  0.80190  Biso   1.000  H
  H150     1.0000 0.67936  0.15198  0.92111  Biso   1.000  H
  C124     1.0000 0.66396  0.05778  0.97161  Biso   1.000  C
  N48      1.0000 0.86958  0.74468  0.87847  Biso   1.000  N
  H151     1.0000 0.82146  0.76596  0.93261  Biso   1.000  H
  H152     1.0000 0.83404  0.24199  0.91600  Biso   1.000  H
  C125     1.0000 0.88306  0.19329  0.96882  Biso   1.000  C
  H153     1.0000 0.71408  0.98695  0.07661  Biso   1.000  H
  H154     1.0000 0.67427  0.99037  0.12029  Biso   1.000  H
  C126     1.0000 0.85791  0.69786  0.83057  Biso   1.000  C
  C127     1.0000 0.78673  0.66039  0.76789  Biso   1.000  C
  H155     1.0000 0.65216  0.99637  0.97613  Biso   1.000  H
  H156     1.0000 0.67328  0.09560  0.00200  Biso   1.000  H
  C128     1.0000 0.91214  0.72026  0.91385  Biso   1.000  C
  H157     1.0000 0.88995  0.15268  0.99852  Biso   1.000  H
  H158     1.0000 0.90823  0.22880  0.95612  Biso   1.000  H
  O24      1.0000 0.88658  0.65271  0.80713  Biso   1.000  O
  H159     1.0000 0.75357  0.64308  0.77464  Biso   1.000  H
  H160     1.0000 0.80476  0.60212  0.76282  Biso   1.000  H
  C129     1.0000 0.78440  0.71781  0.71707  Biso   1.000  C
  H161     1.0000 0.91984  0.77238  0.93912  Biso   1.000  H
  H162     1.0000 0.93967  0.71342  0.89233  Biso   1.000  H
  C130     1.0000 0.90753  0.63178  0.94535  Biso   1.000  C
  H163     1.0000 0.81215  0.75222  0.71012  Biso   1.000  H
  C131     1.0000 0.74639  0.72221  0.68269  Biso   1.000  C
  H164     1.0000 0.87995  0.62571  0.96423  Biso   1.000  H
  C132     1.0000 0.93826  0.56318  0.94862  Biso   1.000  C
  H165     1.0000 0.71816  0.68837  0.68872  Biso   1.000  H
  H166     1.0000 0.74675  0.75919  0.65143  Biso   1.000  H
  H167     1.0000 0.96625  0.56667  0.93021  Biso   1.000  H
  H168     1.0000 0.93274  0.50966  0.96934  Biso   1.000  H
  C133     1.0000 0.41215  0.77971  0.41380  Biso   1.000  C
  N49      1.0000 0.36959  0.75529  0.37843  Biso   1.000  N
  H169     1.0000 0.41989  0.72758  0.43911  Biso   1.000  H
  H170     1.0000 0.43969  0.78662  0.39232  Biso   1.000  H
  C134     1.0000 0.40755  0.86819  0.44534  Biso   1.000  C
  C135     1.0000 0.32667  0.71349  0.39572  Biso   1.000  C
  C136     1.0000 0.35793  0.80211  0.33056  Biso   1.000  C
  H171     1.0000 0.37997  0.87426  0.46422  Biso   1.000  H
  C137     1.0000 0.43828  0.93678  0.44861  Biso   1.000  C
  N50      1.0000 0.32506  0.61168  0.39073  Biso   1.000  N
  C138     1.0000 0.28506  0.74482  0.35468  Biso   1.000  C
  H172     1.0000 0.32148  0.73400  0.43260  Biso   1.000  H
  N51      1.0000 0.31013  0.78997  0.31451  Biso   1.000  N
  O25      1.0000 0.38660  0.84725  0.30709  Biso   1.000  O
  H173     1.0000 0.46627  0.93329  0.43021  Biso   1.000  H
  H174     1.0000 0.43279  0.99030  0.46929  Biso   1.000  H
  C139     1.0000 0.28477  0.58202  0.35939  Biso   1.000  C
  C140     1.0000 0.35688  0.54881  0.42234  Biso   1.000  C
  N52      1.0000 0.26131  0.65829  0.33751  Biso   1.000  N
  H175     1.0000 0.26268  0.78857  0.37060  Biso   1.000  H
  C141     1.0000 0.28675  0.83958  0.26788  Biso   1.000  C
  O26      1.0000 0.27255  0.50052  0.35204  Biso   1.000  O
  N53      1.0000 0.34985  0.54909  0.47844  Biso   1.000  N
  H176     1.0000 0.35167  0.48482  0.40821  Biso   1.000  H
  H177     1.0000 0.39079  0.56632  0.41859  Biso   1.000  H
  C142     1.0000 0.21380  0.65229  0.30836  Biso   1.000  C
  H178     1.0000 0.25359  0.85688  0.27459  Biso   1.000  H
  H179     1.0000 0.30477  0.89791  0.26281  Biso   1.000  H
  C143     1.0000 0.28442  0.78222  0.21702  Biso   1.000  C
  C144     1.0000 0.38324  0.58349  0.51688  Biso   1.000  C
  C145     1.0000 0.30673  0.51420  0.49956  Biso   1.000  C
  N54      1.0000 0.17581  0.68369  0.33958  Biso   1.000  N
  H180     1.0000 0.21297  0.69081  0.27559  Biso   1.000  H
  H181     1.0000 0.20740  0.58677  0.29731  Biso   1.000  H
  H182     1.0000 0.31221  0.74782  0.21011  Biso   1.000  H
  C146     1.0000 0.24641  0.77775  0.18265  Biso   1.000  C
  O27      1.0000 0.42282  0.61440  0.51049  Biso   1.000  O
  N55      1.0000 0.36404  0.57630  0.56495  Biso   1.000  N
  N56      1.0000 0.30439  0.41316  0.50455  Biso   1.000  N
  C147     1.0000 0.31317  0.54728  0.55856  Biso   1.000  C
  H183     1.0000 0.27659  0.54009  0.47971  Biso   1.000  H
  C148     1.0000 0.16011  0.77420  0.33655  Biso   1.000  C
  C149     1.0000 0.16342  0.63701  0.38825  Biso   1.000  C
  H184     1.0000 0.21817  0.81160  0.18872  Biso   1.000  H
  H185     1.0000 0.24680  0.74077  0.15139  Biso   1.000  H
  C150     1.0000 0.38806  0.62047  0.61254  Biso   1.000  C
  C151     1.0000 0.29838  0.38699  0.55529  Biso   1.000  C
  C152     1.0000 0.29445  0.34987  0.45959  Biso   1.000  C
  N57      1.0000 0.30407  0.46389  0.58779  Biso   1.000  N
  H186     1.0000 0.29076  0.59940  0.56539  Biso   1.000  H
  O28      1.0000 0.16946  0.83155  0.30329  Biso   1.000  O
  N58      1.0000 0.13172  0.78920  0.37699  Biso   1.000  N
  N59      1.0000 0.13442  0.55432  0.37851  Biso   1.000  N
  H187     1.0000 0.19259  0.62522  0.41412  Biso   1.000  H
  C153     1.0000 0.12876  0.70777  0.41025  Biso   1.000  C
  N60      1.0000 0.36827  0.71077  0.62304  Biso   1.000  N
  H188     1.0000 0.42277  0.62759  0.60843  Biso   1.000  H
  H189     1.0000 0.38527  0.57937  0.64360  Biso   1.000  H
  O29      1.0000 0.28924  0.30849  0.56998  Biso   1.000  O
  H190     1.0000 0.27029  0.30319  0.46830  Biso   1.000  H
  H191     1.0000 0.28028  0.38567  0.42809  Biso   1.000  H
  C154     1.0000 0.33879  0.29970  0.44538  Biso   1.000  C
  C155     1.0000 0.29181  0.46173  0.64216  Biso   1.000  C
  C156     1.0000 0.11189  0.87949  0.38745  Biso   1.000  C
  C157     1.0000 0.08837  0.56779  0.38925  Biso   1.000  C
  C158     1.0000 0.15415  0.46089  0.37256  Biso   1.000  C
  N61      1.0000 0.08338  0.65899  0.40378  Biso   1.000  N
  H192     1.0000 0.13887  0.72249  0.44861  Biso   1.000  H
  C159     1.0000 0.33984  0.72577  0.66344  Biso   1.000  C
  C160     1.0000 0.37119  0.79220  0.58974  Biso   1.000  C
  H193     1.0000 0.33409  0.25797  0.41600  Biso   1.000  H
  C161     1.0000 0.38308  0.30668  0.46881  Biso   1.000  C
  H194     1.0000 0.30157  0.40046  0.65801  Biso   1.000  H
  H195     1.0000 0.31086  0.51022  0.66300  Biso   1.000  H
  C162     1.0000 0.23936  0.47708  0.64799  Biso   1.000  C
  N62      1.0000 0.13592  0.92366  0.43508  Biso   1.000  N
  H196     1.0000 0.07719  0.87237  0.39160  Biso   1.000  H
  H197     1.0000 0.11468  0.92059  0.35639  Biso   1.000  H
  O30      1.0000 0.05590  0.50890  0.38582  Biso   1.000  O
  H198     1.0000 0.18329  0.46612  0.35352  Biso   1.000  H
  H199     1.0000 0.13009  0.42342  0.35000  Biso   1.000  H
  C163     1.0000 0.16742  0.40967  0.42366  Biso   1.000  C
  C164     1.0000 0.03842  0.69486  0.42043  Biso   1.000  C
  O31      1.0000 0.33049  0.66841  0.69669  Biso   1.000  O
  N63      1.0000 0.32414  0.81627  0.66040  Biso   1.000  N
  N64      1.0000 0.41661  0.84097  0.59625  Biso   1.000  N
  C165     1.0000 0.33656  0.86295  0.61178  Biso   1.000  C
  H200     1.0000 0.36108  0.77748  0.55142  Biso   1.000  H
  H201     1.0000 0.38997  0.34729  0.49852  Biso   1.000  H
  H202     1.0000 0.40829  0.27123  0.45612  Biso   1.000  H
  H203     1.0000 0.22977  0.46710  0.68252  Biso   1.000  H
  C166     1.0000 0.20646  0.50199  0.61190  Biso   1.000  C
  C167     1.0000 0.11672  0.91647  0.48315  Biso   1.000  C
  C168     1.0000 0.18678  0.95269  0.44147  Biso   1.000  C
  H204     1.0000 0.17938  0.34799  0.42111  Biso   1.000  H
  C169     1.0000 0.16398  0.44219  0.47161  Biso   1.000  C
  H205     1.0000 0.04620  0.73728  0.45121  Biso   1.000  H
  H206     1.0000 0.01960  0.64196  0.43272  Biso   1.000  H
  C170     1.0000 0.00739  0.74691  0.37715  Biso   1.000  C
  C171     1.0000 0.28615  0.84767  0.69166  Biso   1.000  C
  C172     1.0000 0.41158  0.93218  0.61078  Biso   1.000  C
  C173     1.0000 0.46153  0.80511  0.57956  Biso   1.000  C
  N65      1.0000 0.36553  0.94571  0.62152  Biso   1.000  N
  H207     1.0000 0.30737  0.87482  0.58591  Biso   1.000  H
  H208     1.0000 0.21406  0.51301  0.57661  Biso   1.000  H
  H209     1.0000 0.17429  0.50959  0.62032  Biso   1.000  H
  O32      1.0000 0.07717  0.88556  0.48953  Biso   1.000  O
  N66      1.0000 0.15010  0.95088  0.52155  Biso   1.000  N
  H210     1.0000 0.20919  0.90057  0.43460  Biso   1.000  H
  C174     1.0000 0.19325  0.98577  0.50043  Biso   1.000  C
  N67      1.0000 0.19588  0.03608  0.41224  Biso   1.000  N
  H211     1.0000 0.15218  0.50359  0.47612  Biso   1.000  H
  H212     1.0000 0.17326  0.40437  0.50199  Biso   1.000  H
  C175     1.0000 0.01625  0.75466  0.32653  Biso   1.000  C
  H213     1.0000 0.97917  0.77657  0.38689  Biso   1.000  H
  N68      1.0000 0.23863  0.84167  0.66248  Biso   1.000  N
  H214     1.0000 0.28698  0.80915  0.72440  Biso   1.000  H
  H215     1.0000 0.29259  0.91320  0.70272  Biso   1.000  H
  O33      1.0000 0.44405  0.99107  0.61417  Biso   1.000  O
  H216     1.0000 0.45379  0.76268  0.54882  Biso   1.000  H
  H217     1.0000 0.48039  0.85800  0.56730  Biso   1.000  H
  C176     1.0000 0.49256  0.75312  0.62288  Biso   1.000  C
  C177     1.0000 0.34579  0.03908  0.62743  Biso   1.000  C
  C178     1.0000 0.14307  0.95115  0.57764  Biso   1.000  C
  H218     1.0000 0.22337  0.95988  0.52032  Biso   1.000  H
  N69      1.0000 0.19560  0.08680  0.49548  Biso   1.000  N
  C179     1.0000 0.20157  0.11297  0.44470  Biso   1.000  C
  C180     1.0000 0.20814  0.03831  0.35783  Biso   1.000  C
  H219     1.0000 0.04409  0.72612  0.31499  Biso   1.000  H
  H220     1.0000 0.99468  0.78878  0.30190  Biso   1.000  H
  C181     1.0000 0.21518  0.91801  0.64064  Biso   1.000  C
  C182     1.0000 0.21489  0.75522  0.64531  Biso   1.000  C
  H221     1.0000 0.52078  0.72340  0.61310  Biso   1.000  H
  C183     1.0000 0.48374  0.74531  0.67350  Biso   1.000  C
  H222     1.0000 0.31666  0.03391  0.64651  Biso   1.000  H
  H223     1.0000 0.36986  0.07662  0.65003  Biso   1.000  H
  C184     1.0000 0.33256  0.09029  0.57637  Biso   1.000  C
  N70      1.0000 0.17489  0.88828  0.60926  Biso   1.000  N
  H224     1.0000 0.10919  0.93371  0.58140  Biso   1.000  H
  H225     1.0000 0.14828  0.01521  0.59182  Biso   1.000  H
  C185     1.0000 0.20550  0.15009  0.54044  Biso   1.000  C
  O34      1.0000 0.21071  0.19147  0.43005  Biso   1.000  O
  H226     1.0000 0.18909  0.98981  0.33699  Biso   1.000  H
  H227     1.0000 0.19839  0.09950  0.34202  Biso   1.000  H
  C186     1.0000 0.26059  0.02289  0.35200  Biso   1.000  C
  O35      1.0000 0.22740  0.99951  0.64795  Biso   1.000  O
  C187     1.0000 0.17328  0.78648  0.60431  Biso   1.000  C
  N71      1.0000 0.18985  0.71000  0.68552  Biso   1.000  N
  H228     1.0000 0.23727  0.71139  0.62942  Biso   1.000  H
  H229     1.0000 0.45586  0.77392  0.68500  Biso   1.000  H
  H230     1.0000 0.50527  0.71119  0.69809  Biso   1.000  H
  H231     1.0000 0.32057  0.15198  0.57892  Biso   1.000  H
  C188     1.0000 0.33598  0.05778  0.52842  Biso   1.000  C
  H232     1.0000 0.22966  0.19678  0.53169  Biso   1.000  H
  H233     1.0000 0.21967  0.11430  0.57190  Biso   1.000  H
  C189     1.0000 0.16119  0.20027  0.55461  Biso   1.000  C
  C190     1.0000 0.29349  0.99798  0.38809  Biso   1.000  C
  H234     1.0000 0.27018  0.03287  0.31751  Biso   1.000  H
  N72      1.0000 0.13036  0.74468  0.62156  Biso   1.000  N
  H235     1.0000 0.17847  0.76596  0.56742  Biso   1.000  H
  C191     1.0000 0.14202  0.69786  0.66947  Biso   1.000  C
  C192     1.0000 0.21320  0.66039  0.73215  Biso   1.000  C
  H236     1.0000 0.34777  0.99637  0.52391  Biso   1.000  H
  H237     1.0000 0.32669  0.09560  0.49800  Biso   1.000  H
  H238     1.0000 0.16589  0.24199  0.58399  Biso   1.000  H
  C193     1.0000 0.11687  0.19329  0.53121  Biso   1.000  C
  H239     1.0000 0.28589  0.98695  0.42342  Biso   1.000  H
  H240     1.0000 0.32570  0.99037  0.37971  Biso   1.000  H
  C194     1.0000 0.08780  0.72026  0.58619  Biso   1.000  C
  O36      1.0000 0.11335  0.65271  0.69290  Biso   1.000  O
  H241     1.0000 0.24636  0.64308  0.72540  Biso   1.000  H
  H242     1.0000 0.19518  0.60212  0.73722  Biso   1.000  H
  C195     1.0000 0.21553  0.71781  0.78297  Biso   1.000  C
  H243     1.0000 0.10999  0.15268  0.50151  Biso   1.000  H
  H244     1.0000 0.09170  0.22880  0.54391  Biso   1.000  H
  H245     1.0000 0.08009  0.77238  0.56092  Biso   1.000  H
  H246     1.0000 0.06027  0.71342  0.60771  Biso   1.000  H
  C196     1.0000 0.09240  0.63178  0.55469  Biso   1.000  C
  H247     1.0000 0.18778  0.75222  0.78991  Biso   1.000  H
  C197     1.0000 0.25354  0.72221  0.81734  Biso   1.000  C
  H248     1.0000 0.11998  0.62571  0.53581  Biso   1.000  H
  C198     1.0000 0.06167  0.56318  0.55142  Biso   1.000  C
  H249     1.0000 0.28178  0.68837  0.81131  Biso   1.000  H
  H250     1.0000 0.25318  0.75919  0.84860  Biso   1.000  H
  H251     1.0000 0.03369  0.56667  0.56982  Biso   1.000  H
  H252     1.0000 0.06720  0.50966  0.53070  Biso   1.000  H
  Ne1      1.0000 0.24998  0.74999  0.50000  Biso   1.000  Ne
  He1      1.0000 0.12851  0.44015  0.56099  Biso   1.000  He
  He2      1.0000 0.27667  0.06755  0.46395  Biso   1.000  He
  He3      1.0000 0.34668  0.96724  0.45867  Biso   1.000  He
  Ar1      1.0000 0.24997  0.74999  0.50001  Biso   1.000  Ar
  Ne2      1.0000 0.74997  0.25000  0.50000  Biso   1.000  Ne
  He4      1.0000 0.62853  0.94020  0.56100  Biso   1.000  He
  He5      1.0000 0.77661  0.56759  0.46396  Biso   1.000  He
  He6      1.0000 0.84666  0.46727  0.45867  Biso   1.000  He
  Ar2      1.0000 0.74997  0.25000  0.50001  Biso   1.000  Ar
  Ne3      1.0000 0.74997  0.74999  0.00001  Biso   1.000  Ne
  He7      1.0000 0.65260  0.96829  0.04168  Biso   1.000  He
  He8      1.0000 0.87069  0.44468  0.93984  Biso   1.000  He
  Ar3      1.0000 0.74998  0.74999  0.00001  Biso   1.000  Ar
