data_image0
_cell_length_a       28.193
_cell_length_b       14.344
_cell_length_c       25.205
_cell_angle_alpha    90
_cell_angle_beta     95.97
_cell_angle_gamma    90

_symmetry_space_group_name_H-M    "P 1"
_symmetry_int_tables_number       1

loop_
  _symmetry_equiv_pos_as_xyz
  'x, y, z'

loop_
  _atom_site_label
  _atom_site_occupancy
  _atom_site_fract_x
  _atom_site_fract_y
  _atom_site_fract_z
  _atom_site_thermal_displace_type
  _atom_site_B_iso_or_equiv
  _atom_site_type_symbol
  O1       1.0000 0.41446  0.62709  0.51192  Biso   1.000  O
  C1       1.0000 0.37641  0.59084  0.51846  Biso   1.000  C
  N1       1.0000 0.34528  0.55264  0.47969  Biso   1.000  N
  N2       1.0000 0.35781  0.58122  0.56597  Biso   1.000  N
  C2       1.0000 0.35494  0.54992  0.42448  Biso   1.000  C
  C3       1.0000 0.30299  0.51680  0.50015  Biso   1.000  C
  C4       1.0000 0.30823  0.55075  0.55923  Biso   1.000  C
  C5       1.0000 0.38142  0.62284  0.61388  Biso   1.000  C
  N3       1.0000 0.32505  0.61238  0.39069  Biso   1.000  N
  H1       1.0000 0.35006  0.48550  0.41092  Biso   1.000  H
  H2       1.0000 0.38879  0.56651  0.42229  Biso   1.000  H
  N4       1.0000 0.30145  0.41676  0.50574  Biso   1.000  N
  H3       1.0000 0.27329  0.54148  0.47981  Biso   1.000  H
  N5       1.0000 0.29953  0.46765  0.58883  Biso   1.000  N
  H4       1.0000 0.28558  0.60220  0.56550  Biso   1.000  H
  N6       1.0000 0.36330  0.71438  0.62501  Biso   1.000  N
  H5       1.0000 0.37746  0.58129  0.64452  Biso   1.000  H
  H6       1.0000 0.41595  0.62758  0.61029  Biso   1.000  H
  C6       1.0000 0.28576  0.58038  0.35874  Biso   1.000  C
  C7       1.0000 0.32601  0.71326  0.39524  Biso   1.000  C
  C8       1.0000 0.29506  0.39048  0.55684  Biso   1.000  C
  C9       1.0000 0.29252  0.35220  0.46078  Biso   1.000  C
  C10      1.0000 0.28631  0.46563  0.64276  Biso   1.000  C
  C11      1.0000 0.33582  0.72964  0.66558  Biso   1.000  C
  C12      1.0000 0.36741  0.79573  0.59182  Biso   1.000  C
  O2       1.0000 0.27338  0.49944  0.35304  Biso   1.000  O
  N7       1.0000 0.26292  0.65616  0.33477  Biso   1.000  N
  C13      1.0000 0.28542  0.74359  0.35208  Biso   1.000  C
  N8       1.0000 0.36818  0.75648  0.37809  Biso   1.000  N
  H7       1.0000 0.31979  0.73452  0.43170  Biso   1.000  H
  O3       1.0000 0.28673  0.31135  0.57132  Biso   1.000  O
  H8       1.0000 0.26817  0.30647  0.46940  Biso   1.000  H
  H9       1.0000 0.27897  0.38790  0.42919  Biso   1.000  H
  C14      1.0000 0.33443  0.30089  0.44650  Biso   1.000  C
  H10      1.0000 0.29637  0.40498  0.65900  Biso   1.000  H
  H11      1.0000 0.30425  0.51499  0.66359  Biso   1.000  H
  C15      1.0000 0.23465  0.47874  0.64747  Biso   1.000  C
  O4       1.0000 0.32563  0.67213  0.69829  Biso   1.000  O
  N9       1.0000 0.32154  0.82125  0.66343  Biso   1.000  N
  N10      1.0000 0.41278  0.84307  0.59912  Biso   1.000  N
  C16      1.0000 0.33354  0.86663  0.61432  Biso   1.000  C
  H12      1.0000 0.35767  0.78172  0.55341  Biso   1.000  H
  C17      1.0000 0.21629  0.64822  0.30624  Biso   1.000  C
  N11      1.0000 0.31126  0.78869  0.31295  Biso   1.000  N
  H13      1.0000 0.26237  0.78702  0.36692  Biso   1.000  H
  C18      1.0000 0.35795  0.80194  0.33026  Biso   1.000  C
  C19      1.0000 0.41103  0.77823  0.41355  Biso   1.000  C
  H14      1.0000 0.32936  0.26108  0.41642  Biso   1.000  H
  C20      1.0000 0.37710  0.30340  0.46980  Biso   1.000  C
  H15      1.0000 0.22457  0.46863  0.68182  Biso   1.000  H
  C21      1.0000 0.20197  0.50223  0.61041  Biso   1.000  C
  C22      1.0000 0.28368  0.85178  0.69374  Biso   1.000  C
  C23      1.0000 0.40822  0.93419  0.61297  Biso   1.000  C
  C24      1.0000 0.45685  0.80612  0.58245  Biso   1.000  C
  N12      1.0000 0.36193  0.94932  0.62330  Biso   1.000  N
  H16      1.0000 0.30447  0.87821  0.58891  Biso   1.000  H
  N13      1.0000 0.17843  0.67875  0.33660  Biso   1.000  N
  H17      1.0000 0.21527  0.68572  0.27321  Biso   1.000  H
  H18      1.0000 0.21056  0.58233  0.29579  Biso   1.000  H
  C25      1.0000 0.28894  0.83840  0.26631  Biso   1.000  C
  O5       1.0000 0.38686  0.84628  0.30772  Biso   1.000  O
  H19      1.0000 0.41796  0.72539  0.43852  Biso   1.000  H
  H20      1.0000 0.43829  0.78444  0.39201  Biso   1.000  H
  C26      1.0000 0.40710  0.86482  0.44494  Biso   1.000  C
  H21      1.0000 0.38447  0.34189  0.50019  Biso   1.000  H
  H22      1.0000 0.40139  0.26659  0.45671  Biso   1.000  H
  H23      1.0000 0.20998  0.51318  0.57519  Biso   1.000  H
  H24      1.0000 0.16985  0.50844  0.61819  Biso   1.000  H
  N14      1.0000 0.23701  0.84384  0.66526  Biso   1.000  N
  H25      1.0000 0.28466  0.81428  0.72681  Biso   1.000  H
  H26      1.0000 0.28936  0.91774  0.70420  Biso   1.000  H
  O6       1.0000 0.43994  0.99254  0.61620  Biso   1.000  O
  H27      1.0000 0.44895  0.76401  0.55169  Biso   1.000  H
  H28      1.0000 0.47578  0.85848  0.57012  Biso   1.000  H
  C27      1.0000 0.48691  0.75418  0.62461  Biso   1.000  C
  C28      1.0000 0.34306  0.04253  0.62860  Biso   1.000  C
  C29      1.0000 0.16411  0.77043  0.33445  Biso   1.000  C
  C30      1.0000 0.16643  0.63337  0.38567  Biso   1.000  C
  H29      1.0000 0.25659  0.85848  0.27349  Biso   1.000  H
  H30      1.0000 0.30779  0.89508  0.26069  Biso   1.000  H
  C31      1.0000 0.28499  0.78102  0.21621  Biso   1.000  C
  H31      1.0000 0.37997  0.87200  0.46401  Biso   1.000  H
  C32      1.0000 0.43846  0.93161  0.44802  Biso   1.000  C
  C33      1.0000 0.21417  0.91962  0.64125  Biso   1.000  C
  C34      1.0000 0.21450  0.75641  0.64791  Biso   1.000  C
  H32      1.0000 0.51497  0.72539  0.61440  Biso   1.000  H
  C35      1.0000 0.47836  0.74428  0.67460  Biso   1.000  C
  H33      1.0000 0.31368  0.03813  0.64679  Biso   1.000  H
  H34      1.0000 0.36657  0.07941  0.65182  Biso   1.000  H
  C36      1.0000 0.33175  0.09370  0.57754  Biso   1.000  C
  O7       1.0000 0.17430  0.82787  0.30170  Biso   1.000  O
  N15      1.0000 0.13663  0.78562  0.37498  Biso   1.000  N
  N16      1.0000 0.13800  0.55068  0.37669  Biso   1.000  N
  H35      1.0000 0.19547  0.62179  0.41112  Biso   1.000  H
  C37      1.0000 0.13252  0.70434  0.40820  Biso   1.000  C
  H36      1.0000 0.31188  0.74554  0.20859  Biso   1.000  H
  C38      1.0000 0.24644  0.77733  0.18230  Biso   1.000  C
  H37      1.0000 0.46595  0.92652  0.42939  Biso   1.000  H
  H38      1.0000 0.43387  0.98543  0.46880  Biso   1.000  H
  N17      1.0000 0.17488  0.88769  0.60930  Biso   1.000  N
  O8       1.0000 0.22655  0.00056  0.64699  Biso   1.000  O
  C39      1.0000 0.17396  0.78674  0.60479  Biso   1.000  C
  N18      1.0000 0.18867  0.71131  0.68704  Biso   1.000  N
  H39      1.0000 0.23757  0.71298  0.63311  Biso   1.000  H
  H40      1.0000 0.45075  0.77182  0.68660  Biso   1.000  H
  H41      1.0000 0.49975  0.70963  0.69861  Biso   1.000  H
  H42      1.0000 0.32048  0.15588  0.57950  Biso   1.000  H
  C40      1.0000 0.33607  0.05989  0.53011  Biso   1.000  C
  C41      1.0000 0.11851  0.87723  0.38611  Biso   1.000  C
  C42      1.0000 0.09171  0.56581  0.38702  Biso   1.000  C
  C43      1.0000 0.15690  0.45747  0.37139  Biso   1.000  C
  N19      1.0000 0.08718  0.65693  0.40090  Biso   1.000  N
  H43      1.0000 0.14226  0.71828  0.44662  Biso   1.000  H
  H44      1.0000 0.21900  0.81212  0.18888  Biso   1.000  H
  H45      1.0000 0.24600  0.73982  0.15119  Biso   1.000  H
  C44      1.0000 0.14503  0.95008  0.57555  Biso   1.000  C
  N20      1.0000 0.13175  0.74352  0.62194  Biso   1.000  N
  H46      1.0000 0.18018  0.76548  0.56829  Biso   1.000  H
  C45      1.0000 0.14198  0.69813  0.66973  Biso   1.000  C
  C46      1.0000 0.21102  0.66160  0.73368  Biso   1.000  C
  H47      1.0000 0.34718  0.99791  0.52640  Biso   1.000  H
  H48      1.0000 0.32806  0.09718  0.49932  Biso   1.000  H
  N21      1.0000 0.14212  0.91878  0.43401  Biso   1.000  N
  H49      1.0000 0.12248  0.91871  0.35551  Biso   1.000  H
  H50      1.0000 0.08398  0.87242  0.38970  Biso   1.000  H
  O9       1.0000 0.05998  0.50746  0.38379  Biso   1.000  O
  H51      1.0000 0.18628  0.46194  0.35320  Biso   1.000  H
  H52      1.0000 0.13340  0.42059  0.34821  Biso   1.000  H
  C47      1.0000 0.16818  0.40630  0.42249  Biso   1.000  C
  C48      1.0000 0.04308  0.69388  0.41758  Biso   1.000  C
  N22      1.0000 0.15468  0.94736  0.52030  Biso   1.000  N
  H53      1.0000 0.11118  0.93349  0.57770  Biso   1.000  H
  H54      1.0000 0.14987  0.01450  0.58911  Biso   1.000  H
  C49      1.0000 0.08890  0.72183  0.58644  Biso   1.000  C
  O10      1.0000 0.11311  0.65372  0.69227  Biso   1.000  O
  H55      1.0000 0.24338  0.64152  0.72650  Biso   1.000  H
  H56      1.0000 0.19218  0.60492  0.73930  Biso   1.000  H
  C50      1.0000 0.21498  0.71898  0.78382  Biso   1.000  C
  C51      1.0000 0.12352  0.90923  0.48152  Biso   1.000  C
  C52      1.0000 0.19173  0.94932  0.44076  Biso   1.000  C
  H57      1.0000 0.17949  0.34412  0.42049  Biso   1.000  H
  C53      1.0000 0.16390  0.44011  0.46992  Biso   1.000  C
  H58      1.0000 0.05098  0.73599  0.44830  Biso   1.000  H
  H59      1.0000 0.02419  0.64152  0.42991  Biso   1.000  H
  C54      1.0000 0.01302  0.74582  0.37541  Biso   1.000  C
  C55      1.0000 0.19698  0.98320  0.49983  Biso   1.000  C
  H60      1.0000 0.08197  0.77461  0.56151  Biso   1.000  H
  H61      1.0000 0.06168  0.71563  0.60802  Biso   1.000  H
  C56      1.0000 0.09286  0.63518  0.55504  Biso   1.000  C
  H62      1.0000 0.18805  0.75453  0.79140  Biso   1.000  H
  C57      1.0000 0.25352  0.72274  0.81769  Biso   1.000  C
  O11      1.0000 0.08550  0.87291  0.48811  Biso   1.000  O
  H63      1.0000 0.21438  0.89780  0.43449  Biso   1.000  H
  N23      1.0000 0.20040  0.03235  0.41116  Biso   1.000  N
  H64      1.0000 0.15279  0.50209  0.47359  Biso   1.000  H
  H65      1.0000 0.17187  0.40282  0.50071  Biso   1.000  H
  C58      1.0000 0.02157  0.75572  0.32543  Biso   1.000  C
  H66      1.0000 0.98495  0.77461  0.38559  Biso   1.000  H
  H67      1.0000 0.22668  0.95852  0.52022  Biso   1.000  H
  N24      1.0000 0.19848  0.08324  0.49429  Biso   1.000  N
  H68      1.0000 0.11996  0.62800  0.53602  Biso   1.000  H
  C59      1.0000 0.06147  0.56839  0.55197  Biso   1.000  C
  H69      1.0000 0.28097  0.68788  0.81110  Biso   1.000  H
  H70      1.0000 0.25397  0.76018  0.84880  Biso   1.000  H
  C60      1.0000 0.20490  0.10959  0.44315  Biso   1.000  C
  C61      1.0000 0.21362  0.03444  0.35726  Biso   1.000  C
  H71      1.0000 0.04918  0.72818  0.31338  Biso   1.000  H
  H72      1.0000 0.00018  0.79044  0.30142  Biso   1.000  H
  C62      1.0000 0.20741  0.14780  0.53925  Biso   1.000  C
  H73      1.0000 0.03397  0.57348  0.57060  Biso   1.000  H
  H74      1.0000 0.06606  0.51464  0.53119  Biso   1.000  H
  O12      1.0000 0.21320  0.18865  0.42867  Biso   1.000  O
  H75      1.0000 0.19568  0.98501  0.33640  Biso   1.000  H
  H76      1.0000 0.20359  0.09502  0.34099  Biso   1.000  H
  C63      1.0000 0.26528  0.02133  0.35252  Biso   1.000  C
  H77      1.0000 0.23176  0.19353  0.53059  Biso   1.000  H
  H78      1.0000 0.22095  0.11210  0.57080  Biso   1.000  H
  C64      1.0000 0.16550  0.19911  0.55349  Biso   1.000  C
  C65      1.0000 0.29799  0.99784  0.38958  Biso   1.000  C
  H79      1.0000 0.27539  0.03144  0.31821  Biso   1.000  H
  H80      1.0000 0.17057  0.23892  0.58361  Biso   1.000  H
  C66      1.0000 0.12283  0.19660  0.53019  Biso   1.000  C
  H81      1.0000 0.28999  0.98682  0.42480  Biso   1.000  H
  H82      1.0000 0.33008  0.99163  0.38180  Biso   1.000  H
  H83      1.0000 0.11546  0.15811  0.49979  Biso   1.000  H
  H84      1.0000 0.09858  0.23341  0.54332  Biso   1.000  H
  O13      1.0000 0.58548  0.37291  0.48811  Biso   1.000  O
  C67      1.0000 0.62350  0.40923  0.48152  Biso   1.000  C
  N25      1.0000 0.64210  0.41878  0.43401  Biso   1.000  N
  N26      1.0000 0.65466  0.44736  0.52030  Biso   1.000  N
  C68      1.0000 0.61849  0.37723  0.38611  Biso   1.000  C
  C69      1.0000 0.69171  0.44925  0.44076  Biso   1.000  C
  C70      1.0000 0.69696  0.48320  0.49983  Biso   1.000  C
  C71      1.0000 0.64501  0.45008  0.57555  Biso   1.000  C
  N27      1.0000 0.63661  0.28562  0.37498  Biso   1.000  N
  H85      1.0000 0.62246  0.41871  0.35551  Biso   1.000  H
  H86      1.0000 0.58396  0.37242  0.38970  Biso   1.000  H
  N28      1.0000 0.70042  0.53235  0.41116  Biso   1.000  N
  H87      1.0000 0.71436  0.39780  0.43449  Biso   1.000  H
  N29      1.0000 0.69850  0.58324  0.49429  Biso   1.000  N
  H88      1.0000 0.72666  0.45852  0.52022  Biso   1.000  H
  N30      1.0000 0.67486  0.38769  0.60930  Biso   1.000  N
  H89      1.0000 0.64985  0.51450  0.58911  Biso   1.000  H
  H90      1.0000 0.61116  0.43349  0.57770  Biso   1.000  H
  C72      1.0000 0.63254  0.20434  0.40820  Biso   1.000  C
  C73      1.0000 0.66409  0.27043  0.33445  Biso   1.000  C
  C74      1.0000 0.70488  0.60959  0.44315  Biso   1.000  C
  C75      1.0000 0.71360  0.53444  0.35726  Biso   1.000  C
  C76      1.0000 0.70740  0.64780  0.53925  Biso   1.000  C
  C77      1.0000 0.71415  0.41962  0.64125  Biso   1.000  C
  C78      1.0000 0.67394  0.28674  0.60479  Biso   1.000  C
  N31      1.0000 0.58717  0.15693  0.40090  Biso   1.000  N
  C79      1.0000 0.66641  0.13337  0.38567  Biso   1.000  C
  H91      1.0000 0.64228  0.21828  0.44662  Biso   1.000  H
  N32      1.0000 0.67841  0.17875  0.33660  Biso   1.000  N
  O14      1.0000 0.67431  0.32787  0.30170  Biso   1.000  O
  O15      1.0000 0.71318  0.68865  0.42867  Biso   1.000  O
  H92      1.0000 0.70358  0.59502  0.34099  Biso   1.000  H
  H93      1.0000 0.69566  0.48501  0.33640  Biso   1.000  H
  C80      1.0000 0.76530  0.52133  0.35252  Biso   1.000  C
  H94      1.0000 0.73178  0.69353  0.53059  Biso   1.000  H
  H95      1.0000 0.72097  0.61210  0.57080  Biso   1.000  H
  C81      1.0000 0.66552  0.69911  0.55349  Biso   1.000  C
  O16      1.0000 0.72657  0.50056  0.64699  Biso   1.000  O
  N33      1.0000 0.73699  0.34384  0.66526  Biso   1.000  N
  N34      1.0000 0.63173  0.24352  0.62194  Biso   1.000  N
  H96      1.0000 0.68016  0.26548  0.56829  Biso   1.000  H
  C82      1.0000 0.71452  0.25641  0.64791  Biso   1.000  C
  C83      1.0000 0.54310  0.19388  0.41758  Biso   1.000  C
  C84      1.0000 0.59173  0.06581  0.38702  Biso   1.000  C
  N35      1.0000 0.63798  0.05068  0.37669  Biso   1.000  N
  H97      1.0000 0.69548  0.12179  0.41112  Biso   1.000  H
  C85      1.0000 0.71627  0.14822  0.30624  Biso   1.000  C
  H98      1.0000 0.77538  0.53144  0.31821  Biso   1.000  H
  C86      1.0000 0.79797  0.49784  0.38958  Biso   1.000  C
  H99      1.0000 0.67055  0.73892  0.58361  Biso   1.000  H
  C87      1.0000 0.62281  0.69660  0.53019  Biso   1.000  C
  C88      1.0000 0.78366  0.35178  0.69374  Biso   1.000  C
  C89      1.0000 0.64196  0.19813  0.66973  Biso   1.000  C
  C90      1.0000 0.58888  0.22183  0.58644  Biso   1.000  C
  N36      1.0000 0.68865  0.21131  0.68704  Biso   1.000  N
  H100     1.0000 0.73755  0.21298  0.63311  Biso   1.000  H
  C91      1.0000 0.51301  0.24582  0.37541  Biso   1.000  C
  H101     1.0000 0.55096  0.23599  0.44830  Biso   1.000  H
  H102     1.0000 0.52417  0.14152  0.42991  Biso   1.000  H
  O17      1.0000 0.55997  0.00746  0.38379  Biso   1.000  O
  C92      1.0000 0.65689  0.95747  0.37139  Biso   1.000  C
  N37      1.0000 0.76291  0.15616  0.33477  Biso   1.000  N
  H103     1.0000 0.71529  0.18572  0.27321  Biso   1.000  H
  H104     1.0000 0.71058  0.08233  0.29579  Biso   1.000  H
  H105     1.0000 0.78997  0.48682  0.42480  Biso   1.000  H
  H106     1.0000 0.83006  0.49163  0.38180  Biso   1.000  H
  H107     1.0000 0.61548  0.65811  0.49979  Biso   1.000  H
  H108     1.0000 0.59856  0.73341  0.54332  Biso   1.000  H
  H109     1.0000 0.78464  0.31428  0.72681  Biso   1.000  H
  H110     1.0000 0.78935  0.41774  0.70420  Biso   1.000  H
  N38      1.0000 0.82152  0.32125  0.66343  Biso   1.000  N
  O18      1.0000 0.61309  0.15372  0.69227  Biso   1.000  O
  H111     1.0000 0.58195  0.27461  0.56151  Biso   1.000  H
  H112     1.0000 0.56166  0.21563  0.60802  Biso   1.000  H
  C93      1.0000 0.59284  0.13518  0.55504  Biso   1.000  C
  C94      1.0000 0.71100  0.16160  0.73368  Biso   1.000  C
  C95      1.0000 0.52159  0.25572  0.32543  Biso   1.000  C
  H113     1.0000 0.48497  0.27461  0.38559  Biso   1.000  H
  H114     1.0000 0.68627  0.96187  0.35320  Biso   1.000  H
  H115     1.0000 0.63338  0.92059  0.34821  Biso   1.000  H
  C96      1.0000 0.66820  0.90630  0.42249  Biso   1.000  C
  C97      1.0000 0.78574  0.08038  0.35874  Biso   1.000  C
  C98      1.0000 0.78541  0.24359  0.35208  Biso   1.000  C
  C99      1.0000 0.83584  0.22957  0.66558  Biso   1.000  C
  C100     1.0000 0.83352  0.36663  0.61432  Biso   1.000  C
  H116     1.0000 0.61995  0.12800  0.53602  Biso   1.000  H
  C101     1.0000 0.56145  0.06839  0.55197  Biso   1.000  C
  H117     1.0000 0.74336  0.14152  0.72650  Biso   1.000  H
  H118     1.0000 0.69216  0.10492  0.73930  Biso   1.000  H
  C102     1.0000 0.71496  0.21898  0.78382  Biso   1.000  C
  H119     1.0000 0.54916  0.22818  0.31338  Biso   1.000  H
  H120     1.0000 0.50017  0.29044  0.30142  Biso   1.000  H
  H121     1.0000 0.67947  0.84412  0.42049  Biso   1.000  H
  C103     1.0000 0.66388  0.94011  0.46992  Biso   1.000  C
  N39      1.0000 0.82507  0.11238  0.39069  Biso   1.000  N
  O19      1.0000 0.77337  0.99944  0.35304  Biso   1.000  O
  N40      1.0000 0.81124  0.28869  0.31295  Biso   1.000  N
  C104     1.0000 0.82599  0.21326  0.39524  Biso   1.000  C
  H122     1.0000 0.76238  0.28702  0.36692  Biso   1.000  H
  N41      1.0000 0.86332  0.21438  0.62501  Biso   1.000  N
  O20      1.0000 0.82562  0.17213  0.69829  Biso   1.000  O
  N42      1.0000 0.86195  0.44932  0.62330  Biso   1.000  N
  H123     1.0000 0.80445  0.37821  0.58891  Biso   1.000  H
  C105     1.0000 0.86740  0.29573  0.59182  Biso   1.000  C
  H124     1.0000 0.53396  0.07348  0.57060  Biso   1.000  H
  H125     1.0000 0.56608  0.01457  0.53119  Biso   1.000  H
  H126     1.0000 0.68807  0.25453  0.79140  Biso   1.000  H
  C106     1.0000 0.75351  0.22267  0.81769  Biso   1.000  C
  H127     1.0000 0.65277  0.00209  0.47359  Biso   1.000  H
  H128     1.0000 0.67186  0.90282  0.50071  Biso   1.000  H
  C107     1.0000 0.85492  0.04992  0.42448  Biso   1.000  C
  C108     1.0000 0.85797  0.30194  0.33026  Biso   1.000  C
  C109     1.0000 0.78892  0.33840  0.26631  Biso   1.000  C
  N43      1.0000 0.86820  0.25648  0.37809  Biso   1.000  N
  H129     1.0000 0.81977  0.23452  0.43170  Biso   1.000  H
  C110     1.0000 0.88140  0.12277  0.61388  Biso   1.000  C
  C111     1.0000 0.90820  0.43419  0.61297  Biso   1.000  C
  C112     1.0000 0.84304  0.54253  0.62860  Biso   1.000  C
  N44      1.0000 0.91277  0.34307  0.59912  Biso   1.000  N
  H130     1.0000 0.85765  0.28172  0.55341  Biso   1.000  H
  H131     1.0000 0.78095  0.18788  0.81110  Biso   1.000  H
  H132     1.0000 0.75395  0.26018  0.84880  Biso   1.000  H
  N45      1.0000 0.84526  0.05264  0.47969  Biso   1.000  N
  H133     1.0000 0.88877  0.06651  0.42229  Biso   1.000  H
  H134     1.0000 0.85008  0.98550  0.41092  Biso   1.000  H
  O21      1.0000 0.88684  0.34628  0.30772  Biso   1.000  O
  H135     1.0000 0.75657  0.35848  0.27349  Biso   1.000  H
  H136     1.0000 0.80777  0.39508  0.26069  Biso   1.000  H
  C113     1.0000 0.78497  0.28102  0.21621  Biso   1.000  C
  C114     1.0000 0.91105  0.27823  0.41355  Biso   1.000  C
  N46      1.0000 0.85779  0.08122  0.56597  Biso   1.000  N
  H137     1.0000 0.87744  0.08129  0.64452  Biso   1.000  H
  H138     1.0000 0.91597  0.12758  0.61029  Biso   1.000  H
  O22      1.0000 0.93993  0.49254  0.61620  Biso   1.000  O
  H139     1.0000 0.81366  0.53813  0.64679  Biso   1.000  H
  H140     1.0000 0.86655  0.57941  0.65182  Biso   1.000  H
  C115     1.0000 0.83173  0.59370  0.57754  Biso   1.000  C
  C116     1.0000 0.95683  0.30612  0.58245  Biso   1.000  C
  C117     1.0000 0.87639  0.09077  0.51846  Biso   1.000  C
  C118     1.0000 0.80297  0.01680  0.50015  Biso   1.000  C
  H141     1.0000 0.81186  0.24554  0.20859  Biso   1.000  H
  C119     1.0000 0.74642  0.27733  0.18230  Biso   1.000  C
  H142     1.0000 0.91798  0.22539  0.43852  Biso   1.000  H
  H143     1.0000 0.93827  0.28437  0.39201  Biso   1.000  H
  C120     1.0000 0.90708  0.36482  0.44494  Biso   1.000  C
  C121     1.0000 0.80822  0.05075  0.55923  Biso   1.000  C
  H144     1.0000 0.82046  0.65588  0.57950  Biso   1.000  H
  C122     1.0000 0.83605  0.55989  0.53011  Biso   1.000  C
  H145     1.0000 0.94897  0.26401  0.55169  Biso   1.000  H
  H146     1.0000 0.97576  0.35848  0.57012  Biso   1.000  H
  C123     1.0000 0.98693  0.25418  0.62461  Biso   1.000  C
  O23      1.0000 0.91445  0.12709  0.51192  Biso   1.000  O
  H147     1.0000 0.77327  0.04148  0.47981  Biso   1.000  H
  N47      1.0000 0.80143  0.91676  0.50574  Biso   1.000  N
  H148     1.0000 0.71898  0.31212  0.18888  Biso   1.000  H
  H149     1.0000 0.74598  0.23982  0.15119  Biso   1.000  H
  H150     1.0000 0.87995  0.37200  0.46401  Biso   1.000  H
  C124     1.0000 0.93848  0.43161  0.44802  Biso   1.000  C
  H151     1.0000 0.78557  0.10220  0.56550  Biso   1.000  H
  N48      1.0000 0.79951  0.96765  0.58883  Biso   1.000  N
  H152     1.0000 0.84716  0.49791  0.52640  Biso   1.000  H
  H153     1.0000 0.82808  0.59718  0.49932  Biso   1.000  H
  C125     1.0000 0.97834  0.24428  0.67460  Biso   1.000  C
  H154     1.0000 0.01496  0.22539  0.61440  Biso   1.000  H
  C126     1.0000 0.79505  0.89041  0.55684  Biso   1.000  C
  C127     1.0000 0.79254  0.85220  0.46078  Biso   1.000  C
  H155     1.0000 0.96597  0.42652  0.42939  Biso   1.000  H
  H156     1.0000 0.93385  0.48543  0.46880  Biso   1.000  H
  C128     1.0000 0.78633  0.96563  0.64276  Biso   1.000  C
  H157     1.0000 0.95077  0.27182  0.68660  Biso   1.000  H
  H158     1.0000 0.99977  0.20963  0.69861  Biso   1.000  H
  O24      1.0000 0.78671  0.81135  0.57132  Biso   1.000  O
  H159     1.0000 0.76815  0.80647  0.46940  Biso   1.000  H
  H160     1.0000 0.77896  0.88790  0.42919  Biso   1.000  H
  C129     1.0000 0.83441  0.80089  0.44650  Biso   1.000  C
  H161     1.0000 0.80426  0.01499  0.66359  Biso   1.000  H
  H162     1.0000 0.79635  0.90498  0.65900  Biso   1.000  H
  C130     1.0000 0.73463  0.97867  0.64747  Biso   1.000  C
  H163     1.0000 0.82938  0.76108  0.41642  Biso   1.000  H
  C131     1.0000 0.87712  0.80340  0.46980  Biso   1.000  C
  C132     1.0000 0.70195  0.00223  0.61041  Biso   1.000  C
  H164     1.0000 0.72456  0.96863  0.68182  Biso   1.000  H
  H165     1.0000 0.88445  0.84189  0.50019  Biso   1.000  H
  H166     1.0000 0.90137  0.76659  0.45671  Biso   1.000  H
  H167     1.0000 0.70996  0.01318  0.57519  Biso   1.000  H
  H168     1.0000 0.66987  0.00837  0.61819  Biso   1.000  H
