data_image0
_cell_length_a       21.146
_cell_length_b       10.216
_cell_length_c       15.185
_cell_angle_alpha    90
_cell_angle_beta     111.64
_cell_angle_gamma    90

_symmetry_space_group_name_H-M    "P 1"
_symmetry_int_tables_number       1

loop_
  _symmetry_equiv_pos_as_xyz
  'x, y, z'

loop_
  _atom_site_label
  _atom_site_occupancy
  _atom_site_fract_x
  _atom_site_fract_y
  _atom_site_fract_z
  _atom_site_thermal_displace_type
  _atom_site_B_iso_or_equiv
  _atom_site_type_symbol
  C1       1.0000 0.60249  0.27604  0.38307  Biso   1.000  C
  C2       1.0000 0.57139  0.29601  0.27510  Biso   1.000  C
  C3       1.0000 0.68161  0.28700  0.42041  Biso   1.000  C
  O1       1.0000 0.58560  0.15476  0.41198  Biso   1.000  O
  O2       1.0000 0.49968  0.29503  0.24450  Biso   1.000  O
  C4       1.0000 0.60030  0.41396  0.24570  Biso   1.000  C
  O3       1.0000 0.70089  0.40534  0.38449  Biso   1.000  O
  O4       1.0000 0.70681  0.18021  0.39058  Biso   1.000  O
  C5       1.0000 0.67822  0.40799  0.28332  Biso   1.000  C
  O5       1.0000 0.57313  0.41680  0.14453  Biso   1.000  O
  C6       1.0000 0.75579  0.09896  0.46002  Biso   1.000  C
  C7       1.0000 0.71671  0.51997  0.25548  Biso   1.000  C
  C8       1.0000 0.54678  0.53299  0.09791  Biso   1.000  C
  C9       1.0000 0.82720  0.13401  0.47071  Biso   1.000  C
  C10      1.0000 0.73589  0.95595  0.43253  Biso   1.000  C
  O6       1.0000 0.70080  0.64996  0.27609  Biso   1.000  O
  O7       1.0000 0.78598  0.47895  0.27900  Biso   1.000  O
  C11      1.0000 0.47510  0.50803  0.02331  Biso   1.000  C
  O8       1.0000 0.58851  0.58810  0.05477  Biso   1.000  O
  C12      1.0000 0.85012  0.25901  0.51620  Biso   1.000  C
  O9       1.0000 0.87440  0.03915  0.53037  Biso   1.000  O
  C13      1.0000 0.78940  0.86502  0.49728  Biso   1.000  C
  O10      1.0000 0.67029  0.93040  0.43359  Biso   1.000  O
  O11      1.0000 0.43352  0.44802  0.06879  Biso   1.000  O
  C14      1.0000 0.48087  0.41905  0.94438  Biso   1.000  C
  C15      1.0000 0.59869  0.50401  0.98427  Biso   1.000  C
  O12      1.0000 0.84531  0.26997  0.60787  Biso   1.000  O
  C16      1.0000 0.86011  0.90897  0.49948  Biso   1.000  C
  O13      1.0000 0.77617  0.73277  0.46767  Biso   1.000  O
  C17      1.0000 0.53000  0.47700  0.90577  Biso   1.000  C
  O14      1.0000 0.41679  0.40799  0.87077  Biso   1.000  O
  C18      1.0000 0.65058  0.56500  0.94878  Biso   1.000  C
  O15      1.0000 0.86108  0.89066  0.40900  Biso   1.000  O
  O16      1.0000 0.53879  0.38312  0.84038  Biso   1.000  O
  O17      1.0000 0.71099  0.60004  0.02600  Biso   1.000  O
  O18      1.0000 0.63469  0.69195  0.91002  Biso   1.000  O
  C19      1.0000 0.91820  0.82899  0.39809  Biso   1.000  C
  C20      1.0000 0.51913  0.42199  0.74474  Biso   1.000  C
  C21      1.0000 0.89540  0.70096  0.34878  Biso   1.000  C
  C22      1.0000 0.94699  0.92296  0.34198  Biso   1.000  C
  C23      1.0000 0.47951  0.30805  0.68388  Biso   1.000  C
  O19      1.0000 0.57691  0.45145  0.72150  Biso   1.000  O
  C24      1.0000 0.94731  0.64203  0.31747  Biso   1.000  C
  O20      1.0000 0.87749  0.61511  0.40830  Biso   1.000  O
  C25      1.0000 0.98241  0.04004  0.39484  Biso   1.000  C
  O21      1.0000 0.99550  0.85288  0.31301  Biso   1.000  O
  C26      1.0000 0.52420  0.19000  0.69691  Biso   1.000  C
  O22      1.0000 0.42081  0.28230  0.70541  Biso   1.000  O
  C27      1.0000 0.62350  0.34299  0.73241  Biso   1.000  C
  C28      1.0000 0.97191  0.74197  0.26072  Biso   1.000  C
  O23      1.0000 0.92370  0.52457  0.26370  Biso   1.000  O
  O24      1.0000 0.00459  0.12696  0.34269  Biso   1.000  O
  C29      1.0000 0.58829  0.22396  0.68033  Biso   1.000  C
  O25      1.0000 0.48940  0.08682  0.63442  Biso   1.000  O
  C30      1.0000 0.67641  0.40104  0.69790  Biso   1.000  C
  O26      1.0000 0.91339  0.76899  0.17762  Biso   1.000  O
  O27      1.0000 0.63329  0.11541  0.71222  Biso   1.000  O
  O28      1.0000 0.64700  0.43637  0.60240  Biso   1.000  O
  C31      1.0000 0.91630  0.74501  0.08573  Biso   1.000  C
  C32      1.0000 0.66208  0.05805  0.64987  Biso   1.000  C
  C33      1.0000 0.85547  0.66797  0.02997  Biso   1.000  C
  C34      1.0000 0.91939  0.87696  0.03670  Biso   1.000  C
  C35      1.0000 0.65131  0.91298  0.65207  Biso   1.000  C
  O29      1.0000 0.73091  0.08947  0.67800  Biso   1.000  O
  C36      1.0000 0.85509  0.64898  0.93050  Biso   1.000  C
  O30      1.0000 0.85299  0.54826  0.07219  Biso   1.000  O
  O31      1.0000 0.91951  0.84691  0.94679  Biso   1.000  O
  C37      1.0000 0.98062  0.95899  0.08913  Biso   1.000  C
  C38      1.0000 0.69320  0.85503  0.74721  Biso   1.000  C
  O32      1.0000 0.58071  0.88244  0.62259  Biso   1.000  O
  C39      1.0000 0.77232  0.04297  0.76953  Biso   1.000  C
  C40      1.0000 0.86211  0.77897  0.88700  Biso   1.000  C
  O33      1.0000 0.79838  0.58242  0.87028  Biso   1.000  O
  O34      1.0000 0.04282  0.88998  0.11421  Biso   1.000  O
  C41      1.0000 0.76482  0.89800  0.77640  Biso   1.000  C
  O35      1.0000 0.68621  0.71819  0.74743  Biso   1.000  O
  C42      1.0000 0.84277  0.09603  0.79057  Biso   1.000  C
  O36      1.0000 0.80208  0.84984  0.86907  Biso   1.000  O
  O37      1.0000 0.87259  0.04699  0.72908  Biso   1.000  O
  O38      1.0000 0.41438  0.65476  0.58797  Biso   1.000  O
  C43      1.0000 0.39749  0.77604  0.61687  Biso   1.000  C
  C44      1.0000 0.31839  0.78700  0.57961  Biso   1.000  C
  C45      1.0000 0.42861  0.79601  0.72492  Biso   1.000  C
  O39      1.0000 0.29319  0.68021  0.60943  Biso   1.000  O
  O40      1.0000 0.29910  0.90534  0.61553  Biso   1.000  O
  C46      1.0000 0.39970  0.91396  0.75432  Biso   1.000  C
  O41      1.0000 0.50032  0.79503  0.75552  Biso   1.000  O
  C47      1.0000 0.24420  0.59896  0.54000  Biso   1.000  C
  C48      1.0000 0.32178  0.90799  0.71670  Biso   1.000  C
  O42      1.0000 0.42692  0.91680  0.85549  Biso   1.000  O
  C49      1.0000 0.26411  0.45595  0.56749  Biso   1.000  C
  C50      1.0000 0.17280  0.63401  0.52930  Biso   1.000  C
  C51      1.0000 0.28331  0.01997  0.74447  Biso   1.000  C
  C52      1.0000 0.45321  0.03299  0.90211  Biso   1.000  C
  C53      1.0000 0.21058  0.36502  0.50267  Biso   1.000  C
  O43      1.0000 0.32970  0.43040  0.56643  Biso   1.000  O
  O44      1.0000 0.12558  0.53915  0.46958  Biso   1.000  O
  C54      1.0000 0.14992  0.75901  0.48382  Biso   1.000  C
  O45      1.0000 0.21402  0.97895  0.72102  Biso   1.000  O
  O46      1.0000 0.29920  0.14996  0.72392  Biso   1.000  O
  C55      1.0000 0.52489  0.00803  0.97671  Biso   1.000  C
  O47      1.0000 0.41151  0.08810  0.94518  Biso   1.000  O
  C56      1.0000 0.13991  0.40897  0.50047  Biso   1.000  C
  O48      1.0000 0.22381  0.23277  0.53228  Biso   1.000  O
  O49      1.0000 0.15471  0.76997  0.39207  Biso   1.000  O
  O50      1.0000 0.56652  0.94802  0.93122  Biso   1.000  O
  C57      1.0000 0.51912  0.91905  0.05563  Biso   1.000  C
  C58      1.0000 0.40129  0.00401  0.01568  Biso   1.000  C
  O51      1.0000 0.13892  0.39066  0.59101  Biso   1.000  O
  C59      1.0000 0.46998  0.97700  0.09417  Biso   1.000  C
  O52      1.0000 0.58319  0.90799  0.12917  Biso   1.000  O
  C60      1.0000 0.34940  0.06500  0.05117  Biso   1.000  C
  C61      1.0000 0.08180  0.32899  0.60192  Biso   1.000  C
  O53      1.0000 0.46119  0.88312  0.15957  Biso   1.000  O
  O54      1.0000 0.28901  0.10004  0.97402  Biso   1.000  O
  O55      1.0000 0.36531  0.19195  0.08999  Biso   1.000  O
  C62      1.0000 0.10460  0.20096  0.65123  Biso   1.000  C
  C63      1.0000 0.05301  0.42296  0.65804  Biso   1.000  C
  C64      1.0000 0.48091  0.92199  0.25528  Biso   1.000  C
  C65      1.0000 0.05272  0.14203  0.68248  Biso   1.000  C
  O56      1.0000 0.12251  0.11511  0.59172  Biso   1.000  O
  C66      1.0000 0.01759  0.54004  0.60518  Biso   1.000  C
  O57      1.0000 0.00450  0.35288  0.68701  Biso   1.000  O
  C67      1.0000 0.52051  0.80805  0.31607  Biso   1.000  C
  O58      1.0000 0.42308  0.95145  0.27852  Biso   1.000  O
  C68      1.0000 0.02809  0.24197  0.73930  Biso   1.000  C
  O59      1.0000 0.07629  0.02457  0.73632  Biso   1.000  O
  O60      1.0000 0.99541  0.62696  0.65733  Biso   1.000  O
  C69      1.0000 0.47580  0.69000  0.30310  Biso   1.000  C
  O61      1.0000 0.57919  0.78230  0.29460  Biso   1.000  O
  C70      1.0000 0.37650  0.84299  0.26761  Biso   1.000  C
  O62      1.0000 0.08660  0.26899  0.82240  Biso   1.000  O
  C71      1.0000 0.41171  0.72396  0.31968  Biso   1.000  C
  O63      1.0000 0.51060  0.58682  0.36559  Biso   1.000  O
  C72      1.0000 0.32359  0.90104  0.30211  Biso   1.000  C
  C73      1.0000 0.08370  0.24501  0.91429  Biso   1.000  C
  O64      1.0000 0.36671  0.61541  0.28780  Biso   1.000  O
  O65      1.0000 0.35299  0.93637  0.39762  Biso   1.000  O
  C74      1.0000 0.14451  0.16797  0.96998  Biso   1.000  C
  C75      1.0000 0.08060  0.37696  0.96332  Biso   1.000  C
  C76      1.0000 0.33790  0.55805  0.35008  Biso   1.000  C
  O66      1.0000 0.14701  0.04826  0.92782  Biso   1.000  O
  C77      1.0000 0.14490  0.14898  0.06952  Biso   1.000  C
  C78      1.0000 0.01938  0.45899  0.91089  Biso   1.000  C
  O67      1.0000 0.08053  0.34691  0.05322  Biso   1.000  O
  C79      1.0000 0.34871  0.41298  0.34788  Biso   1.000  C
  O68      1.0000 0.26909  0.58947  0.32202  Biso   1.000  O
  C80      1.0000 0.13789  0.27897  0.11302  Biso   1.000  C
  O69      1.0000 0.20160  0.08242  0.12967  Biso   1.000  O
  O70      1.0000 0.95722  0.38998  0.88581  Biso   1.000  O
  C81      1.0000 0.30679  0.35503  0.25280  Biso   1.000  C
  O71      1.0000 0.41929  0.38244  0.37742  Biso   1.000  O
  C82      1.0000 0.22768  0.54297  0.23049  Biso   1.000  C
  O72      1.0000 0.19790  0.34984  0.13087  Biso   1.000  O
  C83      1.0000 0.23522  0.39800  0.22361  Biso   1.000  C
  O73      1.0000 0.31378  0.21819  0.25259  Biso   1.000  O
  C84      1.0000 0.15721  0.59603  0.20937  Biso   1.000  C
  O74      1.0000 0.12738  0.54699  0.27087  Biso   1.000  O
  Ne1      1.0000 0.27340  0.61429  0.92086  Biso   1.000  Ne
  He1      1.0000 0.00000  0.00000  0.00000  Biso   1.000  He
  He2      1.0000 0.14419  0.80109  0.91620  Biso   1.000  He
  Ar1      1.0000 0.42550  0.32158  0.96119  Biso   1.000  Ar
  Ne2      1.0000 0.72660  0.11429  0.07914  Biso   1.000  Ne
  He3      1.0000 0.87620  0.33395  0.09075  Biso   1.000  He
  He4      1.0000 0.72907  0.10250  0.07407  Biso   1.000  He
  Ar2      1.0000 0.72907  0.10250  0.07407  Biso   1.000  Ar
