data_image0
_cell_length_a       11.718
_cell_length_b       25.445
_cell_length_c       26.363
_cell_angle_alpha    90
_cell_angle_beta     105.67
_cell_angle_gamma    90

_symmetry_space_group_name_H-M    "P 1"
_symmetry_int_tables_number       1

loop_
  _symmetry_equiv_pos_as_xyz
  'x, y, z'

loop_
  _atom_site_label
  _atom_site_occupancy
  _atom_site_fract_x
  _atom_site_fract_y
  _atom_site_fract_z
  _atom_site_thermal_displace_type
  _atom_site_B_iso_or_equiv
  _atom_site_type_symbol
  C1       1.0000 0.30981  0.42264  0.51321  Biso   1.000  C
  C2       1.0000 0.41234  0.40542  0.49726  Biso   1.000  C
  O1       1.0000 0.22749  0.45034  0.47295  Biso   1.000  O
  H1       1.0000 0.33563  0.44508  0.54390  Biso   1.000  H
  H2       1.0000 0.27105  0.39230  0.52330  Biso   1.000  H
  O2       1.0000 0.46926  0.44865  0.48308  Biso   1.000  O
  H3       1.0000 0.38791  0.38149  0.46759  Biso   1.000  H
  H4       1.0000 0.46631  0.38680  0.52598  Biso   1.000  H
  C3       1.0000 0.11452  0.43871  0.46976  Biso   1.000  C
  C4       1.0000 0.55991  0.43120  0.46275  Biso   1.000  C
  H5       1.0000 0.10231  0.40110  0.46539  Biso   1.000  H
  H6       1.0000 0.09579  0.44909  0.50199  Biso   1.000  H
  C5       1.0000 0.03100  0.46826  0.42178  Biso   1.000  C
  C6       1.0000 0.62913  0.47691  0.45195  Biso   1.000  C
  H7       1.0000 0.61166  0.40778  0.48780  Biso   1.000  H
  H8       1.0000 0.52703  0.41191  0.43040  Biso   1.000  H
  O3       1.0000 0.03609  0.52211  0.43422  Biso   1.000  O
  H9       1.0000 0.05710  0.46241  0.39030  Biso   1.000  H
  H10      1.0000 0.95040  0.45549  0.41539  Biso   1.000  H
  O4       1.0000 0.55754  0.50965  0.41433  Biso   1.000  O
  H11      1.0000 0.69504  0.46449  0.43950  Biso   1.000  H
  H12      1.0000 0.66116  0.49648  0.48430  Biso   1.000  H
  C7       1.0000 0.96856  0.55504  0.39766  Biso   1.000  C
  C8       1.0000 0.62480  0.54502  0.39357  Biso   1.000  C
  C9       1.0000 0.90915  0.53944  0.34736  Biso   1.000  C
  C10      1.0000 0.95647  0.60487  0.41189  Biso   1.000  C
  C11      1.0000 0.55035  0.57705  0.35208  Biso   1.000  C
  H13      1.0000 0.66968  0.56770  0.42150  Biso   1.000  H
  H14      1.0000 0.68082  0.52560  0.37958  Biso   1.000  H
  C12      1.0000 0.84399  0.57347  0.31245  Biso   1.000  C
  H15      1.0000 0.91434  0.50458  0.33751  Biso   1.000  H
  C13      1.0000 0.88452  0.64079  0.37761  Biso   1.000  C
  H16      1.0000 0.99699  0.61588  0.44557  Biso   1.000  H
  O5       1.0000 0.48693  0.54451  0.31091  Biso   1.000  O
  H17      1.0000 0.59904  0.60138  0.33881  Biso   1.000  H
  H18      1.0000 0.49531  0.59721  0.36599  Biso   1.000  H
  O6       1.0000 0.78319  0.55382  0.26352  Biso   1.000  O
  C14      1.0000 0.83105  0.62492  0.32782  Biso   1.000  C
  C15      1.0000 0.87256  0.69550  0.39782  Biso   1.000  C
  C16      1.0000 0.43316  0.56648  0.26273  Biso   1.000  C
  C17      1.0000 0.72835  0.58966  0.22440  Biso   1.000  C
  H19      1.0000 0.78547  0.64858  0.30378  Biso   1.000  H
  S1       1.0000 0.79379  0.74372  0.35260  Biso   1.000  S
  H20      1.0000 0.83413  0.69247  0.42599  Biso   1.000  H
  H21      1.0000 0.95174  0.70890  0.41338  Biso   1.000  H
  C18      1.0000 0.36187  0.53268  0.22700  Biso   1.000  C
  C19      1.0000 0.44302  0.61949  0.25017  Biso   1.000  C
  C20      1.0000 0.64251  0.55932  0.17807  Biso   1.000  C
  H22      1.0000 0.68439  0.61541  0.23870  Biso   1.000  H
  H23      1.0000 0.78761  0.60810  0.21168  Biso   1.000  H
  C21      1.0000 0.88895  0.75410  0.31300  Biso   1.000  C
  C22      1.0000 0.30781  0.55017  0.17736  Biso   1.000  C
  H24      1.0000 0.35062  0.49829  0.23657  Biso   1.000  H
  C23      1.0000 0.38877  0.63588  0.19852  Biso   1.000  C
  H25      1.0000 0.48454  0.64319  0.27538  Biso   1.000  H
  O7       1.0000 0.70981  0.52167  0.15723  Biso   1.000  O
  H26      1.0000 0.60326  0.58381  0.15069  Biso   1.000  H
  H27      1.0000 0.58228  0.54140  0.19060  Biso   1.000  H
  S2       1.0000 0.03567  0.77693  0.34661  Biso   1.000  S
  C24      1.0000 0.86725  0.75355  0.26198  Biso   1.000  C
  O8       1.0000 0.23261  0.52097  0.13773  Biso   1.000  O
  C25      1.0000 0.32060  0.60193  0.16275  Biso   1.000  C
  C26      1.0000 0.41028  0.68988  0.17929  Biso   1.000  C
  C27      1.0000 0.63481  0.49735  0.11133  Biso   1.000  C
  C28      1.0000 0.08366  0.77390  0.28893  Biso   1.000  C
  S3       1.0000 0.96844  0.77363  0.23090  Biso   1.000  S
  H28      1.0000 0.79377  0.74180  0.24189  Biso   1.000  H
  C29      1.0000 0.22849  0.46642  0.14387  Biso   1.000  C
  H29      1.0000 0.28289  0.61328  0.12890  Biso   1.000  H
  S4       1.0000 0.48987  0.73618  0.22783  Biso   1.000  S
  H30      1.0000 0.45355  0.68579  0.15290  Biso   1.000  H
  H31      1.0000 0.33394  0.70521  0.16180  Biso   1.000  H
  C30      1.0000 0.68867  0.45490  0.09364  Biso   1.000  C
  H32      1.0000 0.61255  0.52329  0.08340  Biso   1.000  H
  H33      1.0000 0.56288  0.48528  0.11921  Biso   1.000  H
  C31      1.0000 0.19732  0.77131  0.28976  Biso   1.000  C
  H34      1.0000 0.30775  0.45188  0.15101  Biso   1.000  H
  H35      1.0000 0.19710  0.45820  0.17338  Biso   1.000  H
  C32      1.0000 0.15447  0.44386  0.09664  Biso   1.000  C
  C33      1.0000 0.38772  0.74812  0.26588  Biso   1.000  C
  O9       1.0000 0.79061  0.46654  0.07954  Biso   1.000  O
  H36      1.0000 0.70728  0.42849  0.12118  Biso   1.000  H
  H37      1.0000 0.63221  0.43950  0.06351  Biso   1.000  H
  S5       1.0000 0.24529  0.76762  0.23248  Biso   1.000  S
  S6       1.0000 0.31426  0.77017  0.34850  Biso   1.000  S
  O10      1.0000 0.03870  0.45160  0.09585  Biso   1.000  O
  H38      1.0000 0.17058  0.40648  0.09561  Biso   1.000  H
  H39      1.0000 0.17057  0.46029  0.06611  Biso   1.000  H
  C34      1.0000 0.41725  0.74903  0.31702  Biso   1.000  C
  C35      1.0000 0.84632  0.42044  0.06701  Biso   1.000  C
  C36      1.0000 0.94944  0.43608  0.05007  Biso   1.000  C
  H40      1.0000 0.49237  0.73849  0.33629  Biso   1.000  H
  H41      1.0000 0.79146  0.40110  0.03908  Biso   1.000  H
  H42      1.0000 0.87017  0.39788  0.09770  Biso   1.000  H
  H43      1.0000 0.97732  0.40688  0.03290  Biso   1.000  H
  H44      1.0000 0.92968  0.46508  0.02541  Biso   1.000  H
  O11      1.0000 0.23247  0.47903  0.63775  Biso   1.000  O
  C37      1.0000 0.30765  0.44979  0.67734  Biso   1.000  C
  C38      1.0000 0.22842  0.53354  0.64385  Biso   1.000  C
  C39      1.0000 0.32044  0.39807  0.66272  Biso   1.000  C
  C40      1.0000 0.36179  0.46728  0.72698  Biso   1.000  C
  H45      1.0000 0.30768  0.54808  0.65098  Biso   1.000  H
  H46      1.0000 0.19696  0.54180  0.67340  Biso   1.000  H
  C41      1.0000 0.15440  0.55614  0.59662  Biso   1.000  C
  C42      1.0000 0.38869  0.36408  0.69849  Biso   1.000  C
  H47      1.0000 0.28281  0.38668  0.62888  Biso   1.000  H
  C43      1.0000 0.43309  0.43352  0.76271  Biso   1.000  C
  H48      1.0000 0.35057  0.50171  0.73659  Biso   1.000  H
  O12      1.0000 0.03865  0.54840  0.59587  Biso   1.000  O
  H49      1.0000 0.17050  0.59348  0.59559  Biso   1.000  H
  H50      1.0000 0.17049  0.53967  0.56608  Biso   1.000  H
  C44      1.0000 0.41020  0.31008  0.67927  Biso   1.000  C
  C45      1.0000 0.44297  0.38047  0.75018  Biso   1.000  C
  O13      1.0000 0.48686  0.45549  0.81089  Biso   1.000  O
  C46      1.0000 0.94939  0.56392  0.55009  Biso   1.000  C
  S7       1.0000 0.48971  0.26378  0.72780  Biso   1.000  S
  H51      1.0000 0.45347  0.31421  0.65287  Biso   1.000  H
  H52      1.0000 0.33386  0.29479  0.66178  Biso   1.000  H
  H53      1.0000 0.48449  0.35681  0.77540  Biso   1.000  H
  C47      1.0000 0.55028  0.42295  0.85206  Biso   1.000  C
  H54      1.0000 0.97724  0.59308  0.53287  Biso   1.000  H
  H55      1.0000 0.92960  0.53488  0.52539  Biso   1.000  H
  C48      1.0000 0.84618  0.57952  0.56703  Biso   1.000  C
  C49      1.0000 0.38766  0.25184  0.76590  Biso   1.000  C
  H56      1.0000 0.59896  0.39859  0.83878  Biso   1.000  H
  H57      1.0000 0.49523  0.40279  0.86597  Biso   1.000  H
  C50      1.0000 0.62473  0.45498  0.89354  Biso   1.000  C
  O14      1.0000 0.79053  0.53343  0.57952  Biso   1.000  O
  H58      1.0000 0.79140  0.59890  0.53910  Biso   1.000  H
  H59      1.0000 0.87010  0.60208  0.59768  Biso   1.000  H
  S8       1.0000 0.24522  0.23238  0.73245  Biso   1.000  S
  C51      1.0000 0.41718  0.25097  0.81700  Biso   1.000  C
  O15      1.0000 0.55746  0.49035  0.91431  Biso   1.000  O
  H60      1.0000 0.66952  0.43230  0.92148  Biso   1.000  H
  H61      1.0000 0.68074  0.47440  0.87956  Biso   1.000  H
  C52      1.0000 0.68859  0.54510  0.59362  Biso   1.000  C
  C53      1.0000 0.19725  0.22865  0.78974  Biso   1.000  C
  S9       1.0000 0.31418  0.22979  0.84848  Biso   1.000  S
  H62      1.0000 0.49229  0.26151  0.83626  Biso   1.000  H
  C54      1.0000 0.62908  0.52309  0.95197  Biso   1.000  C
  H63      1.0000 0.70723  0.57151  0.62120  Biso   1.000  H
  H64      1.0000 0.63213  0.56050  0.56348  Biso   1.000  H
  C55      1.0000 0.63474  0.50265  0.61131  Biso   1.000  C
  C56      1.0000 0.08361  0.22610  0.78895  Biso   1.000  C
  H65      1.0000 0.69497  0.53551  0.93948  Biso   1.000  H
  H66      1.0000 0.66100  0.50348  0.98427  Biso   1.000  H
  C57      1.0000 0.55983  0.56876  0.96272  Biso   1.000  C
  O16      1.0000 0.70974  0.47833  0.65721  Biso   1.000  O
  H67      1.0000 0.61247  0.47668  0.58338  Biso   1.000  H
  H68      1.0000 0.56281  0.51468  0.61919  Biso   1.000  H
  S10      1.0000 0.03562  0.22307  0.84662  Biso   1.000  S
  S11      1.0000 0.96836  0.22637  0.73088  Biso   1.000  S
  O17      1.0000 0.46918  0.55135  0.98305  Biso   1.000  O
  H69      1.0000 0.61158  0.59218  0.98778  Biso   1.000  H
  H70      1.0000 0.52695  0.58809  0.93038  Biso   1.000  H
  C58      1.0000 0.64235  0.44068  0.67805  Biso   1.000  C
  C59      1.0000 0.88890  0.24590  0.81302  Biso   1.000  C
  C60      1.0000 0.86718  0.24645  0.76196  Biso   1.000  C
  C61      1.0000 0.41226  0.59458  0.99724  Biso   1.000  C
  C62      1.0000 0.72828  0.41034  0.72438  Biso   1.000  C
  H71      1.0000 0.60318  0.41619  0.65067  Biso   1.000  H
  H72      1.0000 0.58220  0.45860  0.69058  Biso   1.000  H
  S12      1.0000 0.79372  0.25628  0.85257  Biso   1.000  S
  H73      1.0000 0.79370  0.25820  0.74187  Biso   1.000  H
  H74      1.0000 0.38783  0.61847  0.96757  Biso   1.000  H
  H75      1.0000 0.46635  0.61320  0.02599  Biso   1.000  H
  C63      1.0000 0.30984  0.57732  0.01323  Biso   1.000  C
  O18      1.0000 0.78311  0.44614  0.76350  Biso   1.000  O
  H76      1.0000 0.68431  0.38459  0.73868  Biso   1.000  H
  H77      1.0000 0.78756  0.39190  0.71169  Biso   1.000  H
  C64      1.0000 0.87249  0.30450  0.89780  Biso   1.000  C
  O19      1.0000 0.22743  0.54962  0.97297  Biso   1.000  O
  H78      1.0000 0.33566  0.55488  0.04392  Biso   1.000  H
  H79      1.0000 0.27108  0.60770  0.02332  Biso   1.000  H
  C65      1.0000 0.84391  0.42649  0.81243  Biso   1.000  C
  C66      1.0000 0.88444  0.35921  0.87759  Biso   1.000  C
  H80      1.0000 0.83405  0.30749  0.92597  Biso   1.000  H
  H81      1.0000 0.95167  0.29110  0.91336  Biso   1.000  H
  C67      1.0000 0.11447  0.56129  0.96978  Biso   1.000  C
  C68      1.0000 0.83097  0.37508  0.82779  Biso   1.000  C
  C69      1.0000 0.90907  0.46056  0.84733  Biso   1.000  C
  C70      1.0000 0.95639  0.39509  0.91186  Biso   1.000  C
  C71      1.0000 0.03093  0.53170  0.92175  Biso   1.000  C
  H82      1.0000 0.10223  0.59890  0.96536  Biso   1.000  H
  H83      1.0000 0.09582  0.55087  0.00200  Biso   1.000  H
  H84      1.0000 0.78539  0.35139  0.80376  Biso   1.000  H
  C72      1.0000 0.96848  0.44492  0.89764  Biso   1.000  C
  H85      1.0000 0.91426  0.49538  0.83748  Biso   1.000  H
  H86      1.0000 0.99694  0.38408  0.94559  Biso   1.000  H
  O20      1.0000 0.03602  0.47785  0.93420  Biso   1.000  O
  H87      1.0000 0.05703  0.53759  0.89027  Biso   1.000  H
  H88      1.0000 0.95033  0.54451  0.91537  Biso   1.000  H
  S13      1.0000 0.33185  0.24795  0.41677  Biso   1.000  S
  C73      1.0000 0.42575  0.24822  0.37706  Biso   1.000  C
  C74      1.0000 0.41954  0.22122  0.47528  Biso   1.000  C
  C75      1.0000 0.40253  0.23132  0.32707  Biso   1.000  C
  S14      1.0000 0.56444  0.28336  0.40027  Biso   1.000  S
  C76      1.0000 0.45299  0.16420  0.47555  Biso   1.000  C
  H89      1.0000 0.37829  0.22629  0.50218  Biso   1.000  H
  H90      1.0000 0.49217  0.24150  0.48568  Biso   1.000  H
  S15      1.0000 0.50527  0.24406  0.29137  Biso   1.000  S
  H91      1.0000 0.33295  0.21309  0.31170  Biso   1.000  H
  C77      1.0000 0.61497  0.26646  0.34424  Biso   1.000  C
  C78      1.0000 0.41261  0.13044  0.43521  Biso   1.000  C
  C79      1.0000 0.52665  0.14235  0.52373  Biso   1.000  C
  C80      1.0000 0.72856  0.27047  0.34621  Biso   1.000  C
  H92      1.0000 0.36462  0.14329  0.40357  Biso   1.000  H
  C81      1.0000 0.44002  0.07699  0.43903  Biso   1.000  C
  H93      1.0000 0.55203  0.16400  0.55300  Biso   1.000  H
  C82      1.0000 0.56059  0.09051  0.52791  Biso   1.000  C
  S16      1.0000 0.84247  0.29051  0.40082  Biso   1.000  S
  S17      1.0000 0.78189  0.25254  0.29157  Biso   1.000  S
  O21      1.0000 0.40064  0.03997  0.40034  Biso   1.000  O
  C83      1.0000 0.51145  0.05557  0.48256  Biso   1.000  C
  O22      1.0000 0.63309  0.07314  0.57475  Biso   1.000  O
  C84      1.0000 0.95569  0.26394  0.37718  Biso   1.000  C
  C85      1.0000 0.92605  0.24610  0.32785  Biso   1.000  C
  C86      1.0000 0.31986  0.05848  0.35153  Biso   1.000  C
  H94      1.0000 0.52945  0.01989  0.48410  Biso   1.000  H
  C87      1.0000 0.64718  0.02079  0.58109  Biso   1.000  C
  H95      1.0000 0.03330  0.26229  0.39818  Biso   1.000  H
  S18      1.0000 0.03406  0.22496  0.29634  Biso   1.000  S
  H96      1.0000 0.26337  0.08320  0.35898  Biso   1.000  H
  H97      1.0000 0.36351  0.07601  0.32998  Biso   1.000  H
  C88      1.0000 0.25639  0.01116  0.32321  Biso   1.000  C
  H98      1.0000 0.57445  0.00350  0.58259  Biso   1.000  H
  H99      1.0000 0.67610  0.00499  0.55340  Biso   1.000  H
  C89      1.0000 0.74809  0.01941  0.63845  Biso   1.000  C
  C90      1.0000 0.97587  0.16243  0.27109  Biso   1.000  C
  H100     1.0000 0.19623  0.02209  0.29189  Biso   1.000  H
  O23      1.0000 0.33838  0.97870  0.30926  Biso   1.000  O
  H101     1.0000 0.21761  0.99230  0.34590  Biso   1.000  H
  O24      1.0000 0.84953  0.03867  0.63546  Biso   1.000  O
  H102     1.0000 0.71975  0.03950  0.66386  Biso   1.000  H
  H103     1.0000 0.75947  0.98342  0.65086  Biso   1.000  H
  C91      1.0000 0.97602  0.11786  0.31036  Biso   1.000  C
  H104     1.0000 0.89469  0.16770  0.25040  Biso   1.000  H
  H105     1.0000 0.02026  0.15048  0.24709  Biso   1.000  H
  C92      1.0000 0.29264  0.92690  0.28960  Biso   1.000  C
  C93      1.0000 0.93868  0.02558  0.68344  Biso   1.000  C
  C94      1.0000 0.92064  0.07200  0.29015  Biso   1.000  C
  C95      1.0000 0.03650  0.12022  0.36229  Biso   1.000  C
  H106     1.0000 0.26428  0.90812  0.31568  Biso   1.000  H
  H107     1.0000 0.22831  0.93020  0.25761  Biso   1.000  H
  C96      1.0000 0.39434  0.89963  0.27889  Biso   1.000  C
  H108     1.0000 0.96418  0.05691  0.70448  Biso   1.000  H
  H109     1.0000 0.90758  0.00071  0.70417  Biso   1.000  H
  C97      1.0000 0.03801  0.00252  0.66713  Biso   1.000  C
  H110     1.0000 0.87839  0.07031  0.25489  Biso   1.000  H
  C98      1.0000 0.92723  0.02763  0.32234  Biso   1.000  C
  H111     1.0000 0.07606  0.15091  0.37600  Biso   1.000  H
  C99      1.0000 0.03950  0.07829  0.39420  Biso   1.000  C
  O25      1.0000 0.44295  0.91684  0.24627  Biso   1.000  O
  H112     1.0000 0.36890  0.86410  0.26821  Biso   1.000  H
  H113     1.0000 0.45484  0.89691  0.31218  Biso   1.000  H
  H114     1.0000 0.01005  0.97449  0.64176  Biso   1.000  H
  H115     1.0000 0.09626  0.98809  0.69727  Biso   1.000  H
  O26      1.0000 0.08803  0.04347  0.64413  Biso   1.000  O
  C100     1.0000 0.98599  0.03246  0.37438  Biso   1.000  C
  O27      1.0000 0.87106  0.98507  0.29760  Biso   1.000  O
  O28      1.0000 0.10123  0.07616  0.44620  Biso   1.000  O
  C101     1.0000 0.49869  0.88870  0.21806  Biso   1.000  C
  C102     1.0000 0.19186  0.02877  0.63018  Biso   1.000  C
  H116     1.0000 0.98930  0.00389  0.39668  Biso   1.000  H
  C103     1.0000 0.86725  0.93916  0.33065  Biso   1.000  C
  C104     1.0000 0.14083  0.12254  0.47472  Biso   1.000  C
  C105     1.0000 0.61945  0.86771  0.24812  Biso   1.000  C
  H117     1.0000 0.44877  0.85919  0.20289  Biso   1.000  H
  H118     1.0000 0.50854  0.91020  0.18918  Biso   1.000  H
  C106     1.0000 0.23787  0.07058  0.60548  Biso   1.000  C
  H119     1.0000 0.17442  0.99902  0.60639  Biso   1.000  H
  H120     1.0000 0.25165  0.01788  0.66158  Biso   1.000  H
  C107     1.0000 0.81024  0.89625  0.29665  Biso   1.000  C
  H121     1.0000 0.94702  0.92910  0.35000  Biso   1.000  H
  H122     1.0000 0.82303  0.94742  0.35591  Biso   1.000  H
  C108     1.0000 0.22343  0.11224  0.52554  Biso   1.000  C
  H123     1.0000 0.17893  0.14478  0.45428  Biso   1.000  H
  H124     1.0000 0.07305  0.14148  0.47988  Biso   1.000  H
  O29      1.0000 0.68846  0.91083  0.27278  Biso   1.000  O
  H125     1.0000 0.65749  0.85050  0.22420  Biso   1.000  H
  H126     1.0000 0.61103  0.84241  0.27428  Biso   1.000  H
  O30      1.0000 0.16201  0.08123  0.55647  Biso   1.000  O
  H127     1.0000 0.24717  0.10179  0.62738  Biso   1.000  H
  H128     1.0000 0.31519  0.06092  0.60170  Biso   1.000  H
  H129     1.0000 0.81353  0.86430  0.31710  Biso   1.000  H
  H130     1.0000 0.85062  0.88992  0.26959  Biso   1.000  H
  H131     1.0000 0.25092  0.14510  0.54339  Biso   1.000  H
  H132     1.0000 0.29149  0.09310  0.52098  Biso   1.000  H
  S19      1.0000 0.50519  0.75594  0.79135  Biso   1.000  S
  C109     1.0000 0.61483  0.73350  0.84426  Biso   1.000  C
  C110     1.0000 0.40248  0.76868  0.82708  Biso   1.000  C
  C111     1.0000 0.72848  0.72949  0.84619  Biso   1.000  C
  S20      1.0000 0.56436  0.71664  0.90024  Biso   1.000  S
  C112     1.0000 0.42567  0.75174  0.87704  Biso   1.000  C
  H133     1.0000 0.33287  0.78687  0.81168  Biso   1.000  H
  S21      1.0000 0.78181  0.74742  0.79155  Biso   1.000  S
  S22      1.0000 0.84239  0.70945  0.90079  Biso   1.000  S
  S23      1.0000 0.33178  0.75201  0.91675  Biso   1.000  S
  C113     1.0000 0.92598  0.75390  0.82783  Biso   1.000  C
  C114     1.0000 0.95552  0.73606  0.87716  Biso   1.000  C
  C115     1.0000 0.41947  0.77874  0.97525  Biso   1.000  C
  S24      1.0000 0.03398  0.77500  0.79631  Biso   1.000  S
  H134     1.0000 0.03325  0.73767  0.89819  Biso   1.000  H
  C116     1.0000 0.45292  0.83580  0.97553  Biso   1.000  C
  H135     1.0000 0.49212  0.75850  0.98569  Biso   1.000  H
  H136     1.0000 0.37832  0.77367  0.00220  Biso   1.000  H
  C117     1.0000 0.97580  0.83753  0.77106  Biso   1.000  C
  C118     1.0000 0.41253  0.86956  0.93519  Biso   1.000  C
  C119     1.0000 0.52660  0.85765  0.02375  Biso   1.000  C
  C120     1.0000 0.97596  0.88210  0.81038  Biso   1.000  C
  H137     1.0000 0.89462  0.83230  0.75038  Biso   1.000  H
  H138     1.0000 0.02019  0.84948  0.74707  Biso   1.000  H
  H139     1.0000 0.36457  0.85667  0.90359  Biso   1.000  H
  C121     1.0000 0.43994  0.92301  0.93901  Biso   1.000  C
  H140     1.0000 0.55206  0.83600  0.05302  Biso   1.000  H
  C122     1.0000 0.56062  0.90945  0.02793  Biso   1.000  C
  C123     1.0000 0.92059  0.92800  0.79017  Biso   1.000  C
  C124     1.0000 0.03645  0.87978  0.86230  Biso   1.000  C
  O31      1.0000 0.40059  0.96003  0.90036  Biso   1.000  O
  C125     1.0000 0.51137  0.94439  0.98254  Biso   1.000  C
  O32      1.0000 0.63312  0.92686  0.07477  Biso   1.000  O
  H141     1.0000 0.87823  0.92969  0.75487  Biso   1.000  H
  C126     1.0000 0.92715  0.97237  0.82232  Biso   1.000  C
  H142     1.0000 0.07599  0.84909  0.87597  Biso   1.000  H
  C127     1.0000 0.03943  0.92171  0.89418  Biso   1.000  C
  C128     1.0000 0.31978  0.94148  0.85151  Biso   1.000  C
  H143     1.0000 0.52937  0.98007  0.98408  Biso   1.000  H
  C129     1.0000 0.64722  0.97917  0.08111  Biso   1.000  C
  C130     1.0000 0.98583  0.96754  0.87436  Biso   1.000  C
  O33      1.0000 0.87098  0.01493  0.79758  Biso   1.000  O
  O34      1.0000 0.10115  0.92384  0.94618  Biso   1.000  O
  H144     1.0000 0.26323  0.91680  0.85899  Biso   1.000  H
  H145     1.0000 0.36344  0.92399  0.82996  Biso   1.000  H
  C131     1.0000 0.25623  0.98884  0.82318  Biso   1.000  C
  H146     1.0000 0.57439  0.99650  0.08261  Biso   1.000  H
  H147     1.0000 0.67613  0.99497  0.05341  Biso   1.000  H
  C132     1.0000 0.74813  0.98059  0.13847  Biso   1.000  C
  H148     1.0000 0.98922  0.99607  0.89666  Biso   1.000  H
  C133     1.0000 0.86717  0.06080  0.83063  Biso   1.000  C
  C134     1.0000 0.14076  0.87742  0.97470  Biso   1.000  C
  H149     1.0000 0.19615  0.97787  0.79186  Biso   1.000  H
  O35      1.0000 0.33830  0.02130  0.80924  Biso   1.000  O
  H150     1.0000 0.21754  0.00770  0.84588  Biso   1.000  H
  O36      1.0000 0.84948  0.96133  0.13548  Biso   1.000  O
  H151     1.0000 0.71981  0.96050  0.16392  Biso   1.000  H
  H152     1.0000 0.75953  0.01658  0.15092  Biso   1.000  H
  C135     1.0000 0.81016  0.10371  0.79663  Biso   1.000  C
  H153     1.0000 0.94694  0.07090  0.84997  Biso   1.000  H
  H154     1.0000 0.82295  0.05258  0.85588  Biso   1.000  H
  H155     1.0000 0.17888  0.85518  0.95429  Biso   1.000  H
  H156     1.0000 0.07289  0.85848  0.97986  Biso   1.000  H
  C136     1.0000 0.22346  0.88776  0.02556  Biso   1.000  C
  C137     1.0000 0.29256  0.07310  0.78958  Biso   1.000  C
  C138     1.0000 0.93872  0.97438  0.18346  Biso   1.000  C
  O37      1.0000 0.68838  0.08917  0.77276  Biso   1.000  O
  H157     1.0000 0.81345  0.13567  0.81708  Biso   1.000  H
  H158     1.0000 0.85055  0.11008  0.76956  Biso   1.000  H
  O38      1.0000 0.16204  0.91873  0.05649  Biso   1.000  O
  H159     1.0000 0.25095  0.85490  0.04341  Biso   1.000  H
  H160     1.0000 0.29154  0.90690  0.02103  Biso   1.000  H
  C139     1.0000 0.39426  0.10033  0.77886  Biso   1.000  C
  H161     1.0000 0.26412  0.09188  0.81566  Biso   1.000  H
  H162     1.0000 0.22815  0.06980  0.75759  Biso   1.000  H
  C140     1.0000 0.03804  0.99748  0.16715  Biso   1.000  C
  H163     1.0000 0.96422  0.94309  0.20450  Biso   1.000  H
  H164     1.0000 0.90764  0.99929  0.20422  Biso   1.000  H
  C141     1.0000 0.61938  0.13225  0.74809  Biso   1.000  C
  C142     1.0000 0.23793  0.92938  0.10554  Biso   1.000  C
  O39      1.0000 0.44288  0.08312  0.74624  Biso   1.000  O
  H165     1.0000 0.36874  0.13590  0.76819  Biso   1.000  H
  H166     1.0000 0.45479  0.10309  0.81219  Biso   1.000  H
  O40      1.0000 0.08798  0.95649  0.14414  Biso   1.000  O
  H167     1.0000 0.01010  0.02547  0.14182  Biso   1.000  H
  H168     1.0000 0.09629  0.01187  0.19729  Biso   1.000  H
  C143     1.0000 0.49862  0.11130  0.71803  Biso   1.000  C
  H169     1.0000 0.65741  0.14950  0.72418  Biso   1.000  H
  H170     1.0000 0.61097  0.15759  0.77429  Biso   1.000  H
  C144     1.0000 0.19190  0.97119  0.13020  Biso   1.000  C
  H171     1.0000 0.24720  0.89817  0.12740  Biso   1.000  H
  H172     1.0000 0.31523  0.93908  0.10171  Biso   1.000  H
  H173     1.0000 0.44869  0.14077  0.70287  Biso   1.000  H
  H174     1.0000 0.50849  0.08980  0.68920  Biso   1.000  H
  H175     1.0000 0.25168  0.98208  0.16160  Biso   1.000  H
  H176     1.0000 0.17445  0.00098  0.10640  Biso   1.000  H
