data_image0
_cell_length_a       18.066
_cell_length_b       16.992
_cell_length_c       25.485
_cell_angle_alpha    90
_cell_angle_beta     101.95
_cell_angle_gamma    90

_symmetry_space_group_name_H-M    "P 1"
_symmetry_int_tables_number       1

loop_
  _symmetry_equiv_pos_as_xyz
  'x, y, z'

loop_
  _atom_site_label
  _atom_site_occupancy
  _atom_site_fract_x
  _atom_site_fract_y
  _atom_site_fract_z
  _atom_site_thermal_displace_type
  _atom_site_B_iso_or_equiv
  _atom_site_type_symbol
  C1       1.0000 0.31330  0.14319  0.41010  Biso   1.000  C
  N1       1.0000 0.27970  0.19121  0.36350  Biso   1.000  N
  H1       1.0000 0.35807  0.16973  0.42960  Biso   1.000  H
  H2       1.0000 0.27760  0.13948  0.43361  Biso   1.000  H
  N2       1.0000 0.33380  0.06480  0.39691  Biso   1.000  N
  C2       1.0000 0.32061  0.23629  0.33109  Biso   1.000  C
  C3       1.0000 0.20392  0.20539  0.34890  Biso   1.000  C
  C4       1.0000 0.40368  0.04502  0.38259  Biso   1.000  C
  C5       1.0000 0.29709  0.00000  0.40898  Biso   1.000  C
  C6       1.0000 0.25700  0.28443  0.29259  Biso   1.000  C
  N3       1.0000 0.35458  0.19221  0.29540  Biso   1.000  N
  C7       1.0000 0.37752  0.29938  0.36370  Biso   1.000  C
  N4       1.0000 0.19019  0.25541  0.30510  Biso   1.000  N
  O1       1.0000 0.15777  0.18079  0.37320  Biso   1.000  O
  N5       1.0000 0.40899  0.06562  0.32820  Biso   1.000  N
  H3       1.0000 0.44679  0.06591  0.40870  Biso   1.000  H
  C8       1.0000 0.40368  0.95498  0.38259  Biso   1.000  C
  N6       1.0000 0.33380  0.93520  0.39691  Biso   1.000  N
  O2       1.0000 0.24080  0.00000  0.42871  Biso   1.000  O
  N7       1.0000 0.26928  0.26059  0.24101  Biso   1.000  N
  C9       1.0000 0.27288  0.37612  0.30831  Biso   1.000  C
  C10      1.0000 0.32778  0.21069  0.24289  Biso   1.000  C
  C11      1.0000 0.42182  0.14660  0.31072  Biso   1.000  C
  C12      1.0000 0.35262  0.38618  0.33362  Biso   1.000  C
  H4       1.0000 0.42939  0.28649  0.36242  Biso   1.000  H
  H5       1.0000 0.37283  0.30108  0.40092  Biso   1.000  H
  C13      1.0000 0.11460  0.28908  0.28621  Biso   1.000  C
  C14      1.0000 0.41771  0.00000  0.29760  Biso   1.000  C
  N8       1.0000 0.40899  0.93438  0.32820  Biso   1.000  N
  H6       1.0000 0.44679  0.93409  0.40870  Biso   1.000  H
  C15      1.0000 0.31330  0.85681  0.41010  Biso   1.000  C
  C16      1.0000 0.22759  0.29208  0.18999  Biso   1.000  C
  H7       1.0000 0.26049  0.40843  0.27630  Biso   1.000  H
  H8       1.0000 0.24129  0.39260  0.33282  Biso   1.000  H
  O3       1.0000 0.35049  0.18638  0.20351  Biso   1.000  O
  H9       1.0000 0.45570  0.17338  0.33971  Biso   1.000  H
  H10      1.0000 0.44679  0.14377  0.28060  Biso   1.000  H
  H11      1.0000 0.35911  0.42861  0.35961  Biso   1.000  H
  H12      1.0000 0.38259  0.39748  0.30699  Biso   1.000  H
  N9       1.0000 0.07330  0.25771  0.23788  Biso   1.000  N
  H13      1.0000 0.08559  0.28160  0.31388  Biso   1.000  H
  H14      1.0000 0.11989  0.34540  0.28160  Biso   1.000  H
  O4       1.0000 0.43228  0.00000  0.25481  Biso   1.000  O
  C17      1.0000 0.42182  0.85340  0.31072  Biso   1.000  C
  H15      1.0000 0.35807  0.83027  0.42960  Biso   1.000  H
  H16      1.0000 0.27760  0.86052  0.43361  Biso   1.000  H
  N10      1.0000 0.27970  0.80879  0.36350  Biso   1.000  N
  H17      1.0000 0.25759  0.28472  0.16292  Biso   1.000  H
  H18      1.0000 0.22047  0.34822  0.19388  Biso   1.000  H
  N11      1.0000 0.15218  0.25412  0.17138  Biso   1.000  N
  C18      1.0000 0.08281  0.28031  0.18590  Biso   1.000  C
  C19      1.0000 0.01689  0.20727  0.23559  Biso   1.000  C
  H19      1.0000 0.45570  0.82662  0.33971  Biso   1.000  H
  H20      1.0000 0.44679  0.85623  0.28060  Biso   1.000  H
  N12      1.0000 0.35458  0.80779  0.29540  Biso   1.000  N
  C20      1.0000 0.32061  0.76371  0.33109  Biso   1.000  C
  C21      1.0000 0.20392  0.79461  0.34890  Biso   1.000  C
  C22      1.0000 0.14071  0.20321  0.12718  Biso   1.000  C
  C23      1.0000 0.02240  0.23352  0.14511  Biso   1.000  C
  H21      1.0000 0.07589  0.33722  0.18061  Biso   1.000  H
  N13      1.0000 0.98532  0.18921  0.18321  Biso   1.000  N
  O5       1.0000 0.98992  0.18179  0.27229  Biso   1.000  O
  C24      1.0000 0.32778  0.78931  0.24289  Biso   1.000  C
  C25      1.0000 0.25700  0.71557  0.29259  Biso   1.000  C
  C26      1.0000 0.37752  0.70062  0.36370  Biso   1.000  C
  N14      1.0000 0.19019  0.74459  0.30510  Biso   1.000  N
  O6       1.0000 0.15777  0.81921  0.37320  Biso   1.000  O
  N15      1.0000 0.06582  0.18721  0.11619  Biso   1.000  N
  O7       1.0000 0.18771  0.18303  0.10312  Biso   1.000  O
  H22      1.0000 0.98698  0.26830  0.12161  Biso   1.000  H
  C27      1.0000 0.91672  0.14342  0.16440  Biso   1.000  C
  N16      1.0000 0.26928  0.73941  0.24101  Biso   1.000  N
  O8       1.0000 0.35049  0.81362  0.20351  Biso   1.000  O
  C28      1.0000 0.27288  0.62388  0.30831  Biso   1.000  C
  C29      1.0000 0.35262  0.61382  0.33362  Biso   1.000  C
  H23      1.0000 0.42939  0.71351  0.36242  Biso   1.000  H
  H24      1.0000 0.37283  0.69892  0.40092  Biso   1.000  H
  C30      1.0000 0.11460  0.71092  0.28621  Biso   1.000  C
  C31      1.0000 0.03132  0.14477  0.06951  Biso   1.000  C
  H25      1.0000 0.88921  0.14001  0.19320  Biso   1.000  H
  H26      1.0000 0.88502  0.17132  0.13488  Biso   1.000  H
  N17      1.0000 0.92933  0.06438  0.14671  Biso   1.000  N
  C32      1.0000 0.22759  0.70792  0.18999  Biso   1.000  C
  H27      1.0000 0.26049  0.59157  0.27630  Biso   1.000  H
  H28      1.0000 0.24129  0.60740  0.33282  Biso   1.000  H
  H29      1.0000 0.35911  0.57139  0.35961  Biso   1.000  H
  H30      1.0000 0.38259  0.60252  0.30699  Biso   1.000  H
  N18      1.0000 0.07330  0.74229  0.23788  Biso   1.000  N
  H31      1.0000 0.08559  0.71840  0.31388  Biso   1.000  H
  H32      1.0000 0.11989  0.65460  0.28160  Biso   1.000  H
  H33      1.0000 0.06648  0.14277  0.04548  Biso   1.000  H
  N19      1.0000 0.00800  0.06432  0.07873  Biso   1.000  N
  H34      1.0000 0.98709  0.17391  0.05130  Biso   1.000  H
  C33      1.0000 0.93368  0.04649  0.09301  Biso   1.000  C
  C34      1.0000 0.92010  0.00000  0.17672  Biso   1.000  C
  N20      1.0000 0.15218  0.74588  0.17138  Biso   1.000  N
  H35      1.0000 0.25759  0.71528  0.16292  Biso   1.000  H
  H36      1.0000 0.22047  0.65178  0.19388  Biso   1.000  H
  C35      1.0000 0.08281  0.71969  0.18590  Biso   1.000  C
  C36      1.0000 0.01689  0.79273  0.23559  Biso   1.000  C
  C37      1.0000 0.04453  0.00000  0.06622  Biso   1.000  C
  C38      1.0000 0.93368  0.95351  0.09301  Biso   1.000  C
  H37      1.0000 0.89109  0.06839  0.06698  Biso   1.000  H
  N21      1.0000 0.92933  0.93562  0.14671  Biso   1.000  N
  O9       1.0000 0.90500  0.00000  0.22071  Biso   1.000  O
  C39      1.0000 0.14071  0.79679  0.12718  Biso   1.000  C
  C40      1.0000 0.02240  0.76648  0.14511  Biso   1.000  C
  H38      1.0000 0.07589  0.66278  0.18061  Biso   1.000  H
  N22      1.0000 0.98532  0.81079  0.18321  Biso   1.000  N
  O10      1.0000 0.98992  0.81821  0.27229  Biso   1.000  O
  O11      1.0000 0.09959  0.00000  0.04588  Biso   1.000  O
  N23      1.0000 0.00800  0.93568  0.07873  Biso   1.000  N
  H39      1.0000 0.89109  0.93161  0.06698  Biso   1.000  H
  C41      1.0000 0.91672  0.85658  0.16440  Biso   1.000  C
  N24      1.0000 0.06582  0.81279  0.11619  Biso   1.000  N
  O12      1.0000 0.18771  0.81697  0.10312  Biso   1.000  O
  H40      1.0000 0.98698  0.73170  0.12161  Biso   1.000  H
  C42      1.0000 0.03132  0.85523  0.06951  Biso   1.000  C
  H41      1.0000 0.88921  0.85999  0.19320  Biso   1.000  H
  H42      1.0000 0.88502  0.82868  0.13488  Biso   1.000  H
  H43      1.0000 0.98709  0.82609  0.05130  Biso   1.000  H
  H44      1.0000 0.06648  0.85723  0.04548  Biso   1.000  H
  O13      1.0000 0.34222  0.31921  0.62681  Biso   1.000  O
  C43      1.0000 0.29613  0.29461  0.65111  Biso   1.000  C
  N25      1.0000 0.22029  0.30879  0.63651  Biso   1.000  N
  N26      1.0000 0.30981  0.24459  0.69491  Biso   1.000  N
  C44      1.0000 0.18670  0.35681  0.58991  Biso   1.000  C
  C45      1.0000 0.17938  0.26371  0.66888  Biso   1.000  C
  C46      1.0000 0.24299  0.21557  0.70738  Biso   1.000  C
  C47      1.0000 0.38540  0.21092  0.71380  Biso   1.000  C
  H45      1.0000 0.14192  0.33027  0.57042  Biso   1.000  H
  H46      1.0000 0.22240  0.36052  0.56640  Biso   1.000  H
  N27      1.0000 0.16620  0.43520  0.60310  Biso   1.000  N
  C48      1.0000 0.12248  0.20062  0.63631  Biso   1.000  C
  N28      1.0000 0.14542  0.30779  0.70462  Biso   1.000  N
  C49      1.0000 0.22711  0.12388  0.69170  Biso   1.000  C
  N29      1.0000 0.23072  0.23941  0.75900  Biso   1.000  N
  H47      1.0000 0.41439  0.21840  0.68609  Biso   1.000  H
  H48      1.0000 0.38011  0.15460  0.71841  Biso   1.000  H
  N30      1.0000 0.42668  0.24229  0.76209  Biso   1.000  N
  C50      1.0000 0.20290  0.50000  0.59099  Biso   1.000  C
  C51      1.0000 0.09630  0.45498  0.61738  Biso   1.000  C
  C52      1.0000 0.14737  0.11382  0.66639  Biso   1.000  C
  H49      1.0000 0.07060  0.21351  0.63760  Biso   1.000  H
  H50      1.0000 0.12722  0.19892  0.59909  Biso   1.000  H
  C53      1.0000 0.17221  0.28931  0.75712  Biso   1.000  C
  C54      1.0000 0.07818  0.35340  0.68930  Biso   1.000  C
  H51      1.0000 0.23951  0.09157  0.72371  Biso   1.000  H
  H52      1.0000 0.25870  0.10740  0.66720  Biso   1.000  H
  C55      1.0000 0.27240  0.20792  0.80998  Biso   1.000  C
  C56      1.0000 0.41719  0.21969  0.81411  Biso   1.000  C
  C57      1.0000 0.48310  0.29273  0.76442  Biso   1.000  C
  N31      1.0000 0.16620  0.56480  0.60310  Biso   1.000  N
  O14      1.0000 0.25920  0.50000  0.57130  Biso   1.000  O
  C58      1.0000 0.09630  0.54502  0.61738  Biso   1.000  C
  H53      1.0000 0.05321  0.43409  0.59131  Biso   1.000  H
  N32      1.0000 0.09100  0.43438  0.67181  Biso   1.000  N
  H54      1.0000 0.14089  0.07139  0.64040  Biso   1.000  H
  H55      1.0000 0.11739  0.10252  0.69299  Biso   1.000  H
  O15      1.0000 0.14951  0.31362  0.79650  Biso   1.000  O
  H56      1.0000 0.04430  0.32662  0.66030  Biso   1.000  H
  H57      1.0000 0.05321  0.35623  0.71942  Biso   1.000  H
  H58      1.0000 0.24240  0.21528  0.83709  Biso   1.000  H
  H59      1.0000 0.27951  0.15178  0.80609  Biso   1.000  H
  N33      1.0000 0.34780  0.24588  0.82859  Biso   1.000  N
  C59      1.0000 0.47759  0.26648  0.85490  Biso   1.000  C
  H60      1.0000 0.42411  0.16278  0.81941  Biso   1.000  H
  N34      1.0000 0.51468  0.31079  0.81680  Biso   1.000  N
  O16      1.0000 0.51008  0.31821  0.72772  Biso   1.000  O
  C60      1.0000 0.18670  0.64319  0.58991  Biso   1.000  C
  H61      1.0000 0.05321  0.56591  0.59131  Biso   1.000  H
  N35      1.0000 0.09100  0.56562  0.67181  Biso   1.000  N
  C61      1.0000 0.08228  0.50000  0.70241  Biso   1.000  C
  C62      1.0000 0.35927  0.29679  0.87279  Biso   1.000  C
  N36      1.0000 0.43423  0.31279  0.88382  Biso   1.000  N
  H62      1.0000 0.51302  0.23170  0.87840  Biso   1.000  H
  C63      1.0000 0.58333  0.35658  0.83561  Biso   1.000  C
  H63      1.0000 0.14192  0.66973  0.57042  Biso   1.000  H
  H64      1.0000 0.22240  0.63948  0.56640  Biso   1.000  H
  N37      1.0000 0.22029  0.69121  0.63651  Biso   1.000  N
  C64      1.0000 0.07818  0.64660  0.68930  Biso   1.000  C
  O17      1.0000 0.06772  0.50000  0.74521  Biso   1.000  O
  O18      1.0000 0.31229  0.31697  0.89689  Biso   1.000  O
  C65      1.0000 0.46868  0.35523  0.93050  Biso   1.000  C
  H65      1.0000 0.61079  0.35999  0.80681  Biso   1.000  H
  H66      1.0000 0.61502  0.32868  0.86509  Biso   1.000  H
  N38      1.0000 0.57073  0.43562  0.85330  Biso   1.000  N
  C66      1.0000 0.17938  0.73629  0.66888  Biso   1.000  C
  C67      1.0000 0.29613  0.70539  0.65111  Biso   1.000  C
  H67      1.0000 0.04430  0.67338  0.66030  Biso   1.000  H
  H68      1.0000 0.05321  0.64377  0.71942  Biso   1.000  H
  N39      1.0000 0.14542  0.69221  0.70462  Biso   1.000  N
  H69      1.0000 0.43351  0.35723  0.95449  Biso   1.000  H
  H70      1.0000 0.51291  0.32609  0.94871  Biso   1.000  H
  N40      1.0000 0.49200  0.43568  0.92128  Biso   1.000  N
  C68      1.0000 0.57990  0.50000  0.82330  Biso   1.000  C
  C69      1.0000 0.56632  0.45351  0.90700  Biso   1.000  C
  C70      1.0000 0.24299  0.78443  0.70738  Biso   1.000  C
  C71      1.0000 0.12248  0.79938  0.63631  Biso   1.000  C
  N41      1.0000 0.30981  0.75541  0.69491  Biso   1.000  N
  O19      1.0000 0.34222  0.68079  0.62681  Biso   1.000  O
  C72      1.0000 0.17221  0.71069  0.75712  Biso   1.000  C
  C73      1.0000 0.45552  0.50000  0.93379  Biso   1.000  C
  N42      1.0000 0.57073  0.56438  0.85330  Biso   1.000  N
  O20      1.0000 0.59500  0.50000  0.77930  Biso   1.000  O
  C74      1.0000 0.56632  0.54649  0.90700  Biso   1.000  C
  H71      1.0000 0.60889  0.43161  0.93299  Biso   1.000  H
  C75      1.0000 0.22711  0.87612  0.69170  Biso   1.000  C
  N43      1.0000 0.23072  0.76059  0.75900  Biso   1.000  N
  C76      1.0000 0.14737  0.88618  0.66639  Biso   1.000  C
  H72      1.0000 0.07060  0.78649  0.63760  Biso   1.000  H
  H73      1.0000 0.12722  0.80108  0.59909  Biso   1.000  H
  C77      1.0000 0.38540  0.78908  0.71380  Biso   1.000  C
  O21      1.0000 0.14951  0.68638  0.79650  Biso   1.000  O
  N44      1.0000 0.49200  0.56432  0.92128  Biso   1.000  N
  O22      1.0000 0.40040  0.50000  0.95409  Biso   1.000  O
  C78      1.0000 0.58333  0.64342  0.83561  Biso   1.000  C
  H74      1.0000 0.60889  0.56839  0.93299  Biso   1.000  H
  H75      1.0000 0.23951  0.90843  0.72371  Biso   1.000  H
  H76      1.0000 0.25870  0.89260  0.66720  Biso   1.000  H
  C79      1.0000 0.27240  0.79208  0.80998  Biso   1.000  C
  H77      1.0000 0.14089  0.92861  0.64040  Biso   1.000  H
  H78      1.0000 0.11739  0.89748  0.69299  Biso   1.000  H
  H79      1.0000 0.41439  0.78160  0.68609  Biso   1.000  H
  H80      1.0000 0.38011  0.84540  0.71841  Biso   1.000  H
  N45      1.0000 0.42668  0.75771  0.76209  Biso   1.000  N
  C80      1.0000 0.46868  0.64477  0.93050  Biso   1.000  C
  N46      1.0000 0.51468  0.68921  0.81680  Biso   1.000  N
  H81      1.0000 0.61079  0.64001  0.80681  Biso   1.000  H
  H82      1.0000 0.61502  0.67132  0.86509  Biso   1.000  H
  H83      1.0000 0.24240  0.78472  0.83709  Biso   1.000  H
  H84      1.0000 0.27951  0.84822  0.80609  Biso   1.000  H
  N47      1.0000 0.34780  0.75412  0.82859  Biso   1.000  N
  C81      1.0000 0.41719  0.78031  0.81411  Biso   1.000  C
  C82      1.0000 0.48310  0.70727  0.76442  Biso   1.000  C
  N48      1.0000 0.43423  0.68721  0.88382  Biso   1.000  N
  H85      1.0000 0.43351  0.64277  0.95449  Biso   1.000  H
  H86      1.0000 0.51291  0.67391  0.94871  Biso   1.000  H
  C83      1.0000 0.47759  0.73352  0.85490  Biso   1.000  C
  C84      1.0000 0.35927  0.70321  0.87279  Biso   1.000  C
  H87      1.0000 0.42411  0.83722  0.81941  Biso   1.000  H
  O23      1.0000 0.51008  0.68179  0.72772  Biso   1.000  O
  H88      1.0000 0.51302  0.76830  0.87840  Biso   1.000  H
  O24      1.0000 0.31229  0.68303  0.89689  Biso   1.000  O
  C85      1.0000 0.59630  0.04502  0.61738  Biso   1.000  C
  N49      1.0000 0.66620  0.06480  0.60310  Biso   1.000  N
  H89      1.0000 0.55321  0.06591  0.59131  Biso   1.000  H
  N50      1.0000 0.59100  0.06562  0.67181  Biso   1.000  N
  C86      1.0000 0.59630  0.95498  0.61738  Biso   1.000  C
  C87      1.0000 0.68670  0.14319  0.58991  Biso   1.000  C
  C88      1.0000 0.70290  0.00000  0.59099  Biso   1.000  C
  C89      1.0000 0.57818  0.14660  0.68930  Biso   1.000  C
  C90      1.0000 0.58228  0.00000  0.70241  Biso   1.000  C
  N51      1.0000 0.66620  0.93520  0.60310  Biso   1.000  N
  H90      1.0000 0.55321  0.93409  0.59131  Biso   1.000  H
  N52      1.0000 0.59100  0.93438  0.67181  Biso   1.000  N
  H91      1.0000 0.64192  0.16973  0.57042  Biso   1.000  H
  H92      1.0000 0.72240  0.13948  0.56640  Biso   1.000  H
  N53      1.0000 0.72029  0.19121  0.63651  Biso   1.000  N
  O25      1.0000 0.75920  0.00000  0.57130  Biso   1.000  O
  N54      1.0000 0.64542  0.19221  0.70462  Biso   1.000  N
  H93      1.0000 0.54430  0.17338  0.66030  Biso   1.000  H
  H94      1.0000 0.55321  0.14377  0.71942  Biso   1.000  H
  O26      1.0000 0.56772  0.00000  0.74521  Biso   1.000  O
  C91      1.0000 0.68670  0.85681  0.58991  Biso   1.000  C
  C92      1.0000 0.57818  0.85340  0.68930  Biso   1.000  C
  C93      1.0000 0.67938  0.23629  0.66888  Biso   1.000  C
  C94      1.0000 0.79613  0.20539  0.65111  Biso   1.000  C
  C95      1.0000 0.67221  0.21069  0.75712  Biso   1.000  C
  H95      1.0000 0.64192  0.83027  0.57042  Biso   1.000  H
  H96      1.0000 0.72240  0.86052  0.56640  Biso   1.000  H
  N55      1.0000 0.72029  0.80879  0.63651  Biso   1.000  N
  H97      1.0000 0.54430  0.82662  0.66030  Biso   1.000  H
  H98      1.0000 0.55321  0.85623  0.71942  Biso   1.000  H
  N56      1.0000 0.64542  0.80779  0.70462  Biso   1.000  N
  C96      1.0000 0.74299  0.28443  0.70738  Biso   1.000  C
  C97      1.0000 0.62248  0.29938  0.63631  Biso   1.000  C
  N57      1.0000 0.80981  0.25541  0.69491  Biso   1.000  N
  O27      1.0000 0.84222  0.18079  0.62681  Biso   1.000  O
  N58      1.0000 0.73072  0.26059  0.75900  Biso   1.000  N
  O28      1.0000 0.64951  0.18638  0.79650  Biso   1.000  O
  C98      1.0000 0.67938  0.76371  0.66888  Biso   1.000  C
  C99      1.0000 0.79613  0.79461  0.65111  Biso   1.000  C
  C100     1.0000 0.67221  0.78931  0.75712  Biso   1.000  C
  C101     1.0000 0.72711  0.37612  0.69170  Biso   1.000  C
  C102     1.0000 0.64737  0.38618  0.66639  Biso   1.000  C
  H99      1.0000 0.57060  0.28649  0.63760  Biso   1.000  H
  H100     1.0000 0.62722  0.30108  0.59909  Biso   1.000  H
  C103     1.0000 0.88540  0.28908  0.71380  Biso   1.000  C
  C104     1.0000 0.77240  0.29208  0.80998  Biso   1.000  C
  C105     1.0000 0.74299  0.71557  0.70738  Biso   1.000  C
  C106     1.0000 0.62248  0.70062  0.63631  Biso   1.000  C
  N59      1.0000 0.80981  0.74459  0.69491  Biso   1.000  N
  O29      1.0000 0.84222  0.81921  0.62681  Biso   1.000  O
  N60      1.0000 0.73072  0.73941  0.75900  Biso   1.000  N
  O30      1.0000 0.64951  0.81362  0.79650  Biso   1.000  O
  H101     1.0000 0.73951  0.40843  0.72371  Biso   1.000  H
  H102     1.0000 0.75870  0.39260  0.66720  Biso   1.000  H
  H103     1.0000 0.64089  0.42861  0.64040  Biso   1.000  H
  H104     1.0000 0.61739  0.39748  0.69299  Biso   1.000  H
  H105     1.0000 0.91439  0.28160  0.68609  Biso   1.000  H
  H106     1.0000 0.88011  0.34540  0.71841  Biso   1.000  H
  N61      1.0000 0.92668  0.25771  0.76209  Biso   1.000  N
  H107     1.0000 0.74240  0.28472  0.83709  Biso   1.000  H
  H108     1.0000 0.77951  0.34822  0.80609  Biso   1.000  H
  N62      1.0000 0.84780  0.25412  0.82859  Biso   1.000  N
  C107     1.0000 0.72711  0.62388  0.69170  Biso   1.000  C
  C108     1.0000 0.64737  0.61382  0.66639  Biso   1.000  C
  H109     1.0000 0.57060  0.71351  0.63760  Biso   1.000  H
  H110     1.0000 0.62722  0.69892  0.59909  Biso   1.000  H
  C109     1.0000 0.88540  0.71092  0.71380  Biso   1.000  C
  C110     1.0000 0.77240  0.70792  0.80998  Biso   1.000  C
  C111     1.0000 0.91719  0.28031  0.81411  Biso   1.000  C
  C112     1.0000 0.98310  0.20727  0.76442  Biso   1.000  C
  C113     1.0000 0.85927  0.20321  0.87279  Biso   1.000  C
  H111     1.0000 0.73951  0.59157  0.72371  Biso   1.000  H
  H112     1.0000 0.75870  0.60740  0.66720  Biso   1.000  H
  H113     1.0000 0.64089  0.57139  0.64040  Biso   1.000  H
  H114     1.0000 0.61739  0.60252  0.69299  Biso   1.000  H
  H115     1.0000 0.91439  0.71840  0.68609  Biso   1.000  H
  H116     1.0000 0.88011  0.65460  0.71841  Biso   1.000  H
  N63      1.0000 0.92668  0.74229  0.76209  Biso   1.000  N
  H117     1.0000 0.74240  0.71528  0.83709  Biso   1.000  H
  H118     1.0000 0.77951  0.65178  0.80609  Biso   1.000  H
  N64      1.0000 0.84780  0.74588  0.82859  Biso   1.000  N
  C114     1.0000 0.97759  0.23352  0.85490  Biso   1.000  C
  H119     1.0000 0.92411  0.33722  0.81941  Biso   1.000  H
  N65      1.0000 0.01468  0.18921  0.81680  Biso   1.000  N
  O31      1.0000 0.01008  0.18179  0.72772  Biso   1.000  O
  N66      1.0000 0.93423  0.18721  0.88382  Biso   1.000  N
  O32      1.0000 0.81229  0.18303  0.89689  Biso   1.000  O
  C115     1.0000 0.91719  0.71969  0.81411  Biso   1.000  C
  C116     1.0000 0.98310  0.79273  0.76442  Biso   1.000  C
  C117     1.0000 0.85927  0.79679  0.87279  Biso   1.000  C
  H120     1.0000 0.01302  0.26830  0.87840  Biso   1.000  H
  C118     1.0000 0.08333  0.14342  0.83561  Biso   1.000  C
  C119     1.0000 0.96868  0.14477  0.93050  Biso   1.000  C
  C120     1.0000 0.97759  0.76648  0.85490  Biso   1.000  C
  H121     1.0000 0.92411  0.66278  0.81941  Biso   1.000  H
  N67      1.0000 0.01468  0.81079  0.81680  Biso   1.000  N
  O33      1.0000 0.01008  0.81821  0.72772  Biso   1.000  O
  N68      1.0000 0.93423  0.81279  0.88382  Biso   1.000  N
  O34      1.0000 0.81229  0.81697  0.89689  Biso   1.000  O
  H122     1.0000 0.11079  0.14001  0.80681  Biso   1.000  H
  H123     1.0000 0.11502  0.17132  0.86509  Biso   1.000  H
  N69      1.0000 0.07073  0.06438  0.85330  Biso   1.000  N
  H124     1.0000 0.93351  0.14277  0.95449  Biso   1.000  H
  N70      1.0000 0.99200  0.06432  0.92128  Biso   1.000  N
  H125     1.0000 0.01291  0.17391  0.94871  Biso   1.000  H
  H126     1.0000 0.01302  0.73170  0.87840  Biso   1.000  H
  C121     1.0000 0.08333  0.85658  0.83561  Biso   1.000  C
  C122     1.0000 0.96868  0.85523  0.93050  Biso   1.000  C
  C123     1.0000 0.06632  0.04649  0.90700  Biso   1.000  C
  C124     1.0000 0.07990  0.00000  0.82330  Biso   1.000  C
  C125     1.0000 0.95552  0.00000  0.93379  Biso   1.000  C
  N71      1.0000 0.07073  0.93562  0.85330  Biso   1.000  N
  H127     1.0000 0.11079  0.85999  0.80681  Biso   1.000  H
  H128     1.0000 0.11502  0.82868  0.86509  Biso   1.000  H
  N72      1.0000 0.99200  0.93568  0.92128  Biso   1.000  N
  H129     1.0000 0.93351  0.85723  0.95449  Biso   1.000  H
  H130     1.0000 0.01291  0.82609  0.94871  Biso   1.000  H
  C126     1.0000 0.06632  0.95351  0.90700  Biso   1.000  C
  H131     1.0000 0.10889  0.06839  0.93299  Biso   1.000  H
  O35      1.0000 0.09500  0.00000  0.77930  Biso   1.000  O
  O36      1.0000 0.90040  0.00000  0.95409  Biso   1.000  O
  H132     1.0000 0.10889  0.93161  0.93299  Biso   1.000  H
  O37      1.0000 0.65777  0.31921  0.37320  Biso   1.000  O
  C127     1.0000 0.70392  0.29461  0.34890  Biso   1.000  C
  N73      1.0000 0.69019  0.24459  0.30510  Biso   1.000  N
  N74      1.0000 0.77970  0.30879  0.36350  Biso   1.000  N
  C128     1.0000 0.61460  0.21092  0.28621  Biso   1.000  C
  C129     1.0000 0.75700  0.21557  0.29259  Biso   1.000  C
  C130     1.0000 0.82061  0.26371  0.33109  Biso   1.000  C
  C131     1.0000 0.81330  0.35681  0.41010  Biso   1.000  C
  N75      1.0000 0.57330  0.24229  0.23788  Biso   1.000  N
  H133     1.0000 0.58559  0.21840  0.31388  Biso   1.000  H
  H134     1.0000 0.61989  0.15460  0.28160  Biso   1.000  H
  N76      1.0000 0.76928  0.23941  0.24101  Biso   1.000  N
  C132     1.0000 0.77288  0.12388  0.30831  Biso   1.000  C
  C133     1.0000 0.87752  0.20062  0.36370  Biso   1.000  C
  N77      1.0000 0.85458  0.30779  0.29540  Biso   1.000  N
  H135     1.0000 0.85807  0.33027  0.42960  Biso   1.000  H
  H136     1.0000 0.77760  0.36052  0.43361  Biso   1.000  H
  N78      1.0000 0.83380  0.43520  0.39691  Biso   1.000  N
  C134     1.0000 0.51689  0.29273  0.23559  Biso   1.000  C
  C135     1.0000 0.58281  0.21969  0.18590  Biso   1.000  C
  C136     1.0000 0.72759  0.20792  0.18999  Biso   1.000  C
  C137     1.0000 0.82778  0.28931  0.24289  Biso   1.000  C
  H137     1.0000 0.76049  0.09157  0.27630  Biso   1.000  H
  H138     1.0000 0.74129  0.10740  0.33282  Biso   1.000  H
  C138     1.0000 0.85262  0.11382  0.33362  Biso   1.000  C
  H139     1.0000 0.92939  0.21351  0.36242  Biso   1.000  H
  H140     1.0000 0.87283  0.19892  0.40092  Biso   1.000  H
  C139     1.0000 0.92182  0.35340  0.31072  Biso   1.000  C
  C140     1.0000 0.79709  0.50000  0.40898  Biso   1.000  C
  C141     1.0000 0.90368  0.45498  0.38259  Biso   1.000  C
  O38      1.0000 0.48992  0.31821  0.27229  Biso   1.000  O
  N79      1.0000 0.48532  0.31079  0.18321  Biso   1.000  N
  C142     1.0000 0.52240  0.26648  0.14511  Biso   1.000  C
  H141     1.0000 0.57589  0.16278  0.18061  Biso   1.000  H
  N80      1.0000 0.65218  0.24588  0.17138  Biso   1.000  N
  H142     1.0000 0.75759  0.21528  0.16292  Biso   1.000  H
  H143     1.0000 0.72047  0.15178  0.19388  Biso   1.000  H
  O39      1.0000 0.85049  0.31362  0.20351  Biso   1.000  O
  H144     1.0000 0.85911  0.07139  0.35961  Biso   1.000  H
  H145     1.0000 0.88259  0.10252  0.30699  Biso   1.000  H
  H146     1.0000 0.95570  0.32662  0.33971  Biso   1.000  H
  H147     1.0000 0.94679  0.35623  0.28060  Biso   1.000  H
  N81      1.0000 0.90899  0.43438  0.32820  Biso   1.000  N
  N82      1.0000 0.83380  0.56480  0.39691  Biso   1.000  N
  O40      1.0000 0.74080  0.50000  0.42871  Biso   1.000  O
  C143     1.0000 0.90368  0.54502  0.38259  Biso   1.000  C
  H148     1.0000 0.94679  0.43409  0.40870  Biso   1.000  H
  C144     1.0000 0.41672  0.35658  0.16440  Biso   1.000  C
  H149     1.0000 0.48698  0.23170  0.12161  Biso   1.000  H
  N83      1.0000 0.56582  0.31279  0.11619  Biso   1.000  N
  C145     1.0000 0.64071  0.29679  0.12718  Biso   1.000  C
  C146     1.0000 0.91771  0.50000  0.29760  Biso   1.000  C
  C147     1.0000 0.81330  0.64319  0.41010  Biso   1.000  C
  N84      1.0000 0.90899  0.56562  0.32820  Biso   1.000  N
  H150     1.0000 0.94679  0.56591  0.40870  Biso   1.000  H
  H151     1.0000 0.38921  0.35999  0.19320  Biso   1.000  H
  H152     1.0000 0.38502  0.32868  0.13488  Biso   1.000  H
  N85      1.0000 0.42933  0.43562  0.14671  Biso   1.000  N
  C148     1.0000 0.53132  0.35523  0.06951  Biso   1.000  C
  O41      1.0000 0.68771  0.31697  0.10312  Biso   1.000  O
  O42      1.0000 0.93228  0.50000  0.25481  Biso   1.000  O
  H153     1.0000 0.85807  0.66973  0.42960  Biso   1.000  H
  H154     1.0000 0.77760  0.63948  0.43361  Biso   1.000  H
  N86      1.0000 0.77970  0.69121  0.36350  Biso   1.000  N
  C149     1.0000 0.92182  0.64660  0.31072  Biso   1.000  C
  C150     1.0000 0.42010  0.50000  0.17672  Biso   1.000  C
  C151     1.0000 0.43368  0.45351  0.09301  Biso   1.000  C
  N87      1.0000 0.50800  0.43568  0.07873  Biso   1.000  N
  H155     1.0000 0.56648  0.35723  0.04548  Biso   1.000  H
  H156     1.0000 0.48709  0.32609  0.05130  Biso   1.000  H
  C152     1.0000 0.70392  0.70539  0.34890  Biso   1.000  C
  C153     1.0000 0.82061  0.73629  0.33109  Biso   1.000  C
  H157     1.0000 0.95570  0.67338  0.33971  Biso   1.000  H
  H158     1.0000 0.94679  0.64377  0.28060  Biso   1.000  H
  N88      1.0000 0.85458  0.69221  0.29540  Biso   1.000  N
  N89      1.0000 0.42933  0.56438  0.14671  Biso   1.000  N
  O43      1.0000 0.40500  0.50000  0.22071  Biso   1.000  O
  C154     1.0000 0.43368  0.54649  0.09301  Biso   1.000  C
  H159     1.0000 0.39109  0.43161  0.06698  Biso   1.000  H
  C155     1.0000 0.54453  0.50000  0.06622  Biso   1.000  C
  N90      1.0000 0.69019  0.75541  0.30510  Biso   1.000  N
  O44      1.0000 0.65777  0.68079  0.37320  Biso   1.000  O
  C156     1.0000 0.75700  0.78443  0.29259  Biso   1.000  C
  C157     1.0000 0.87752  0.79938  0.36370  Biso   1.000  C
  C158     1.0000 0.82778  0.71069  0.24289  Biso   1.000  C
  C159     1.0000 0.41672  0.64342  0.16440  Biso   1.000  C
  H160     1.0000 0.39109  0.56839  0.06698  Biso   1.000  H
  N91      1.0000 0.50800  0.56432  0.07873  Biso   1.000  N
  O45      1.0000 0.59959  0.50000  0.04588  Biso   1.000  O
  C160     1.0000 0.61460  0.78908  0.28621  Biso   1.000  C
  N92      1.0000 0.76928  0.76059  0.24101  Biso   1.000  N
  C161     1.0000 0.77288  0.87612  0.30831  Biso   1.000  C
  C162     1.0000 0.85262  0.88618  0.33362  Biso   1.000  C
  H161     1.0000 0.92939  0.78649  0.36242  Biso   1.000  H
  H162     1.0000 0.87283  0.80108  0.40092  Biso   1.000  H
  O46      1.0000 0.85049  0.68638  0.20351  Biso   1.000  O
  H163     1.0000 0.38921  0.64001  0.19320  Biso   1.000  H
  H164     1.0000 0.38502  0.67132  0.13488  Biso   1.000  H
  N93      1.0000 0.48532  0.68921  0.18321  Biso   1.000  N
  C163     1.0000 0.53132  0.64477  0.06951  Biso   1.000  C
  N94      1.0000 0.57330  0.75771  0.23788  Biso   1.000  N
  H165     1.0000 0.58559  0.78160  0.31388  Biso   1.000  H
  H166     1.0000 0.61989  0.84540  0.28160  Biso   1.000  H
  C164     1.0000 0.72759  0.79208  0.18999  Biso   1.000  C
  H167     1.0000 0.76049  0.90843  0.27630  Biso   1.000  H
  H168     1.0000 0.74129  0.89260  0.33282  Biso   1.000  H
  H169     1.0000 0.85911  0.92861  0.35961  Biso   1.000  H
  H170     1.0000 0.88259  0.89748  0.30699  Biso   1.000  H
  C165     1.0000 0.52240  0.73352  0.14511  Biso   1.000  C
  C166     1.0000 0.51689  0.70727  0.23559  Biso   1.000  C
  H171     1.0000 0.56648  0.64277  0.04548  Biso   1.000  H
  H172     1.0000 0.48709  0.67391  0.05130  Biso   1.000  H
  N95      1.0000 0.56582  0.68721  0.11619  Biso   1.000  N
  C167     1.0000 0.58281  0.78031  0.18590  Biso   1.000  C
  N96      1.0000 0.65218  0.75412  0.17138  Biso   1.000  N
  H173     1.0000 0.75759  0.78472  0.16292  Biso   1.000  H
  H174     1.0000 0.72047  0.84822  0.19388  Biso   1.000  H
  H175     1.0000 0.48698  0.76830  0.12161  Biso   1.000  H
  O47      1.0000 0.48992  0.68179  0.27229  Biso   1.000  O
  C168     1.0000 0.64071  0.70321  0.12718  Biso   1.000  C
  H176     1.0000 0.57589  0.83722  0.18061  Biso   1.000  H
  O48      1.0000 0.68771  0.68303  0.10312  Biso   1.000  O
  Ne1      1.0000 0.18315  0.00000  0.24567  Biso   1.000  Ne
  He1      1.0000 0.06773  0.00000  0.32726  Biso   1.000  He
  He2      1.0000 0.27177  0.00000  0.14788  Biso   1.000  He
  Ar1      1.0000 0.16844  1.00000  0.23896  Biso   1.000  Ar
  Ne2      1.0000 0.68315  0.50000  0.24567  Biso   1.000  Ne
  He3      1.0000 0.56774  0.50000  0.32727  Biso   1.000  He
  He4      1.0000 0.77177  0.50000  0.14788  Biso   1.000  He
  Ar2      1.0000 0.66652  0.49978  0.24053  Biso   1.000  Ar
  Ne3      1.0000 0.31685  0.50000  0.75434  Biso   1.000  Ne
  He5      1.0000 0.22752  0.50000  0.85275  Biso   1.000  He
  He6      1.0000 0.43344  0.50000  0.67168  Biso   1.000  He
  Ar3      1.0000 0.33163  0.50000  0.76111  Biso   1.000  Ar
  Ne4      1.0000 0.81685  0.00000  0.75434  Biso   1.000  Ne
  He7      1.0000 0.72752  1.00000  0.85275  Biso   1.000  He
  He8      1.0000 0.93344  1.00000  0.67168  Biso   1.000  He
  Ar4      1.0000 0.83157  0.00000  0.76103  Biso   1.000  Ar
