data_image0
_cell_length_a       10.624
_cell_length_b       18.588
_cell_length_c       23.978
_cell_angle_alpha    90
_cell_angle_beta     100.33
_cell_angle_gamma    90

_symmetry_space_group_name_H-M    "P 1"
_symmetry_int_tables_number       1

loop_
  _symmetry_equiv_pos_as_xyz
  'x, y, z'

loop_
  _atom_site_label
  _atom_site_occupancy
  _atom_site_fract_x
  _atom_site_fract_y
  _atom_site_fract_z
  _atom_site_thermal_displace_type
  _atom_site_B_iso_or_equiv
  _atom_site_type_symbol
  N1       1.0000 0.65496  0.47138  0.44126  Biso   1.000  N
  C1       1.0000 0.53678  0.43577  0.41370  Biso   1.000  C
  H1       1.0000 0.71780  0.43829  0.44791  Biso   1.000  H
  C2       1.0000 0.69664  0.52937  0.40866  Biso   1.000  C
  C3       1.0000 0.54599  0.39800  0.35876  Biso   1.000  C
  H2       1.0000 0.46782  0.47219  0.40612  Biso   1.000  H
  H3       1.0000 0.51173  0.40010  0.44041  Biso   1.000  H
  H4       1.0000 0.62903  0.56660  0.40069  Biso   1.000  H
  H5       1.0000 0.71395  0.51087  0.37212  Biso   1.000  H
  C4       1.0000 0.81822  0.56187  0.44300  Biso   1.000  C
  C5       1.0000 0.50532  0.43087  0.30666  Biso   1.000  C
  C6       1.0000 0.59635  0.32838  0.35948  Biso   1.000  C
  N2       1.0000 0.84529  0.63546  0.42477  Biso   1.000  N
  H6       1.0000 0.81005  0.56311  0.48352  Biso   1.000  H
  H7       1.0000 0.89164  0.53040  0.43952  Biso   1.000  H
  C7       1.0000 0.51215  0.39768  0.25656  Biso   1.000  C
  H8       1.0000 0.47160  0.47827  0.30590  Biso   1.000  H
  C8       1.0000 0.60350  0.29417  0.30900  Biso   1.000  C
  H9       1.0000 0.62554  0.30471  0.39463  Biso   1.000  H
  C9       1.0000 0.97888  0.65058  0.44461  Biso   1.000  C
  C10      1.0000 0.76281  0.68636  0.44796  Biso   1.000  C
  C11      1.0000 0.56262  0.32817  0.25800  Biso   1.000  C
  C12      1.0000 0.46425  0.43377  0.20051  Biso   1.000  C
  H10      1.0000 0.63712  0.24677  0.30950  Biso   1.000  H
  H11      1.0000 0.99142  0.70336  0.44512  Biso   1.000  H
  C13      1.0000 0.07121  0.61599  0.40853  Biso   1.000  C
  H12      1.0000 0.00269  0.63320  0.48412  Biso   1.000  H
  H13      1.0000 0.79708  0.69389  0.48870  Biso   1.000  H
  H14      1.0000 0.67611  0.66527  0.44469  Biso   1.000  H
  C14      1.0000 0.75250  0.75828  0.41807  Biso   1.000  C
  H15      1.0000 0.56876  0.30428  0.22362  Biso   1.000  H
  N3       1.0000 0.55492  0.47014  0.17525  Biso   1.000  N
  H16      1.0000 0.42323  0.39682  0.17360  Biso   1.000  H
  H17      1.0000 0.39690  0.46858  0.20598  Biso   1.000  H
  N4       1.0000 0.19853  0.61706  0.43914  Biso   1.000  N
  H18      1.0000 0.04486  0.56580  0.39899  Biso   1.000  H
  H19      1.0000 0.06675  0.64300  0.37263  Biso   1.000  H
  H20      1.0000 0.83848  0.77437  0.41281  Biso   1.000  H
  H21      1.0000 0.69783  0.75360  0.38021  Biso   1.000  H
  N5       1.0000 0.69688  0.81165  0.45181  Biso   1.000  N
  C15      1.0000 0.62046  0.53061  0.20810  Biso   1.000  C
  H22      1.0000 0.61475  0.43829  0.16910  Biso   1.000  H
  C16      1.0000 0.28823  0.58156  0.40959  Biso   1.000  C
  H23      1.0000 0.22249  0.66317  0.44579  Biso   1.000  H
  H24      1.0000 0.61882  0.79611  0.45593  Biso   1.000  H
  C17      1.0000 0.68424  0.88380  0.42710  Biso   1.000  C
  C18      1.0000 0.70989  0.56757  0.17300  Biso   1.000  C
  H25      1.0000 0.67066  0.51270  0.24422  Biso   1.000  H
  H26      1.0000 0.55661  0.56558  0.21709  Biso   1.000  H
  C19      1.0000 0.30993  0.61626  0.35601  Biso   1.000  C
  H27      1.0000 0.25770  0.53190  0.40069  Biso   1.000  H
  H28      1.0000 0.37155  0.57828  0.43571  Biso   1.000  H
  C20      1.0000 0.59703  0.88928  0.37000  Biso   1.000  C
  H29      1.0000 0.77036  0.90096  0.42311  Biso   1.000  H
  H30      1.0000 0.65169  0.91645  0.45389  Biso   1.000  H
  N6       1.0000 0.75873  0.63821  0.19623  Biso   1.000  N
  H31      1.0000 0.78347  0.53551  0.17131  Biso   1.000  H
  H32      1.0000 0.66324  0.57456  0.13379  Biso   1.000  H
  C21      1.0000 0.25451  0.58828  0.30255  Biso   1.000  C
  C22      1.0000 0.38729  0.67667  0.35690  Biso   1.000  C
  C23      1.0000 0.64707  0.88708  0.32036  Biso   1.000  C
  C24      1.0000 0.46617  0.89778  0.36597  Biso   1.000  C
  C25      1.0000 0.87015  0.65456  0.17152  Biso   1.000  C
  C26      1.0000 0.65834  0.69276  0.17889  Biso   1.000  C
  C27      1.0000 0.27486  0.61949  0.25261  Biso   1.000  C
  H33      1.0000 0.20184  0.54680  0.30081  Biso   1.000  H
  C28      1.0000 0.40970  0.70879  0.30738  Biso   1.000  C
  H34      1.0000 0.42595  0.69647  0.39242  Biso   1.000  H
  C29      1.0000 0.56943  0.89138  0.26715  Biso   1.000  C
  H35      1.0000 0.73692  0.88240  0.32282  Biso   1.000  H
  C30      1.0000 0.38735  0.90316  0.31332  Biso   1.000  C
  H36      1.0000 0.43010  0.89988  0.39942  Biso   1.000  H
  H37      1.0000 0.88270  0.70739  0.17160  Biso   1.000  H
  H38      1.0000 0.85521  0.63810  0.13158  Biso   1.000  H
  C31      1.0000 0.99068  0.61938  0.20327  Biso   1.000  C
  C32      1.0000 0.68340  0.76049  0.21594  Biso   1.000  C
  H39      1.0000 0.57393  0.67237  0.18220  Biso   1.000  H
  H40      1.0000 0.65619  0.70589  0.13871  Biso   1.000  H
  C33      1.0000 0.21299  0.58936  0.19555  Biso   1.000  C
  C34      1.0000 0.35167  0.68049  0.25541  Biso   1.000  C
  H41      1.0000 0.46400  0.74957  0.30900  Biso   1.000  H
  C35      1.0000 0.62523  0.88788  0.21315  Biso   1.000  C
  C36      1.0000 0.43876  0.90069  0.26406  Biso   1.000  C
  H42      1.0000 0.29764  0.90865  0.31099  Biso   1.000  H
  H43      1.0000 0.97347  0.56816  0.21052  Biso   1.000  H
  H44      1.0000 0.01777  0.64359  0.24019  Biso   1.000  H
  N7       1.0000 0.09348  0.62465  0.16936  Biso   1.000  N
  N8       1.0000 0.61304  0.81902  0.18513  Biso   1.000  N
  H45      1.0000 0.65433  0.75280  0.25249  Biso   1.000  H
  H46      1.0000 0.77605  0.77157  0.22391  Biso   1.000  H
  H47      1.0000 0.27475  0.59318  0.16931  Biso   1.000  H
  H48      1.0000 0.19549  0.53760  0.20022  Biso   1.000  H
  H49      1.0000 0.36474  0.70320  0.22141  Biso   1.000  H
  H50      1.0000 0.58250  0.92468  0.18640  Biso   1.000  H
  H51      1.0000 0.71707  0.90058  0.22239  Biso   1.000  H
  H52      1.0000 0.38433  0.90537  0.22820  Biso   1.000  H
  H53      1.0000 0.06629  0.60458  0.13519  Biso   1.000  H
  H54      1.0000 0.64138  0.82376  0.15210  Biso   1.000  H
  N9       1.0000 0.55501  0.52980  0.67526  Biso   1.000  N
  C37      1.0000 0.62054  0.46939  0.70812  Biso   1.000  C
  H55      1.0000 0.61483  0.56171  0.66912  Biso   1.000  H
  C38      1.0000 0.46433  0.56617  0.70053  Biso   1.000  C
  C39      1.0000 0.70997  0.43238  0.67302  Biso   1.000  C
  H56      1.0000 0.67072  0.48730  0.74419  Biso   1.000  H
  H57      1.0000 0.55669  0.43437  0.71710  Biso   1.000  H
  H58      1.0000 0.42331  0.60318  0.67361  Biso   1.000  H
  H59      1.0000 0.39698  0.53136  0.70600  Biso   1.000  H
  C40      1.0000 0.51224  0.60227  0.75657  Biso   1.000  C
  N10      1.0000 0.75881  0.36179  0.69625  Biso   1.000  N
  H60      1.0000 0.78365  0.46449  0.67132  Biso   1.000  H
  H61      1.0000 0.66332  0.42538  0.63380  Biso   1.000  H
  C41      1.0000 0.50539  0.56908  0.80664  Biso   1.000  C
  C42      1.0000 0.56271  0.67178  0.75801  Biso   1.000  C
  C43      1.0000 0.65842  0.30719  0.67891  Biso   1.000  C
  C44      1.0000 0.87033  0.34538  0.67153  Biso   1.000  C
  H62      1.0000 0.47178  0.52168  0.80591  Biso   1.000  H
  C45      1.0000 0.54605  0.60200  0.85874  Biso   1.000  C
  H63      1.0000 0.56884  0.69566  0.72363  Biso   1.000  H
  C46      1.0000 0.60368  0.70578  0.80901  Biso   1.000  C
  C47      1.0000 0.68349  0.23951  0.71596  Biso   1.000  C
  H64      1.0000 0.57401  0.32758  0.68221  Biso   1.000  H
  H65      1.0000 0.65628  0.29411  0.63872  Biso   1.000  H
  H66      1.0000 0.88279  0.29261  0.67162  Biso   1.000  H
  H67      1.0000 0.85530  0.36190  0.63160  Biso   1.000  H
  C48      1.0000 0.99077  0.38057  0.70328  Biso   1.000  C
  C49      1.0000 0.59644  0.67156  0.85950  Biso   1.000  C
  C50      1.0000 0.53687  0.56418  0.91372  Biso   1.000  C
  H68      1.0000 0.63720  0.75317  0.80952  Biso   1.000  H
  N11      1.0000 0.61313  0.18098  0.68514  Biso   1.000  N
  H69      1.0000 0.65442  0.24720  0.75250  Biso   1.000  H
  H70      1.0000 0.77613  0.22837  0.72393  Biso   1.000  H
  H71      1.0000 0.97363  0.43178  0.71049  Biso   1.000  H
  H72      1.0000 0.01794  0.35641  0.74021  Biso   1.000  H
  N12      1.0000 0.09357  0.37535  0.66937  Biso   1.000  N
  H73      1.0000 0.62561  0.69529  0.89460  Biso   1.000  H
  H74      1.0000 0.46800  0.52776  0.90613  Biso   1.000  H
  H75      1.0000 0.51191  0.59990  0.94042  Biso   1.000  H
  N13      1.0000 0.65504  0.52862  0.94127  Biso   1.000  N
  C51      1.0000 0.62532  0.11212  0.71316  Biso   1.000  C
  H76      1.0000 0.64156  0.17619  0.65212  Biso   1.000  H
  H77      1.0000 0.06637  0.39536  0.63520  Biso   1.000  H
  C52      1.0000 0.21308  0.41059  0.69557  Biso   1.000  C
  H78      1.0000 0.71788  0.56171  0.94793  Biso   1.000  H
  C53      1.0000 0.69672  0.47057  0.90867  Biso   1.000  C
  C54      1.0000 0.56952  0.10856  0.76717  Biso   1.000  C
  H79      1.0000 0.58258  0.07532  0.68641  Biso   1.000  H
  H80      1.0000 0.71725  0.09942  0.72240  Biso   1.000  H
  H81      1.0000 0.27493  0.40677  0.66933  Biso   1.000  H
  H82      1.0000 0.19557  0.46240  0.70023  Biso   1.000  H
  C55      1.0000 0.27504  0.38051  0.75263  Biso   1.000  C
  H83      1.0000 0.62912  0.43340  0.90070  Biso   1.000  H
  H84      1.0000 0.71403  0.48908  0.87213  Biso   1.000  H
  C56      1.0000 0.81840  0.43813  0.94301  Biso   1.000  C
  C57      1.0000 0.64715  0.11292  0.82037  Biso   1.000  C
  C58      1.0000 0.43883  0.09926  0.76403  Biso   1.000  C
  C59      1.0000 0.25459  0.41166  0.80257  Biso   1.000  C
  C60      1.0000 0.35184  0.31951  0.75538  Biso   1.000  C
  N14      1.0000 0.84537  0.36448  0.92478  Biso   1.000  N
  H85      1.0000 0.81012  0.43689  0.98349  Biso   1.000  H
  H86      1.0000 0.89173  0.46960  0.93953  Biso   1.000  H
  C61      1.0000 0.59712  0.11066  0.87001  Biso   1.000  C
  H87      1.0000 0.73700  0.11760  0.82283  Biso   1.000  H
  C62      1.0000 0.38743  0.09678  0.81333  Biso   1.000  C
  H88      1.0000 0.38442  0.09458  0.72821  Biso   1.000  H
  H89      1.0000 0.20193  0.45320  0.80083  Biso   1.000  H
  C63      1.0000 0.31002  0.38369  0.85602  Biso   1.000  C
  H90      1.0000 0.36482  0.29680  0.72143  Biso   1.000  H
  C64      1.0000 0.40978  0.29121  0.80740  Biso   1.000  C
  C65      1.0000 0.76289  0.31359  0.94797  Biso   1.000  C
  C66      1.0000 0.97897  0.34937  0.94462  Biso   1.000  C
  C67      1.0000 0.68433  0.11620  0.92711  Biso   1.000  C
  C68      1.0000 0.46625  0.10222  0.86598  Biso   1.000  C
  H91      1.0000 0.29773  0.09130  0.81100  Biso   1.000  H
  C69      1.0000 0.38747  0.32327  0.85691  Biso   1.000  C
  C70      1.0000 0.28831  0.41839  0.90961  Biso   1.000  C
  H92      1.0000 0.46409  0.25038  0.80901  Biso   1.000  H
  C71      1.0000 0.75258  0.24172  0.91808  Biso   1.000  C
  H93      1.0000 0.79717  0.30611  0.98871  Biso   1.000  H
  H94      1.0000 0.67629  0.33468  0.94471  Biso   1.000  H
  C72      1.0000 0.07137  0.38401  0.90850  Biso   1.000  C
  H95      1.0000 0.99160  0.29659  0.94513  Biso   1.000  H
  H96      1.0000 0.00277  0.36680  0.98413  Biso   1.000  H
  N15      1.0000 0.69696  0.18835  0.95183  Biso   1.000  N
  H97      1.0000 0.77044  0.09899  0.92313  Biso   1.000  H
  H98      1.0000 0.65178  0.08349  0.95391  Biso   1.000  H
  H99      1.0000 0.43018  0.10012  0.89943  Biso   1.000  H
  H100     1.0000 0.42602  0.30348  0.89239  Biso   1.000  H
  H101     1.0000 0.25779  0.46810  0.90070  Biso   1.000  H
  H102     1.0000 0.37164  0.42167  0.93572  Biso   1.000  H
  N16      1.0000 0.19861  0.38288  0.93915  Biso   1.000  N
  H103     1.0000 0.83856  0.22558  0.91283  Biso   1.000  H
  H104     1.0000 0.69792  0.24640  0.88023  Biso   1.000  H
  H105     1.0000 0.04494  0.43420  0.89901  Biso   1.000  H
  H106     1.0000 0.06682  0.35700  0.87260  Biso   1.000  H
  H107     1.0000 0.61889  0.20389  0.95590  Biso   1.000  H
  H108     1.0000 0.22267  0.33678  0.94581  Biso   1.000  H
  C73      1.0000 0.18424  0.38380  0.42710  Biso   1.000  C
  C74      1.0000 0.09703  0.38928  0.37000  Biso   1.000  C
  N17      1.0000 0.19688  0.31165  0.45181  Biso   1.000  N
  H109     1.0000 0.27036  0.40101  0.42311  Biso   1.000  H
  H110     1.0000 0.15169  0.41651  0.45389  Biso   1.000  H
  C75      1.0000 0.14707  0.38708  0.32036  Biso   1.000  C
  C76      1.0000 0.96617  0.39778  0.36597  Biso   1.000  C
  C77      1.0000 0.25250  0.25828  0.41807  Biso   1.000  C
  H111     1.0000 0.11882  0.29611  0.45593  Biso   1.000  H
  C78      1.0000 0.06943  0.39144  0.26715  Biso   1.000  C
  H112     1.0000 0.23692  0.38240  0.32282  Biso   1.000  H
  C79      1.0000 0.88735  0.40316  0.31332  Biso   1.000  C
  H113     1.0000 0.93010  0.39988  0.39942  Biso   1.000  H
  C80      1.0000 0.26281  0.18641  0.44796  Biso   1.000  C
  H114     1.0000 0.33848  0.27437  0.41281  Biso   1.000  H
  H115     1.0000 0.19783  0.25360  0.38021  Biso   1.000  H
  C81      1.0000 0.12523  0.38788  0.21315  Biso   1.000  C
  C82      1.0000 0.93876  0.40074  0.26406  Biso   1.000  C
  H116     1.0000 0.79764  0.40870  0.31099  Biso   1.000  H
  N18      1.0000 0.34529  0.13546  0.42477  Biso   1.000  N
  H117     1.0000 0.29708  0.19389  0.48870  Biso   1.000  H
  H118     1.0000 0.17621  0.16532  0.44469  Biso   1.000  H
  N19      1.0000 0.11304  0.31902  0.18513  Biso   1.000  N
  H119     1.0000 0.08250  0.42468  0.18640  Biso   1.000  H
  H120     1.0000 0.21717  0.40058  0.22239  Biso   1.000  H
  H121     1.0000 0.88433  0.40537  0.22820  Biso   1.000  H
  C83      1.0000 0.47888  0.15058  0.44461  Biso   1.000  C
  C84      1.0000 0.31831  0.06187  0.44300  Biso   1.000  C
  C85      1.0000 0.18340  0.26049  0.21594  Biso   1.000  C
  H122     1.0000 0.14147  0.32381  0.15210  Biso   1.000  H
  C86      1.0000 0.57131  0.11599  0.40853  Biso   1.000  C
  H123     1.0000 0.50269  0.13320  0.48412  Biso   1.000  H
  H124     1.0000 0.49151  0.20341  0.44512  Biso   1.000  H
  C87      1.0000 0.19664  0.02937  0.40866  Biso   1.000  C
  H125     1.0000 0.31005  0.06311  0.48352  Biso   1.000  H
  H126     1.0000 0.39164  0.03040  0.43952  Biso   1.000  H
  H127     1.0000 0.15433  0.25280  0.25249  Biso   1.000  H
  H128     1.0000 0.27605  0.27157  0.22391  Biso   1.000  H
  C88      1.0000 0.15834  0.19281  0.17889  Biso   1.000  C
  N20      1.0000 0.69853  0.11712  0.43914  Biso   1.000  N
  H129     1.0000 0.54486  0.06580  0.39899  Biso   1.000  H
  H130     1.0000 0.56675  0.14300  0.37263  Biso   1.000  H
  N21      1.0000 0.15496  0.97138  0.44126  Biso   1.000  N
  H131     1.0000 0.12903  0.06660  0.40069  Biso   1.000  H
  H132     1.0000 0.21395  0.01092  0.37212  Biso   1.000  H
  N22      1.0000 0.25873  0.13821  0.19623  Biso   1.000  N
  H133     1.0000 0.07393  0.17237  0.18220  Biso   1.000  H
  H134     1.0000 0.15619  0.20589  0.13871  Biso   1.000  H
  C89      1.0000 0.78823  0.08161  0.40959  Biso   1.000  C
  H135     1.0000 0.72259  0.16317  0.44579  Biso   1.000  H
  C90      1.0000 0.03678  0.93582  0.41370  Biso   1.000  C
  H136     1.0000 0.21780  0.93829  0.44791  Biso   1.000  H
  C91      1.0000 0.37024  0.15462  0.17152  Biso   1.000  C
  C92      1.0000 0.20989  0.06762  0.17300  Biso   1.000  C
  C93      1.0000 0.80993  0.11631  0.35601  Biso   1.000  C
  H137     1.0000 0.75770  0.03190  0.40069  Biso   1.000  H
  H138     1.0000 0.87155  0.07828  0.43571  Biso   1.000  H
  C94      1.0000 0.04599  0.89800  0.35876  Biso   1.000  C
  H139     1.0000 0.96792  0.97219  0.40612  Biso   1.000  H
  H140     1.0000 0.01182  0.90010  0.44041  Biso   1.000  H
  H141     1.0000 0.38270  0.20739  0.17160  Biso   1.000  H
  H142     1.0000 0.35521  0.13810  0.13158  Biso   1.000  H
  C95      1.0000 0.49068  0.11938  0.20327  Biso   1.000  C
  H143     1.0000 0.28356  0.03551  0.17131  Biso   1.000  H
  H144     1.0000 0.16324  0.07462  0.13379  Biso   1.000  H
  C96      1.0000 0.12046  0.03061  0.20810  Biso   1.000  C
  C97      1.0000 0.75451  0.08828  0.30255  Biso   1.000  C
  C98      1.0000 0.88738  0.17667  0.35690  Biso   1.000  C
  C99      1.0000 0.00532  0.93092  0.30666  Biso   1.000  C
  C100     1.0000 0.09635  0.82838  0.35948  Biso   1.000  C
  H145     1.0000 0.51786  0.14359  0.24019  Biso   1.000  H
  H146     1.0000 0.47357  0.06822  0.21052  Biso   1.000  H
  N23      1.0000 0.59348  0.12465  0.16936  Biso   1.000  N
  H147     1.0000 0.17066  0.01270  0.24422  Biso   1.000  H
  H148     1.0000 0.05661  0.06558  0.21709  Biso   1.000  H
  N24      1.0000 0.05492  0.97014  0.17525  Biso   1.000  N
  C101     1.0000 0.77496  0.11949  0.25261  Biso   1.000  C
  H149     1.0000 0.70184  0.04680  0.30081  Biso   1.000  H
  C102     1.0000 0.90970  0.20879  0.30738  Biso   1.000  C
  H150     1.0000 0.92595  0.19647  0.39242  Biso   1.000  H
  C103     1.0000 0.01215  0.89768  0.25656  Biso   1.000  C
  H151     1.0000 0.97169  0.97832  0.30590  Biso   1.000  H
  C104     1.0000 0.10359  0.79422  0.30900  Biso   1.000  C
  H152     1.0000 0.12554  0.80471  0.39463  Biso   1.000  H
  H153     1.0000 0.56629  0.10458  0.13519  Biso   1.000  H
  C105     1.0000 0.71299  0.08941  0.19555  Biso   1.000  C
  C106     1.0000 0.96425  0.93383  0.20051  Biso   1.000  C
  H154     1.0000 0.11475  0.93829  0.16910  Biso   1.000  H
  C107     1.0000 0.85177  0.18049  0.25541  Biso   1.000  C
  H155     1.0000 0.96400  0.24957  0.30900  Biso   1.000  H
  C108     1.0000 0.06262  0.82822  0.25800  Biso   1.000  C
  H156     1.0000 0.13712  0.74683  0.30950  Biso   1.000  H
  H157     1.0000 0.77485  0.09318  0.16931  Biso   1.000  H
  H158     1.0000 0.69549  0.03760  0.20022  Biso   1.000  H
  H159     1.0000 0.92323  0.89682  0.17360  Biso   1.000  H
  H160     1.0000 0.89690  0.96858  0.20598  Biso   1.000  H
  H161     1.0000 0.86474  0.20320  0.22141  Biso   1.000  H
  H162     1.0000 0.06876  0.80428  0.22362  Biso   1.000  H
  C109     1.0000 0.12532  0.61206  0.71316  Biso   1.000  C
  C110     1.0000 0.06952  0.60856  0.76717  Biso   1.000  C
  H163     1.0000 0.08268  0.57526  0.68641  Biso   1.000  H
  H164     1.0000 0.21725  0.59937  0.72240  Biso   1.000  H
  N25      1.0000 0.11313  0.68098  0.68514  Biso   1.000  N
  C111     1.0000 0.14715  0.61292  0.82037  Biso   1.000  C
  C112     1.0000 0.93883  0.59926  0.76403  Biso   1.000  C
  H165     1.0000 0.14156  0.67619  0.65212  Biso   1.000  H
  C113     1.0000 0.18358  0.73946  0.71596  Biso   1.000  C
  C114     1.0000 0.09721  0.61066  0.87001  Biso   1.000  C
  H166     1.0000 0.23709  0.61760  0.82283  Biso   1.000  H
  C115     1.0000 0.88743  0.59678  0.81333  Biso   1.000  C
  H167     1.0000 0.88442  0.59458  0.72821  Biso   1.000  H
  H168     1.0000 0.15442  0.74720  0.75250  Biso   1.000  H
  H169     1.0000 0.27613  0.72837  0.72393  Biso   1.000  H
  C116     1.0000 0.15842  0.80719  0.67891  Biso   1.000  C
  C117     1.0000 0.18442  0.61620  0.92711  Biso   1.000  C
  C118     1.0000 0.96625  0.60222  0.86598  Biso   1.000  C
  H170     1.0000 0.79773  0.59130  0.81100  Biso   1.000  H
  N26      1.0000 0.25881  0.86179  0.69625  Biso   1.000  N
  H171     1.0000 0.07401  0.82758  0.68221  Biso   1.000  H
  H172     1.0000 0.15637  0.79406  0.63872  Biso   1.000  H
  N27      1.0000 0.19696  0.68835  0.95183  Biso   1.000  N
  H173     1.0000 0.27044  0.59899  0.92313  Biso   1.000  H
  H174     1.0000 0.15178  0.58349  0.95391  Biso   1.000  H
  H175     1.0000 0.93018  0.60006  0.89943  Biso   1.000  H
  C119     1.0000 0.37033  0.84538  0.67153  Biso   1.000  C
  C120     1.0000 0.21007  0.93238  0.67302  Biso   1.000  C
  C121     1.0000 0.25258  0.74166  0.91808  Biso   1.000  C
  H176     1.0000 0.11889  0.70389  0.95590  Biso   1.000  H
  H177     1.0000 0.38279  0.79255  0.67162  Biso   1.000  H
  H178     1.0000 0.35530  0.86190  0.63160  Biso   1.000  H
  C122     1.0000 0.49086  0.88057  0.70328  Biso   1.000  C
  H179     1.0000 0.28365  0.96449  0.67132  Biso   1.000  H
  H180     1.0000 0.16332  0.92538  0.63380  Biso   1.000  H
  C123     1.0000 0.12054  0.96939  0.70812  Biso   1.000  C
  C124     1.0000 0.26289  0.81359  0.94797  Biso   1.000  C
  H181     1.0000 0.33856  0.72558  0.91283  Biso   1.000  H
  H182     1.0000 0.19801  0.74640  0.88023  Biso   1.000  H
  H183     1.0000 0.51794  0.85636  0.74021  Biso   1.000  H
  H184     1.0000 0.47363  0.93178  0.71049  Biso   1.000  H
  N28      1.0000 0.59366  0.87535  0.66937  Biso   1.000  N
  H185     1.0000 0.17072  0.98725  0.74419  Biso   1.000  H
  H186     1.0000 0.05669  0.93437  0.71710  Biso   1.000  H
  N29      1.0000 0.05501  0.02980  0.67526  Biso   1.000  N
  N30      1.0000 0.34537  0.86448  0.92478  Biso   1.000  N
  H187     1.0000 0.29717  0.80606  0.98871  Biso   1.000  H
  H188     1.0000 0.17629  0.83468  0.94471  Biso   1.000  H
  H189     1.0000 0.56637  0.89536  0.63520  Biso   1.000  H
  C125     1.0000 0.71308  0.91059  0.69557  Biso   1.000  C
  C126     1.0000 0.96433  0.06623  0.70053  Biso   1.000  C
  H190     1.0000 0.11483  0.06171  0.66912  Biso   1.000  H
  C127     1.0000 0.47897  0.84937  0.94462  Biso   1.000  C
  C128     1.0000 0.31840  0.93808  0.94301  Biso   1.000  C
  H191     1.0000 0.77493  0.90677  0.66933  Biso   1.000  H
  H192     1.0000 0.69567  0.96240  0.70023  Biso   1.000  H
  C129     1.0000 0.77504  0.88046  0.75263  Biso   1.000  C
  H193     1.0000 0.92331  0.10318  0.67361  Biso   1.000  H
  H194     1.0000 0.89708  0.03136  0.70600  Biso   1.000  H
  C130     1.0000 0.01224  0.10227  0.75657  Biso   1.000  C
  C131     1.0000 0.57137  0.88396  0.90850  Biso   1.000  C
  H195     1.0000 0.50277  0.86680  0.98413  Biso   1.000  H
  H196     1.0000 0.49160  0.79659  0.94513  Biso   1.000  H
  C132     1.0000 0.19682  0.97057  0.90867  Biso   1.000  C
  H197     1.0000 0.31021  0.93689  0.98349  Biso   1.000  H
  H198     1.0000 0.39182  0.96955  0.93953  Biso   1.000  H
  C133     1.0000 0.75459  0.91166  0.80257  Biso   1.000  C
  C134     1.0000 0.85184  0.81945  0.75538  Biso   1.000  C
  C135     1.0000 0.00548  0.06913  0.80664  Biso   1.000  C
  C136     1.0000 0.06271  0.17178  0.75801  Biso   1.000  C
  N31      1.0000 0.69861  0.88288  0.93915  Biso   1.000  N
  H199     1.0000 0.54494  0.93415  0.89901  Biso   1.000  H
  H200     1.0000 0.56682  0.85695  0.87260  Biso   1.000  H
  H201     1.0000 0.12921  0.93340  0.90070  Biso   1.000  H
  H202     1.0000 0.21403  0.98908  0.87213  Biso   1.000  H
  N32      1.0000 0.15504  0.02857  0.94127  Biso   1.000  N
  H203     1.0000 0.70193  0.95320  0.80083  Biso   1.000  H
  C137     1.0000 0.81002  0.88369  0.85602  Biso   1.000  C
  H204     1.0000 0.86482  0.79680  0.72143  Biso   1.000  H
  C138     1.0000 0.90978  0.79116  0.80740  Biso   1.000  C
  H205     1.0000 0.97178  0.02168  0.80591  Biso   1.000  H
  C139     1.0000 0.04605  0.10206  0.85874  Biso   1.000  C
  H206     1.0000 0.06884  0.19572  0.72363  Biso   1.000  H
  C140     1.0000 0.10368  0.20583  0.80901  Biso   1.000  C
  C141     1.0000 0.78831  0.91839  0.90961  Biso   1.000  C
  H207     1.0000 0.72267  0.83678  0.94581  Biso   1.000  H
  C142     1.0000 0.03687  0.06423  0.91372  Biso   1.000  C
  H208     1.0000 0.21788  0.06171  0.94793  Biso   1.000  H
  C143     1.0000 0.88747  0.82327  0.85691  Biso   1.000  C
  H209     1.0000 0.96409  0.75038  0.80901  Biso   1.000  H
  C144     1.0000 0.09644  0.17162  0.85950  Biso   1.000  C
  H210     1.0000 0.13730  0.25323  0.80952  Biso   1.000  H
  H211     1.0000 0.75788  0.96810  0.90070  Biso   1.000  H
  H212     1.0000 0.87164  0.92167  0.93572  Biso   1.000  H
  H213     1.0000 0.96800  0.02781  0.90613  Biso   1.000  H
  H214     1.0000 0.01191  0.09990  0.94042  Biso   1.000  H
  H215     1.0000 0.92602  0.80348  0.89239  Biso   1.000  H
  H216     1.0000 0.12570  0.19534  0.89460  Biso   1.000  H
