data_image0
_cell_length_a       16.387
_cell_length_b       11.486
_cell_length_c       15.506
_cell_angle_alpha    90
_cell_angle_beta     90
_cell_angle_gamma    90

_symmetry_space_group_name_H-M    "P 1"
_symmetry_int_tables_number       1

loop_
  _symmetry_equiv_pos_as_xyz
  'x, y, z'

loop_
  _atom_site_label
  _atom_site_occupancy
  _atom_site_fract_x
  _atom_site_fract_y
  _atom_site_fract_z
  _atom_site_thermal_displace_type
  _atom_site_B_iso_or_equiv
  _atom_site_type_symbol
  N1       1.0000 0.33569  0.18666  0.29930  Biso   1.000  N
  C1       1.0000 0.26777  0.10700  0.29389  Biso   1.000  C
  C2       1.0000 0.39202  0.21017  0.22920  Biso   1.000  C
  C3       1.0000 0.33472  0.24987  0.37360  Biso   1.000  C
  H1       1.0000 0.23262  0.12459  0.24449  Biso   1.000  H
  C4       1.0000 0.22237  0.12493  0.38050  Biso   1.000  C
  N2       1.0000 0.28999  0.98494  0.29653  Biso   1.000  N
  N3       1.0000 0.45957  0.12937  0.22591  Biso   1.000  N
  H2       1.0000 0.41319  0.28861  0.23559  Biso   1.000  H
  H3       1.0000 0.36248  0.20669  0.17509  Biso   1.000  H
  O1       1.0000 0.38219  0.32727  0.39204  Biso   1.000  O
  N4       1.0000 0.26936  0.21600  0.42203  Biso   1.000  N
  N5       1.0000 0.22713  0.01280  0.42268  Biso   1.000  N
  H4       1.0000 0.16568  0.14879  0.37128  Biso   1.000  H
  C5       1.0000 0.32440  0.92112  0.22662  Biso   1.000  C
  C6       1.0000 0.26368  0.93218  0.37070  Biso   1.000  C
  C7       1.0000 0.45652  0.02090  0.17767  Biso   1.000  C
  C8       1.0000 0.53707  0.15924  0.24597  Biso   1.000  C
  C9       1.0000 0.24538  0.27494  0.50000  Biso   1.000  C
  C10      1.0000 0.18411  0.98259  0.50000  Biso   1.000  C
  N6       1.0000 0.41179  0.92896  0.22088  Biso   1.000  N
  H5       1.0000 0.30091  0.94942  0.17309  Biso   1.000  H
  H6       1.0000 0.30927  0.83980  0.23249  Biso   1.000  H
  O2       1.0000 0.27070  0.82840  0.38682  Biso   1.000  O
  H7       1.0000 0.43901  0.02899  0.12002  Biso   1.000  H
  C11      1.0000 0.54348  0.97910  0.17767  Biso   1.000  C
  N7       1.0000 0.58821  0.07104  0.22088  Biso   1.000  N
  O3       1.0000 0.55867  0.24882  0.28150  Biso   1.000  O
  N8       1.0000 0.26936  0.21600  0.57797  Biso   1.000  N
  H8       1.0000 0.26930  0.35217  0.50000  Biso   1.000  H
  H9       1.0000 0.18661  0.28391  0.50000  Biso   1.000  H
  N9       1.0000 0.22713  0.01280  0.57732  Biso   1.000  N
  H10      1.0000 0.13163  0.02177  0.50000  Biso   1.000  H
  H11      1.0000 0.17380  0.89944  0.50000  Biso   1.000  H
  C12      1.0000 0.46293  0.84076  0.24597  Biso   1.000  C
  N10      1.0000 0.54043  0.87063  0.22591  Biso   1.000  N
  H12      1.0000 0.56099  0.97101  0.12002  Biso   1.000  H
  C13      1.0000 0.67560  0.07888  0.22662  Biso   1.000  C
  C14      1.0000 0.22237  0.12493  0.61950  Biso   1.000  C
  C15      1.0000 0.33472  0.24987  0.62640  Biso   1.000  C
  C16      1.0000 0.26368  0.93218  0.62930  Biso   1.000  C
  O4       1.0000 0.44133  0.75118  0.28150  Biso   1.000  O
  C17      1.0000 0.60798  0.78983  0.22920  Biso   1.000  C
  N11      1.0000 0.71001  0.01506  0.29653  Biso   1.000  N
  H13      1.0000 0.69909  0.05058  0.17309  Biso   1.000  H
  H14      1.0000 0.69073  0.16020  0.23249  Biso   1.000  H
  C18      1.0000 0.26777  0.10700  0.70611  Biso   1.000  C
  H15      1.0000 0.16568  0.14879  0.62872  Biso   1.000  H
  O5       1.0000 0.38219  0.32727  0.60796  Biso   1.000  O
  N12      1.0000 0.33569  0.18666  0.70070  Biso   1.000  N
  O6       1.0000 0.27070  0.82840  0.61318  Biso   1.000  O
  N13      1.0000 0.28999  0.98494  0.70347  Biso   1.000  N
  N14      1.0000 0.66431  0.81334  0.29930  Biso   1.000  N
  H16      1.0000 0.58681  0.71139  0.23559  Biso   1.000  H
  H17      1.0000 0.63752  0.79331  0.17509  Biso   1.000  H
  C19      1.0000 0.73632  0.06782  0.37070  Biso   1.000  C
  C20      1.0000 0.73223  0.89300  0.29389  Biso   1.000  C
  H18      1.0000 0.23262  0.12459  0.75551  Biso   1.000  H
  C21      1.0000 0.39202  0.21017  0.77080  Biso   1.000  C
  C22      1.0000 0.32440  0.92112  0.77338  Biso   1.000  C
  C23      1.0000 0.66528  0.75013  0.37360  Biso   1.000  C
  O7       1.0000 0.72930  0.17160  0.38682  Biso   1.000  O
  N15      1.0000 0.77287  0.98720  0.42268  Biso   1.000  N
  H19      1.0000 0.76738  0.87541  0.24449  Biso   1.000  H
  C24      1.0000 0.77763  0.87507  0.38050  Biso   1.000  C
  N16      1.0000 0.45957  0.12937  0.77409  Biso   1.000  N
  H20      1.0000 0.41319  0.28861  0.76441  Biso   1.000  H
  H21      1.0000 0.36248  0.20669  0.82491  Biso   1.000  H
  N17      1.0000 0.41179  0.92896  0.77912  Biso   1.000  N
  H22      1.0000 0.30091  0.94942  0.82691  Biso   1.000  H
  H23      1.0000 0.30927  0.83980  0.76751  Biso   1.000  H
  O8       1.0000 0.61781  0.67273  0.39204  Biso   1.000  O
  N18      1.0000 0.73064  0.78400  0.42203  Biso   1.000  N
  C25      1.0000 0.81589  0.01741  0.50000  Biso   1.000  C
  H24      1.0000 0.83432  0.85121  0.37128  Biso   1.000  H
  C26      1.0000 0.45652  0.02090  0.82233  Biso   1.000  C
  C27      1.0000 0.53707  0.15924  0.75403  Biso   1.000  C
  C28      1.0000 0.46293  0.84076  0.75403  Biso   1.000  C
  C29      1.0000 0.75462  0.72506  0.50000  Biso   1.000  C
  H25      1.0000 0.82620  0.10056  0.50000  Biso   1.000  H
  N19      1.0000 0.77287  0.98720  0.57732  Biso   1.000  N
  H26      1.0000 0.86837  0.97823  0.50000  Biso   1.000  H
  H27      1.0000 0.43901  0.02899  0.87998  Biso   1.000  H
  C30      1.0000 0.54348  0.97910  0.82233  Biso   1.000  C
  N20      1.0000 0.58821  0.07104  0.77912  Biso   1.000  N
  O9       1.0000 0.55867  0.24882  0.71850  Biso   1.000  O
  N21      1.0000 0.54043  0.87063  0.77409  Biso   1.000  N
  O10      1.0000 0.44133  0.75118  0.71850  Biso   1.000  O
  N22      1.0000 0.73064  0.78400  0.57797  Biso   1.000  N
  H28      1.0000 0.73070  0.64783  0.50000  Biso   1.000  H
  H29      1.0000 0.81339  0.71609  0.50000  Biso   1.000  H
  C31      1.0000 0.73632  0.06782  0.62930  Biso   1.000  C
  C32      1.0000 0.77763  0.87507  0.61950  Biso   1.000  C
  H30      1.0000 0.56099  0.97101  0.87998  Biso   1.000  H
  C33      1.0000 0.67560  0.07888  0.77338  Biso   1.000  C
  C34      1.0000 0.60798  0.78983  0.77080  Biso   1.000  C
  C35      1.0000 0.66528  0.75013  0.62640  Biso   1.000  C
  O11      1.0000 0.72930  0.17160  0.61318  Biso   1.000  O
  N23      1.0000 0.71001  0.01506  0.70347  Biso   1.000  N
  C36      1.0000 0.73223  0.89300  0.70611  Biso   1.000  C
  H31      1.0000 0.83432  0.85121  0.62872  Biso   1.000  H
  H32      1.0000 0.69909  0.05058  0.82691  Biso   1.000  H
  H33      1.0000 0.69073  0.16020  0.76751  Biso   1.000  H
  N24      1.0000 0.66431  0.81334  0.70070  Biso   1.000  N
  H34      1.0000 0.58681  0.71139  0.76441  Biso   1.000  H
  H35      1.0000 0.63752  0.79331  0.82491  Biso   1.000  H
  O12      1.0000 0.61781  0.67273  0.60796  Biso   1.000  O
  H36      1.0000 0.76738  0.87541  0.75551  Biso   1.000  H
  C37      1.0000 0.17563  0.42112  0.27338  Biso   1.000  C
  N25      1.0000 0.20998  0.48494  0.20347  Biso   1.000  N
  N26      1.0000 0.08818  0.42896  0.27912  Biso   1.000  N
  H37      1.0000 0.19912  0.44942  0.32691  Biso   1.000  H
  H38      1.0000 0.19070  0.33980  0.26751  Biso   1.000  H
  C38      1.0000 0.23628  0.43218  0.12930  Biso   1.000  C
  C39      1.0000 0.23220  0.60700  0.20611  Biso   1.000  C
  C40      1.0000 0.04351  0.52090  0.32233  Biso   1.000  C
  C41      1.0000 0.03710  0.34076  0.25403  Biso   1.000  C
  O13      1.0000 0.22927  0.32840  0.11318  Biso   1.000  O
  N27      1.0000 0.27290  0.51280  0.07732  Biso   1.000  N
  C42      1.0000 0.27760  0.62493  0.11950  Biso   1.000  C
  N28      1.0000 0.16428  0.68666  0.20070  Biso   1.000  N
  H39      1.0000 0.26741  0.62459  0.25551  Biso   1.000  H
  N29      1.0000 0.04040  0.62937  0.27409  Biso   1.000  N
  H40      1.0000 0.06102  0.52899  0.37998  Biso   1.000  H
  C43      1.0000 0.95649  0.47910  0.32233  Biso   1.000  C
  O14      1.0000 0.05871  0.25118  0.21850  Biso   1.000  O
  N30      1.0000 0.95960  0.37063  0.27409  Biso   1.000  N
  C44      1.0000 0.31592  0.48259  0.00000  Biso   1.000  C
  N31      1.0000 0.23061  0.71600  0.07797  Biso   1.000  N
  H41      1.0000 0.33429  0.64879  0.12872  Biso   1.000  H
  C45      1.0000 0.10801  0.71017  0.27080  Biso   1.000  C
  C46      1.0000 0.16531  0.74987  0.12640  Biso   1.000  C
  C47      1.0000 0.96290  0.65924  0.25403  Biso   1.000  C
  N32      1.0000 0.91182  0.57104  0.27912  Biso   1.000  N
  H42      1.0000 0.93898  0.47101  0.37998  Biso   1.000  H
  C48      1.0000 0.89199  0.28983  0.27080  Biso   1.000  C
  H43      1.0000 0.36840  0.52177  0.00000  Biso   1.000  H
  H44      1.0000 0.32617  0.39944  0.00000  Biso   1.000  H
  N33      1.0000 0.27290  0.51280  0.92268  Biso   1.000  N
  C49      1.0000 0.25459  0.77494  0.00000  Biso   1.000  C
  H45      1.0000 0.08678  0.78861  0.26441  Biso   1.000  H
  H46      1.0000 0.13749  0.70669  0.32491  Biso   1.000  H
  O15      1.0000 0.11778  0.82727  0.10796  Biso   1.000  O
  O16      1.0000 0.94129  0.74882  0.21850  Biso   1.000  O
  C50      1.0000 0.82437  0.57888  0.27338  Biso   1.000  C
  N34      1.0000 0.83572  0.31334  0.20070  Biso   1.000  N
  H47      1.0000 0.91322  0.21139  0.26441  Biso   1.000  H
  H48      1.0000 0.86251  0.29331  0.32491  Biso   1.000  H
  C51      1.0000 0.27760  0.62493  0.88050  Biso   1.000  C
  C52      1.0000 0.23628  0.43218  0.87070  Biso   1.000  C
  H49      1.0000 0.23067  0.85217  0.00000  Biso   1.000  H
  H50      1.0000 0.31342  0.78391  0.00000  Biso   1.000  H
  N35      1.0000 0.23061  0.71600  0.92203  Biso   1.000  N
  N36      1.0000 0.79002  0.51506  0.20347  Biso   1.000  N
  H51      1.0000 0.80088  0.55058  0.32691  Biso   1.000  H
  H52      1.0000 0.80930  0.66020  0.26751  Biso   1.000  H
  C53      1.0000 0.76780  0.39300  0.20611  Biso   1.000  C
  C54      1.0000 0.83469  0.25013  0.12640  Biso   1.000  C
  C55      1.0000 0.23220  0.60700  0.79389  Biso   1.000  C
  H53      1.0000 0.33429  0.64879  0.87128  Biso   1.000  H
  O17      1.0000 0.22927  0.32840  0.88682  Biso   1.000  O
  N37      1.0000 0.20998  0.48494  0.79653  Biso   1.000  N
  C56      1.0000 0.16531  0.74987  0.87360  Biso   1.000  C
  C57      1.0000 0.76372  0.56782  0.12930  Biso   1.000  C
  H54      1.0000 0.73259  0.37541  0.25551  Biso   1.000  H
  C58      1.0000 0.72240  0.37507  0.11950  Biso   1.000  C
  O18      1.0000 0.88222  0.17273  0.10796  Biso   1.000  O
  N38      1.0000 0.76939  0.28400  0.07797  Biso   1.000  N
  N39      1.0000 0.16428  0.68666  0.79930  Biso   1.000  N
  H55      1.0000 0.26741  0.62459  0.74449  Biso   1.000  H
  C59      1.0000 0.17563  0.42112  0.72662  Biso   1.000  C
  O19      1.0000 0.11778  0.82727  0.89204  Biso   1.000  O
  O20      1.0000 0.77073  0.67160  0.11318  Biso   1.000  O
  N40      1.0000 0.72710  0.48720  0.07732  Biso   1.000  N
  H56      1.0000 0.66571  0.35121  0.12872  Biso   1.000  H
  C60      1.0000 0.74541  0.22506  0.00000  Biso   1.000  C
  C61      1.0000 0.10801  0.71017  0.72920  Biso   1.000  C
  N41      1.0000 0.08818  0.42896  0.72088  Biso   1.000  N
  H57      1.0000 0.19912  0.44942  0.67309  Biso   1.000  H
  H58      1.0000 0.19070  0.33980  0.73249  Biso   1.000  H
  C62      1.0000 0.68408  0.51741  0.00000  Biso   1.000  C
  N42      1.0000 0.76939  0.28400  0.92203  Biso   1.000  N
  H59      1.0000 0.76933  0.14783  0.00000  Biso   1.000  H
  H60      1.0000 0.68658  0.21609  0.00000  Biso   1.000  H
  N43      1.0000 0.04040  0.62937  0.72591  Biso   1.000  N
  H61      1.0000 0.08678  0.78861  0.73559  Biso   1.000  H
  H62      1.0000 0.13749  0.70669  0.67509  Biso   1.000  H
  C63      1.0000 0.04351  0.52090  0.67767  Biso   1.000  C
  C64      1.0000 0.03710  0.34076  0.74597  Biso   1.000  C
  N44      1.0000 0.72710  0.48720  0.92268  Biso   1.000  N
  H63      1.0000 0.63160  0.47823  0.00000  Biso   1.000  H
  H64      1.0000 0.67383  0.60056  0.00000  Biso   1.000  H
  C65      1.0000 0.72240  0.37507  0.88050  Biso   1.000  C
  C66      1.0000 0.83469  0.25013  0.87360  Biso   1.000  C
  C67      1.0000 0.96290  0.65924  0.74597  Biso   1.000  C
  C68      1.0000 0.95649  0.47910  0.67767  Biso   1.000  C
  H65      1.0000 0.06102  0.52899  0.62002  Biso   1.000  H
  N45      1.0000 0.95960  0.37063  0.72591  Biso   1.000  N
  O21      1.0000 0.05871  0.25118  0.78150  Biso   1.000  O
  C69      1.0000 0.76372  0.56782  0.87070  Biso   1.000  C
  C70      1.0000 0.76780  0.39300  0.79389  Biso   1.000  C
  H66      1.0000 0.66571  0.35121  0.87128  Biso   1.000  H
  N46      1.0000 0.83572  0.31334  0.79930  Biso   1.000  N
  O22      1.0000 0.88222  0.17273  0.89204  Biso   1.000  O
  N47      1.0000 0.91182  0.57104  0.72088  Biso   1.000  N
  O23      1.0000 0.94129  0.74882  0.78150  Biso   1.000  O
  H67      1.0000 0.93898  0.47101  0.62002  Biso   1.000  H
  C71      1.0000 0.89199  0.28983  0.72920  Biso   1.000  C
  N48      1.0000 0.79002  0.51506  0.79653  Biso   1.000  N
  O24      1.0000 0.77073  0.67160  0.88682  Biso   1.000  O
  H68      1.0000 0.73259  0.37541  0.74449  Biso   1.000  H
  C72      1.0000 0.82437  0.57888  0.72662  Biso   1.000  C
  H69      1.0000 0.91322  0.21139  0.73559  Biso   1.000  H
  H70      1.0000 0.86251  0.29331  0.67509  Biso   1.000  H
  H71      1.0000 0.80088  0.55058  0.67309  Biso   1.000  H
  H72      1.0000 0.80930  0.66020  0.73249  Biso   1.000  H
