data_image0
_cell_length_a       15.974
_cell_length_b       11.594
_cell_length_c       14.952
_cell_angle_alpha    90
_cell_angle_beta     90
_cell_angle_gamma    90

_symmetry_space_group_name_H-M    "P 1"
_symmetry_int_tables_number       1

loop_
  _symmetry_equiv_pos_as_xyz
  'x, y, z'

loop_
  _atom_site_label
  _atom_site_occupancy
  _atom_site_fract_x
  _atom_site_fract_y
  _atom_site_fract_z
  _atom_site_thermal_displace_type
  _atom_site_B_iso_or_equiv
  _atom_site_type_symbol
  O1       1.0000 0.76887  0.33241  0.61724  Biso   1.000  O
  C1       1.0000 0.76011  0.43479  0.63517  Biso   1.000  C
  N1       1.0000 0.72386  0.51501  0.58059  Biso   1.000  N
  N2       1.0000 0.78509  0.48784  0.71181  Biso   1.000  N
  C2       1.0000 0.68067  0.48473  0.50000  Biso   1.000  C
  C3       1.0000 0.71967  0.62782  0.62273  Biso   1.000  C
  C4       1.0000 0.76399  0.60902  0.71382  Biso   1.000  C
  C5       1.0000 0.81889  0.42617  0.78511  Biso   1.000  C
  H1       1.0000 0.67097  0.40210  0.50000  Biso   1.000  H
  H2       1.0000 0.62646  0.52234  0.50000  Biso   1.000  H
  N3       1.0000 0.72386  0.51501  0.41941  Biso   1.000  N
  H3       1.0000 0.66170  0.65318  0.63068  Biso   1.000  H
  N4       1.0000 0.76975  0.71563  0.58072  Biso   1.000  N
  H4       1.0000 0.72737  0.62791  0.76431  Biso   1.000  H
  N5       1.0000 0.83511  0.68570  0.70867  Biso   1.000  N
  H5       1.0000 0.80230  0.34604  0.77976  Biso   1.000  H
  H6       1.0000 0.79429  0.45610  0.83969  Biso   1.000  H
  N6       1.0000 0.90942  0.43083  0.79367  Biso   1.000  N
  C6       1.0000 0.71967  0.62782  0.37727  Biso   1.000  C
  C7       1.0000 0.76011  0.43479  0.36477  Biso   1.000  C
  C8       1.0000 0.74628  0.77480  0.50000  Biso   1.000  C
  C9       1.0000 0.83567  0.74832  0.63102  Biso   1.000  C
  C10      1.0000 0.89145  0.70907  0.78177  Biso   1.000  C
  C11      1.0000 0.96000  0.34268  0.76699  Biso   1.000  C
  C12      1.0000 0.95430  0.52156  0.83882  Biso   1.000  C
  H7       1.0000 0.66170  0.65318  0.36932  Biso   1.000  H
  C13      1.0000 0.76399  0.60902  0.28618  Biso   1.000  C
  N7       1.0000 0.76975  0.71563  0.41928  Biso   1.000  N
  N8       1.0000 0.78509  0.48784  0.28819  Biso   1.000  N
  O2       1.0000 0.76887  0.33241  0.38276  Biso   1.000  O
  H8       1.0000 0.77219  0.85053  0.50000  Biso   1.000  H
  H9       1.0000 0.68605  0.78584  0.50000  Biso   1.000  H
  O3       1.0000 0.88707  0.82224  0.61223  Biso   1.000  O
  H10      1.0000 0.91417  0.78610  0.77448  Biso   1.000  H
  H11      1.0000 0.86009  0.70778  0.83728  Biso   1.000  H
  N9       1.0000 0.95962  0.62886  0.78859  Biso   1.000  N
  O4       1.0000 0.93721  0.25323  0.73181  Biso   1.000  O
  N10      1.0000 0.04038  0.37114  0.78859  Biso   1.000  N
  H12      1.0000 0.93327  0.53424  0.89961  Biso   1.000  H
  C14      1.0000 0.04570  0.47844  0.83882  Biso   1.000  C
  H13      1.0000 0.72737  0.62791  0.23569  Biso   1.000  H
  N11      1.0000 0.83511  0.68570  0.29127  Biso   1.000  N
  C15      1.0000 0.83567  0.74832  0.36898  Biso   1.000  C
  C16      1.0000 0.81889  0.42617  0.21489  Biso   1.000  C
  C17      1.0000 0.04000  0.65732  0.76699  Biso   1.000  C
  C18      1.0000 0.10849  0.29093  0.78177  Biso   1.000  C
  N12      1.0000 0.09058  0.56917  0.79367  Biso   1.000  N
  H14      1.0000 0.06667  0.46576  0.89961  Biso   1.000  H
  C19      1.0000 0.89145  0.70907  0.21823  Biso   1.000  C
  O5       1.0000 0.88707  0.82224  0.38777  Biso   1.000  O
  H15      1.0000 0.80230  0.34604  0.22017  Biso   1.000  H
  H16      1.0000 0.79429  0.45610  0.16031  Biso   1.000  H
  N13      1.0000 0.90942  0.43083  0.20633  Biso   1.000  N
  O6       1.0000 0.06273  0.74677  0.73181  Biso   1.000  O
  H17      1.0000 0.08583  0.21390  0.77448  Biso   1.000  H
  H18      1.0000 0.13991  0.29222  0.83728  Biso   1.000  H
  N14      1.0000 0.16489  0.31430  0.70867  Biso   1.000  N
  C20      1.0000 0.18111  0.57383  0.78511  Biso   1.000  C
  H19      1.0000 0.91417  0.78610  0.22552  Biso   1.000  H
  H20      1.0000 0.86009  0.70778  0.16272  Biso   1.000  H
  N15      1.0000 0.95962  0.62886  0.21141  Biso   1.000  N
  C21      1.0000 0.96000  0.34268  0.23301  Biso   1.000  C
  C22      1.0000 0.95430  0.52156  0.16118  Biso   1.000  C
  C23      1.0000 0.16427  0.25168  0.63102  Biso   1.000  C
  C24      1.0000 0.23601  0.39098  0.71382  Biso   1.000  C
  H21      1.0000 0.19770  0.65396  0.77976  Biso   1.000  H
  H22      1.0000 0.20571  0.54390  0.83969  Biso   1.000  H
  N16      1.0000 0.21491  0.51216  0.71181  Biso   1.000  N
  C25      1.0000 0.04000  0.65732  0.23301  Biso   1.000  C
  O7       1.0000 0.93721  0.25323  0.26819  Biso   1.000  O
  N17      1.0000 0.04038  0.37114  0.21141  Biso   1.000  N
  H23      1.0000 0.93327  0.53424  0.10039  Biso   1.000  H
  C26      1.0000 0.04570  0.47844  0.16118  Biso   1.000  C
  N18      1.0000 0.23019  0.28437  0.58072  Biso   1.000  N
  O8       1.0000 0.11287  0.17776  0.61223  Biso   1.000  O
  C27      1.0000 0.28027  0.37218  0.62273  Biso   1.000  C
  H24      1.0000 0.27257  0.37209  0.76431  Biso   1.000  H
  C28      1.0000 0.23989  0.56521  0.63517  Biso   1.000  C
  N19      1.0000 0.09058  0.56917  0.20633  Biso   1.000  N
  O9       1.0000 0.06273  0.74677  0.26819  Biso   1.000  O
  C29      1.0000 0.10849  0.29093  0.21823  Biso   1.000  C
  H25      1.0000 0.06667  0.46576  0.10039  Biso   1.000  H
  C30      1.0000 0.25372  0.22520  0.50000  Biso   1.000  C
  N20      1.0000 0.27614  0.48499  0.58059  Biso   1.000  N
  H26      1.0000 0.33830  0.34682  0.63068  Biso   1.000  H
  O10      1.0000 0.23113  0.66759  0.61724  Biso   1.000  O
  C31      1.0000 0.18111  0.57383  0.21489  Biso   1.000  C
  H27      1.0000 0.08583  0.21390  0.22552  Biso   1.000  H
  H28      1.0000 0.13991  0.29222  0.16272  Biso   1.000  H
  N21      1.0000 0.16489  0.31430  0.29127  Biso   1.000  N
  N22      1.0000 0.23019  0.28437  0.41928  Biso   1.000  N
  H29      1.0000 0.22781  0.14947  0.50000  Biso   1.000  H
  H30      1.0000 0.31389  0.21416  0.50000  Biso   1.000  H
  C32      1.0000 0.31927  0.51527  0.50000  Biso   1.000  C
  H31      1.0000 0.19770  0.65396  0.22017  Biso   1.000  H
  H32      1.0000 0.20571  0.54390  0.16031  Biso   1.000  H
  N23      1.0000 0.21491  0.51216  0.28819  Biso   1.000  N
  C33      1.0000 0.16427  0.25168  0.36898  Biso   1.000  C
  C34      1.0000 0.23601  0.39098  0.28618  Biso   1.000  C
  C35      1.0000 0.28027  0.37218  0.37727  Biso   1.000  C
  N24      1.0000 0.27614  0.48499  0.41941  Biso   1.000  N
  H33      1.0000 0.32897  0.59790  0.50000  Biso   1.000  H
  H34      1.0000 0.37348  0.47766  0.50000  Biso   1.000  H
  C36      1.0000 0.23989  0.56521  0.36477  Biso   1.000  C
  O11      1.0000 0.11287  0.17776  0.38777  Biso   1.000  O
  H35      1.0000 0.27257  0.37209  0.23569  Biso   1.000  H
  H36      1.0000 0.33830  0.34682  0.36932  Biso   1.000  H
  O12      1.0000 0.23113  0.66759  0.38276  Biso   1.000  O
  C37      1.0000 0.60849  0.20907  0.71816  Biso   1.000  C
  N25      1.0000 0.54038  0.12886  0.71141  Biso   1.000  N
  H37      1.0000 0.58576  0.28610  0.72552  Biso   1.000  H
  H38      1.0000 0.63991  0.20778  0.66272  Biso   1.000  H
  N26      1.0000 0.66489  0.18570  0.79127  Biso   1.000  N
  C38      1.0000 0.46000  0.15732  0.73301  Biso   1.000  C
  C39      1.0000 0.54570  0.02156  0.66118  Biso   1.000  C
  C40      1.0000 0.66427  0.24832  0.86898  Biso   1.000  C
  C41      1.0000 0.73601  0.10902  0.78618  Biso   1.000  C
  N27      1.0000 0.40942  0.06917  0.70633  Biso   1.000  N
  O13      1.0000 0.43727  0.24677  0.76819  Biso   1.000  O
  C42      1.0000 0.45430  0.97844  0.66118  Biso   1.000  C
  H39      1.0000 0.56667  0.03424  0.60039  Biso   1.000  H
  N28      1.0000 0.59058  0.93083  0.70633  Biso   1.000  N
  N29      1.0000 0.73019  0.21563  0.91928  Biso   1.000  N
  O14      1.0000 0.61287  0.32224  0.88777  Biso   1.000  O
  N30      1.0000 0.71491  0.98784  0.78819  Biso   1.000  N
  C43      1.0000 0.78027  0.12782  0.87727  Biso   1.000  C
  H40      1.0000 0.77257  0.12791  0.73569  Biso   1.000  H
  C44      1.0000 0.31889  0.07383  0.71489  Biso   1.000  C
  H41      1.0000 0.43327  0.96576  0.60039  Biso   1.000  H
  N31      1.0000 0.45962  0.87114  0.71141  Biso   1.000  N
  C45      1.0000 0.54000  0.84268  0.73301  Biso   1.000  C
  C46      1.0000 0.68111  0.92617  0.71489  Biso   1.000  C
  C47      1.0000 0.75366  0.27480  0.00000  Biso   1.000  C
  C48      1.0000 0.73989  0.93479  0.86477  Biso   1.000  C
  H42      1.0000 0.83830  0.15318  0.86932  Biso   1.000  H
  N32      1.0000 0.77614  0.01501  0.91941  Biso   1.000  N
  H43      1.0000 0.30230  0.15396  0.72017  Biso   1.000  H
  H44      1.0000 0.29429  0.04390  0.66031  Biso   1.000  H
  N33      1.0000 0.28509  0.01216  0.78819  Biso   1.000  N
  C49      1.0000 0.39151  0.79093  0.71816  Biso   1.000  C
  O15      1.0000 0.56273  0.75323  0.76819  Biso   1.000  O
  H45      1.0000 0.69770  0.84604  0.72017  Biso   1.000  H
  H46      1.0000 0.70571  0.95610  0.66031  Biso   1.000  H
  H47      1.0000 0.72781  0.35053  0.00000  Biso   1.000  H
  H48      1.0000 0.81389  0.28584  0.00000  Biso   1.000  H
  N34      1.0000 0.73019  0.21563  0.08072  Biso   1.000  N
  O16      1.0000 0.73106  0.83241  0.88276  Biso   1.000  O
  C50      1.0000 0.81927  0.98473  0.00000  Biso   1.000  C
  C51      1.0000 0.26011  0.06521  0.86477  Biso   1.000  C
  C52      1.0000 0.26399  0.89098  0.78618  Biso   1.000  C
  N35      1.0000 0.33511  0.81430  0.79127  Biso   1.000  N
  H49      1.0000 0.41417  0.71390  0.72552  Biso   1.000  H
  H50      1.0000 0.36009  0.79222  0.66272  Biso   1.000  H
  C53      1.0000 0.78027  0.12782  0.12273  Biso   1.000  C
  C54      1.0000 0.66427  0.24832  0.13102  Biso   1.000  C
  H51      1.0000 0.82897  0.90210  0.00000  Biso   1.000  H
  H52      1.0000 0.87348  0.02234  0.00000  Biso   1.000  H
  N36      1.0000 0.77614  0.01501  0.08059  Biso   1.000  N
  O17      1.0000 0.26887  0.16759  0.88276  Biso   1.000  O
  N37      1.0000 0.22386  0.98499  0.91941  Biso   1.000  N
  C55      1.0000 0.21967  0.87218  0.87727  Biso   1.000  C
  H53      1.0000 0.22737  0.87209  0.73569  Biso   1.000  H
  C56      1.0000 0.33567  0.75168  0.86898  Biso   1.000  C
  H54      1.0000 0.83830  0.15318  0.13068  Biso   1.000  H
  C57      1.0000 0.73601  0.10902  0.21382  Biso   1.000  C
  N38      1.0000 0.66489  0.18570  0.20867  Biso   1.000  N
  O18      1.0000 0.61287  0.32224  0.11223  Biso   1.000  O
  C58      1.0000 0.73989  0.93479  0.13517  Biso   1.000  C
  C59      1.0000 0.18067  0.01527  0.00000  Biso   1.000  C
  H55      1.0000 0.16170  0.84682  0.86932  Biso   1.000  H
  N39      1.0000 0.26981  0.78437  0.91928  Biso   1.000  N
  O19      1.0000 0.38713  0.67776  0.88777  Biso   1.000  O
  N40      1.0000 0.71491  0.98784  0.21181  Biso   1.000  N
  H56      1.0000 0.77257  0.12791  0.26431  Biso   1.000  H
  C60      1.0000 0.60849  0.20907  0.28177  Biso   1.000  C
  O20      1.0000 0.73106  0.83241  0.11724  Biso   1.000  O
  H57      1.0000 0.12652  0.97766  0.00000  Biso   1.000  H
  N41      1.0000 0.22386  0.98499  0.08059  Biso   1.000  N
  H58      1.0000 0.17097  0.09790  0.00000  Biso   1.000  H
  C61      1.0000 0.24628  0.72520  0.00000  Biso   1.000  C
  C62      1.0000 0.68111  0.92617  0.28511  Biso   1.000  C
  N42      1.0000 0.54038  0.12886  0.28859  Biso   1.000  N
  H59      1.0000 0.58576  0.28610  0.27448  Biso   1.000  H
  H60      1.0000 0.63991  0.20778  0.33728  Biso   1.000  H
  C63      1.0000 0.21967  0.87218  0.12273  Biso   1.000  C
  C64      1.0000 0.26011  0.06521  0.13517  Biso   1.000  C
  H61      1.0000 0.27219  0.64947  0.00000  Biso   1.000  H
  H62      1.0000 0.18611  0.71416  0.00000  Biso   1.000  H
  N43      1.0000 0.26981  0.78437  0.08072  Biso   1.000  N
  N44      1.0000 0.59058  0.93083  0.29367  Biso   1.000  N
  H63      1.0000 0.69770  0.84604  0.27983  Biso   1.000  H
  H64      1.0000 0.70571  0.95610  0.33969  Biso   1.000  H
  C65      1.0000 0.46000  0.15732  0.26699  Biso   1.000  C
  C66      1.0000 0.54570  0.02156  0.33882  Biso   1.000  C
  H65      1.0000 0.16170  0.84682  0.13068  Biso   1.000  H
  C67      1.0000 0.26399  0.89098  0.21382  Biso   1.000  C
  N45      1.0000 0.28509  0.01216  0.21181  Biso   1.000  N
  O21      1.0000 0.26887  0.16759  0.11724  Biso   1.000  O
  C68      1.0000 0.33567  0.75168  0.13102  Biso   1.000  C
  C69      1.0000 0.54000  0.84268  0.26699  Biso   1.000  C
  N46      1.0000 0.40942  0.06917  0.29367  Biso   1.000  N
  O22      1.0000 0.43727  0.24677  0.23181  Biso   1.000  O
  C70      1.0000 0.45430  0.97844  0.33882  Biso   1.000  C
  H66      1.0000 0.56667  0.03424  0.39961  Biso   1.000  H
  H67      1.0000 0.22737  0.87209  0.26431  Biso   1.000  H
  N47      1.0000 0.33511  0.81430  0.20867  Biso   1.000  N
  C71      1.0000 0.31889  0.07383  0.28511  Biso   1.000  C
  O23      1.0000 0.38713  0.67776  0.11223  Biso   1.000  O
  N48      1.0000 0.45962  0.87114  0.28859  Biso   1.000  N
  O24      1.0000 0.56273  0.75323  0.23181  Biso   1.000  O
  H68      1.0000 0.43327  0.96576  0.39961  Biso   1.000  H
  C72      1.0000 0.39151  0.79093  0.28177  Biso   1.000  C
  H69      1.0000 0.30230  0.15396  0.27983  Biso   1.000  H
  H70      1.0000 0.29429  0.04390  0.33969  Biso   1.000  H
  H71      1.0000 0.41417  0.71390  0.27448  Biso   1.000  H
  H72      1.0000 0.36009  0.79222  0.33728  Biso   1.000  H
  Ne1      1.0000 0.49999  0.00000  0.99999  Biso   1.000  Ne
  He1      1.0000 0.43732  0.25371  1.00000  Biso   1.000  He
  He2      1.0000 0.56209  0.74863  0.00000  Biso   1.000  He
  Ar1      1.0000 0.49998  0.99998  0.00000  Biso   1.000  Ar
  Ne2      1.0000 0.99999  0.50000  0.50000  Biso   1.000  Ne
  He3      1.0000 0.93540  0.23816  0.50000  Biso   1.000  He
  He4      1.0000 0.06392  0.75908  0.50000  Biso   1.000  He
  Ar2      1.0000 0.99998  0.50001  0.50000  Biso   1.000  Ar
