data_image0
_cell_length_a       11.94
_cell_length_b       21.186
_cell_length_c       23.606
_cell_angle_alpha    89.29
_cell_angle_beta     87.83
_cell_angle_gamma    81.84

_symmetry_space_group_name_H-M    "P 1"
_symmetry_int_tables_number       1

loop_
  _symmetry_equiv_pos_as_xyz
  'x, y, z'

loop_
  _atom_site_label
  _atom_site_occupancy
  _atom_site_fract_x
  _atom_site_fract_y
  _atom_site_fract_z
  _atom_site_thermal_displace_type
  _atom_site_B_iso_or_equiv
  _atom_site_type_symbol
  C1       1.0000 0.48358  0.58237  0.48867  Biso   1.000  C
  C2       1.0000 0.48074  0.57623  0.55281  Biso   1.000  C
  H1       1.0000 0.42372  0.56023  0.47332  Biso   1.000  H
  H2       1.0000 0.55757  0.56156  0.47311  Biso   1.000  H
  C3       1.0000 0.46527  0.65195  0.47014  Biso   1.000  C
  C4       1.0000 0.37946  0.57541  0.58393  Biso   1.000  C
  C5       1.0000 0.57895  0.57285  0.58257  Biso   1.000  C
  C6       1.0000 0.55585  0.68686  0.46285  Biso   1.000  C
  C7       1.0000 0.35646  0.68319  0.46256  Biso   1.000  C
  O1       1.0000 0.28341  0.57628  0.55285  Biso   1.000  O
  C8       1.0000 0.37727  0.57428  0.64277  Biso   1.000  C
  C9       1.0000 0.57798  0.57085  0.64146  Biso   1.000  C
  H3       1.0000 0.64924  0.57187  0.56210  Biso   1.000  H
  O2       1.0000 0.66192  0.65394  0.47120  Biso   1.000  O
  C10      1.0000 0.53581  0.75130  0.44886  Biso   1.000  C
  C11      1.0000 0.33653  0.74772  0.44903  Biso   1.000  C
  H4       1.0000 0.29427  0.65984  0.46671  Biso   1.000  H
  C12      1.0000 0.18596  0.55742  0.57994  Biso   1.000  C
  H5       1.0000 0.30698  0.57497  0.66312  Biso   1.000  H
  C13      1.0000 0.47623  0.57223  0.67253  Biso   1.000  C
  O3       1.0000 0.67508  0.56856  0.67215  Biso   1.000  O
  C14      1.0000 0.75707  0.68632  0.45950  Biso   1.000  C
  H6       1.0000 0.59808  0.77433  0.44361  Biso   1.000  H
  C15      1.0000 0.42674  0.78292  0.44238  Biso   1.000  C
  O4       1.0000 0.23009  0.78135  0.44212  Biso   1.000  O
  C16      1.0000 0.10303  0.55034  0.53458  Biso   1.000  C
  H7       1.0000 0.15240  0.58996  0.60780  Biso   1.000  H
  H8       1.0000 0.20576  0.51635  0.60021  Biso   1.000  H
  C17      1.0000 0.47114  0.57295  0.73684  Biso   1.000  C
  C18      1.0000 0.78060  0.56236  0.64163  Biso   1.000  C
  H9       1.0000 0.75315  0.72422  0.48401  Biso   1.000  H
  H10      1.0000 0.75875  0.70056  0.41940  Biso   1.000  H
  C19      1.0000 0.86086  0.63983  0.47137  Biso   1.000  C
  C20      1.0000 0.40603  0.85401  0.43059  Biso   1.000  C
  C21      1.0000 0.13636  0.74674  0.44123  Biso   1.000  C
  H11      1.0000 0.13841  0.51934  0.50652  Biso   1.000  H
  H12      1.0000 0.08154  0.59164  0.51601  Biso   1.000  H
  H13      1.0000 0.03549  0.53542  0.55179  Biso   1.000  H
  C22      1.0000 0.45464  0.63956  0.76122  Biso   1.000  C
  H14      1.0000 0.40806  0.55057  0.75079  Biso   1.000  H
  H15      1.0000 0.54234  0.54914  0.75079  Biso   1.000  H
  H16      1.0000 0.77821  0.59517  0.61132  Biso   1.000  H
  H17      1.0000 0.79618  0.51983  0.62369  Biso   1.000  H
  C23      1.0000 0.87136  0.57016  0.68076  Biso   1.000  C
  H18      1.0000 0.86314  0.60235  0.44721  Biso   1.000  H
  H19      1.0000 0.85851  0.62663  0.51131  Biso   1.000  H
  H20      1.0000 0.92853  0.66016  0.46340  Biso   1.000  H
  H21      1.0000 0.33826  0.86393  0.40749  Biso   1.000  H
  H22      1.0000 0.47160  0.86635  0.40821  Biso   1.000  H
  C24      1.0000 0.38896  0.89311  0.48456  Biso   1.000  C
  H23      1.0000 0.12969  0.72266  0.47710  Biso   1.000  H
  H24      1.0000 0.14611  0.71614  0.40939  Biso   1.000  H
  C25      1.0000 0.03284  0.79481  0.43386  Biso   1.000  C
  C26      1.0000 0.54713  0.67140  0.76889  Biso   1.000  C
  C27      1.0000 0.34729  0.67153  0.77635  Biso   1.000  C
  H25      1.0000 0.94421  0.56618  0.65960  Biso   1.000  H
  H26      1.0000 0.87424  0.53726  0.71039  Biso   1.000  H
  H27      1.0000 0.85582  0.61236  0.69822  Biso   1.000  H
  C28      1.0000 0.48066  0.91303  0.51055  Biso   1.000  C
  C29      1.0000 0.28115  0.90941  0.50940  Biso   1.000  C
  H28      1.0000 0.04067  0.81822  0.39820  Biso   1.000  H
  H29      1.0000 0.02427  0.82474  0.46561  Biso   1.000  H
  H30      1.0000 0.96591  0.77284  0.43301  Biso   1.000  H
  C30      1.0000 0.53413  0.73293  0.79039  Biso   1.000  C
  H31      1.0000 0.62103  0.65055  0.75923  Biso   1.000  H
  O5       1.0000 0.25721  0.63880  0.76749  Biso   1.000  O
  C31      1.0000 0.33471  0.73254  0.79853  Biso   1.000  C
  O6       1.0000 0.58537  0.89482  0.48541  Biso   1.000  O
  C32      1.0000 0.46284  0.95041  0.55904  Biso   1.000  C
  C33      1.0000 0.26483  0.94516  0.55909  Biso   1.000  C
  H32      1.0000 0.21779  0.89605  0.49232  Biso   1.000  H
  O7       1.0000 0.62325  0.76654  0.79806  Biso   1.000  O
  C34      1.0000 0.42711  0.76414  0.80599  Biso   1.000  C
  C35      1.0000 0.14661  0.66913  0.78458  Biso   1.000  C
  H33      1.0000 0.26115  0.75315  0.80891  Biso   1.000  H
  C36      1.0000 0.68127  0.91100  0.51377  Biso   1.000  C
  H34      1.0000 0.52578  0.96496  0.57562  Biso   1.000  H
  C37      1.0000 0.35570  0.96680  0.58367  Biso   1.000  C
  O8       1.0000 0.16003  0.96231  0.58567  Biso   1.000  O
  C38      1.0000 0.73464  0.73637  0.78428  Biso   1.000  C
  C39      1.0000 0.41018  0.83157  0.82884  Biso   1.000  C
  H35      1.0000 0.13086  0.71176  0.76660  Biso   1.000  H
  H36      1.0000 0.14075  0.67438  0.82621  Biso   1.000  H
  C40      1.0000 0.06415  0.62732  0.76601  Biso   1.000  C
  H37      1.0000 0.68228  0.89366  0.55290  Biso   1.000  H
  H38      1.0000 0.67742  0.95795  0.51572  Biso   1.000  H
  C41      1.0000 0.78530  0.88284  0.48083  Biso   1.000  C
  C42      1.0000 0.34044  0.00724  0.63684  Biso   1.000  C
  C43      1.0000 0.06390  0.95763  0.55642  Biso   1.000  C
  C44      1.0000 0.06524  0.93286  0.56481  Biso   1.000  C
  H39      1.0000 0.74105  0.72324  0.74401  Biso   1.000  H
  H40      1.0000 0.75366  0.69798  0.80819  Biso   1.000  H
  C45      1.0000 0.81380  0.78406  0.79488  Biso   1.000  C
  C46      1.0000 0.38985  0.88096  0.78212  Biso   1.000  C
  H41      1.0000 0.34467  0.83679  0.85622  Biso   1.000  H
  H42      1.0000 0.47805  0.83866  0.84931  Biso   1.000  H
  H43      1.0000 0.07288  0.62116  0.72489  Biso   1.000  H
  H44      1.0000 0.07875  0.58587  0.78530  Biso   1.000  H
  H45      1.0000 0.98682  0.64746  0.77572  Biso   1.000  H
  H46      1.0000 0.78226  0.89946  0.44191  Biso   1.000  H
  H47      1.0000 0.78942  0.83636  0.48032  Biso   1.000  H
  H48      1.0000 0.85226  0.89434  0.49859  Biso   1.000  H
  C47      1.0000 0.35856  0.96615  0.68966  Biso   1.000  C
  H49      1.0000 0.39522  0.03830  0.63523  Biso   1.000  H
  H50      1.0000 0.26328  0.03145  0.63862  Biso   1.000  H
  H51      1.0000 0.05661  0.91223  0.55031  Biso   1.000  H
  H52      1.0000 0.06784  0.97905  0.51902  Biso   1.000  H
  H53      1.0000 0.05247  0.94463  0.52462  Biso   1.000  H
  C48      1.0000 0.96385  0.98934  0.59139  Biso   1.000  C
  C49      1.0000 0.96228  0.95793  0.60169  Biso   1.000  C
  H54      1.0000 0.08146  0.88587  0.56782  Biso   1.000  H
  H55      1.0000 0.79684  0.82074  0.76940  Biso   1.000  H
  H56      1.0000 0.89224  0.76405  0.78772  Biso   1.000  H
  H57      1.0000 0.80383  0.79829  0.83431  Biso   1.000  H
  C50      1.0000 0.47961  0.90791  0.75774  Biso   1.000  C
  C51      1.0000 0.28195  0.89987  0.76135  Biso   1.000  C
  C52      1.0000 0.46514  0.95080  0.71272  Biso   1.000  C
  C53      1.0000 0.26813  0.94029  0.71493  Biso   1.000  C
  H58      1.0000 0.96435  0.97006  0.62942  Biso   1.000  H
  H59      1.0000 0.89364  0.98353  0.57320  Biso   1.000  H
  H60      1.0000 0.89378  0.94816  0.58401  Biso   1.000  H
  H61      1.0000 0.96854  0.03495  0.59449  Biso   1.000  H
  H62      1.0000 0.96835  0.93766  0.63913  Biso   1.000  H
  H63      1.0000 0.95794  0.00425  0.60559  Biso   1.000  H
  H64      1.0000 0.55302  0.89678  0.77220  Biso   1.000  H
  O9       1.0000 0.19299  0.87656  0.78967  Biso   1.000  O
  O10      1.0000 0.55084  0.97947  0.68758  Biso   1.000  O
  H65      1.0000 0.19503  0.95067  0.69992  Biso   1.000  H
  C54      1.0000 0.08053  0.90817  0.77932  Biso   1.000  C
  C55      1.0000 0.65526  0.97434  0.71518  Biso   1.000  C
  H66      1.0000 0.05328  0.89219  0.74392  Biso   1.000  H
  H67      1.0000 0.08127  0.95469  0.77512  Biso   1.000  H
  C56      1.0000 0.00503  0.89524  0.82769  Biso   1.000  C
  H68      1.0000 0.69598  0.93035  0.71192  Biso   1.000  H
  H69      1.0000 0.64171  0.98446  0.75592  Biso   1.000  H
  C57      1.0000 0.72430  0.02081  0.68707  Biso   1.000  C
  H70      1.0000 0.02815  0.91499  0.86190  Biso   1.000  H
  H71      1.0000 0.00985  0.84908  0.83363  Biso   1.000  H
  H72      1.0000 0.92685  0.91309  0.81972  Biso   1.000  H
  H73      1.0000 0.73290  0.01208  0.64642  Biso   1.000  H
  H74      1.0000 0.79916  0.01630  0.70361  Biso   1.000  H
  H75      1.0000 0.68583  0.06440  0.69301  Biso   1.000  H
  C58      1.0000 0.51631  0.41773  0.51135  Biso   1.000  C
  C59      1.0000 0.51915  0.42387  0.44721  Biso   1.000  C
  H76      1.0000 0.57618  0.43983  0.52670  Biso   1.000  H
  H77      1.0000 0.44232  0.43854  0.52691  Biso   1.000  H
  C60      1.0000 0.53463  0.34816  0.52983  Biso   1.000  C
  C61      1.0000 0.42094  0.42725  0.41745  Biso   1.000  C
  C62      1.0000 0.62044  0.42469  0.41609  Biso   1.000  C
  C63      1.0000 0.44405  0.31324  0.53717  Biso   1.000  C
  C64      1.0000 0.64344  0.31691  0.53747  Biso   1.000  C
  C65      1.0000 0.42201  0.42920  0.35856  Biso   1.000  C
  H78      1.0000 0.35066  0.42823  0.43788  Biso   1.000  H
  C66      1.0000 0.62263  0.42583  0.35725  Biso   1.000  C
  O11      1.0000 0.71649  0.42382  0.44717  Biso   1.000  O
  O12      1.0000 0.33797  0.34616  0.52882  Biso   1.000  O
  C67      1.0000 0.46418  0.24876  0.55112  Biso   1.000  C
  C68      1.0000 0.66336  0.25238  0.55099  Biso   1.000  C
  H79      1.0000 0.70562  0.34026  0.53331  Biso   1.000  H
  C69      1.0000 0.52367  0.42788  0.32749  Biso   1.000  C
  O13      1.0000 0.32481  0.43154  0.32787  Biso   1.000  O
  H80      1.0000 0.69300  0.42513  0.33690  Biso   1.000  H
  C70      1.0000 0.81393  0.44268  0.42008  Biso   1.000  C
  C71      1.0000 0.24282  0.31379  0.54048  Biso   1.000  C
  H81      1.0000 0.40183  0.22573  0.55642  Biso   1.000  H
  C72      1.0000 0.57317  0.21714  0.55765  Biso   1.000  C
  O14      1.0000 0.76982  0.21871  0.55790  Biso   1.000  O
  C73      1.0000 0.52875  0.42715  0.26314  Biso   1.000  C
  C74      1.0000 0.21929  0.43774  0.35835  Biso   1.000  C
  H82      1.0000 0.84758  0.41015  0.39218  Biso   1.000  H
  H83      1.0000 0.79413  0.48376  0.39981  Biso   1.000  H
  C75      1.0000 0.89686  0.44976  0.46544  Biso   1.000  C
  H84      1.0000 0.24676  0.27583  0.51601  Biso   1.000  H
  H85      1.0000 0.24114  0.29954  0.58062  Biso   1.000  H
  C76      1.0000 0.13904  0.36028  0.52861  Biso   1.000  C
  C77      1.0000 0.59386  0.14609  0.56943  Biso   1.000  C
  C78      1.0000 0.86354  0.25337  0.55879  Biso   1.000  C
  C79      1.0000 0.54526  0.36054  0.23880  Biso   1.000  C
  H86      1.0000 0.59183  0.44953  0.24919  Biso   1.000  H
  H87      1.0000 0.45757  0.45091  0.24919  Biso   1.000  H
  H88      1.0000 0.22168  0.40493  0.38871  Biso   1.000  H
  H89      1.0000 0.20382  0.48022  0.37629  Biso   1.000  H
  C80      1.0000 0.12854  0.42994  0.31927  Biso   1.000  C
  H90      1.0000 0.86158  0.48072  0.49350  Biso   1.000  H
  H91      1.0000 0.91835  0.40846  0.48401  Biso   1.000  H
  H92      1.0000 0.96442  0.46463  0.44818  Biso   1.000  H
  H93      1.0000 0.13675  0.39775  0.55281  Biso   1.000  H
  H94      1.0000 0.14140  0.37342  0.48871  Biso   1.000  H
  H95      1.0000 0.07137  0.33995  0.53662  Biso   1.000  H
  C81      1.0000 0.61093  0.10699  0.51546  Biso   1.000  C
  H96      1.0000 0.66165  0.13613  0.59249  Biso   1.000  H
  H97      1.0000 0.52838  0.13375  0.59181  Biso   1.000  H
  H98      1.0000 0.87021  0.27745  0.52292  Biso   1.000  H
  H99      1.0000 0.85387  0.28396  0.59058  Biso   1.000  H
  C82      1.0000 0.96706  0.20529  0.56612  Biso   1.000  C
  C83      1.0000 0.45276  0.32870  0.23113  Biso   1.000  C
  C84      1.0000 0.65270  0.32852  0.22367  Biso   1.000  C
  H100     1.0000 0.05568  0.43392  0.34042  Biso   1.000  H
  H101     1.0000 0.12566  0.46284  0.28959  Biso   1.000  H
  H102     1.0000 0.14408  0.38774  0.30180  Biso   1.000  H
  C85      1.0000 0.51924  0.08708  0.48943  Biso   1.000  C
  C86      1.0000 0.71874  0.09069  0.49062  Biso   1.000  C
  H103     1.0000 0.95924  0.18183  0.60182  Biso   1.000  H
  H104     1.0000 0.97563  0.17536  0.53441  Biso   1.000  H
  H105     1.0000 0.03398  0.22727  0.56701  Biso   1.000  H
  C87      1.0000 0.46578  0.26712  0.20964  Biso   1.000  C
  H106     1.0000 0.37887  0.34951  0.24080  Biso   1.000  H
  C88      1.0000 0.66518  0.26757  0.20150  Biso   1.000  C
  O15      1.0000 0.74269  0.36130  0.23253  Biso   1.000  O
  C89      1.0000 0.53705  0.04970  0.44094  Biso   1.000  C
  O16      1.0000 0.41453  0.10528  0.51457  Biso   1.000  O
  C90      1.0000 0.73506  0.05494  0.44094  Biso   1.000  C
  H107     1.0000 0.78219  0.10405  0.50771  Biso   1.000  H
  O17      1.0000 0.37665  0.23357  0.20192  Biso   1.000  O
  C91      1.0000 0.57278  0.23596  0.19404  Biso   1.000  C
  H108     1.0000 0.73875  0.24691  0.19111  Biso   1.000  H
  C92      1.0000 0.85328  0.33097  0.21544  Biso   1.000  C
  C93      1.0000 0.64430  0.03325  0.41630  Biso   1.000  C
  H109     1.0000 0.47420  0.03514  0.42440  Biso   1.000  H
  C94      1.0000 0.31863  0.08910  0.48621  Biso   1.000  C
  O18      1.0000 0.83987  0.03780  0.41431  Biso   1.000  O
  C95      1.0000 0.26525  0.26373  0.21574  Biso   1.000  C
  C96      1.0000 0.58980  0.16853  0.17119  Biso   1.000  C
  H110     1.0000 0.86904  0.28834  0.23342  Biso   1.000  H
  H111     1.0000 0.85914  0.32572  0.17381  Biso   1.000  H
  C97      1.0000 0.93575  0.37278  0.23401  Biso   1.000  C
  C98      1.0000 0.65945  0.99286  0.36314  Biso   1.000  C
  H112     1.0000 0.31770  0.10644  0.44708  Biso   1.000  H
  H113     1.0000 0.32248  0.04215  0.48430  Biso   1.000  H
  C99      1.0000 0.21470  0.11721  0.51919  Biso   1.000  C
  C100     1.0000 0.93609  0.04243  0.44361  Biso   1.000  C
  C101     1.0000 0.93466  0.06724  0.43521  Biso   1.000  C
  H114     1.0000 0.25886  0.27681  0.25601  Biso   1.000  H
  H115     1.0000 0.24632  0.30212  0.19179  Biso   1.000  H
  C102     1.0000 0.18610  0.21604  0.20514  Biso   1.000  C
  C103     1.0000 0.61006  0.11909  0.21790  Biso   1.000  C
  H116     1.0000 0.65531  0.16331  0.14380  Biso   1.000  H
  H117     1.0000 0.52186  0.16140  0.15071  Biso   1.000  H
  H118     1.0000 0.92702  0.37894  0.27509  Biso   1.000  H
  H119     1.0000 0.92115  0.41423  0.21468  Biso   1.000  H
  H120     1.0000 0.01307  0.35264  0.22430  Biso   1.000  H
  C104     1.0000 0.64133  0.03395  0.31032  Biso   1.000  C
  H121     1.0000 0.60467  0.96180  0.36480  Biso   1.000  H
  H122     1.0000 0.73672  0.96860  0.36141  Biso   1.000  H
  H123     1.0000 0.21763  0.10064  0.55811  Biso   1.000  H
  H124     1.0000 0.21047  0.16375  0.51970  Biso   1.000  H
  H125     1.0000 0.14765  0.10572  0.50139  Biso   1.000  H
  H126     1.0000 0.94338  0.08782  0.44971  Biso   1.000  H
  H127     1.0000 0.93206  0.02105  0.48100  Biso   1.000  H
  H128     1.0000 0.94744  0.05543  0.47540  Biso   1.000  H
  C105     1.0000 0.03606  0.01071  0.40859  Biso   1.000  C
  C106     1.0000 0.03772  0.04212  0.39829  Biso   1.000  C
  H129     1.0000 0.91844  0.11423  0.43220  Biso   1.000  H
  H130     1.0000 0.20307  0.17931  0.23062  Biso   1.000  H
  H131     1.0000 0.10767  0.23601  0.21231  Biso   1.000  H
  H132     1.0000 0.19606  0.20181  0.16572  Biso   1.000  H
  C107     1.0000 0.52030  0.09215  0.24228  Biso   1.000  C
  C108     1.0000 0.71796  0.10019  0.23868  Biso   1.000  C
  C109     1.0000 0.53476  0.04925  0.28730  Biso   1.000  C
  C110     1.0000 0.73177  0.05981  0.28505  Biso   1.000  C
  H133     1.0000 0.03136  0.96510  0.40549  Biso   1.000  H
  H134     1.0000 0.03555  0.03004  0.37060  Biso   1.000  H
  H135     1.0000 0.10626  0.01653  0.42682  Biso   1.000  H
  H136     1.0000 0.04197  0.99580  0.39439  Biso   1.000  H
  H137     1.0000 0.03154  0.06245  0.36090  Biso   1.000  H
  H138     1.0000 0.10619  0.05195  0.41601  Biso   1.000  H
  H139     1.0000 0.44687  0.10332  0.22782  Biso   1.000  H
  O19      1.0000 0.80691  0.12354  0.21036  Biso   1.000  O
  O20      1.0000 0.44905  0.02063  0.31244  Biso   1.000  O
  H140     1.0000 0.80487  0.04944  0.30010  Biso   1.000  H
  C111     1.0000 0.91938  0.09189  0.22066  Biso   1.000  C
  C112     1.0000 0.34464  0.02577  0.28480  Biso   1.000  C
  H141     1.0000 0.94670  0.10792  0.25610  Biso   1.000  H
  H142     1.0000 0.91863  0.04541  0.22490  Biso   1.000  H
  C113     1.0000 0.99486  0.10486  0.17233  Biso   1.000  C
  H143     1.0000 0.30401  0.06970  0.28811  Biso   1.000  H
  H144     1.0000 0.35820  0.01560  0.24410  Biso   1.000  H
  C114     1.0000 0.27559  0.97929  0.31291  Biso   1.000  C
  H145     1.0000 0.97174  0.08511  0.13812  Biso   1.000  H
  H146     1.0000 0.99004  0.15102  0.16639  Biso   1.000  H
  H147     1.0000 0.07305  0.08701  0.18030  Biso   1.000  H
  H148     1.0000 0.26700  0.98802  0.35360  Biso   1.000  H
  H149     1.0000 0.20082  0.98381  0.29642  Biso   1.000  H
  H150     1.0000 0.31406  0.93570  0.30701  Biso   1.000  H
  C115     1.0000 0.63309  0.59887  0.33902  Biso   1.000  C
  C116     1.0000 0.70970  0.57944  0.28836  Biso   1.000  C
  H151     1.0000 0.66844  0.58062  0.37349  Biso   1.000  H
  H152     1.0000 0.62030  0.64553  0.34169  Biso   1.000  H
  H153     1.0000 0.56048  0.58312  0.33491  Biso   1.000  H
  O21      1.0000 0.81444  0.60241  0.29659  Biso   1.000  O
  H154     1.0000 0.67523  0.59803  0.25330  Biso   1.000  H
  H155     1.0000 0.72206  0.53241  0.28480  Biso   1.000  H
  C117     1.0000 0.90298  0.58416  0.25822  Biso   1.000  C
  C118     1.0000 0.89130  0.55065  0.20917  Biso   1.000  C
  C119     1.0000 0.00720  0.60180  0.27119  Biso   1.000  C
  C120     1.0000 0.98368  0.53230  0.17246  Biso   1.000  C
  H156     1.0000 0.81914  0.54014  0.20052  Biso   1.000  H
  C121     1.0000 0.09965  0.58191  0.23528  Biso   1.000  C
  C122     1.0000 0.01772  0.64450  0.32147  Biso   1.000  C
  C123     1.0000 0.96839  0.49941  0.11705  Biso   1.000  C
  C124     1.0000 0.08846  0.54697  0.18683  Biso   1.000  C
  H157     1.0000 0.17201  0.59234  0.24389  Biso   1.000  H
  H158     1.0000 0.96222  0.63601  0.35191  Biso   1.000  H
  C125     1.0000 0.99669  0.71430  0.30489  Biso   1.000  C
  H159     1.0000 0.09445  0.63432  0.33652  Biso   1.000  H
  C126     1.0000 0.95036  0.54658  0.06834  Biso   1.000  C
  H160     1.0000 0.90228  0.47601  0.12120  Biso   1.000  H
  H161     1.0000 0.03619  0.46791  0.10832  Biso   1.000  H
  O22      1.0000 0.18175  0.52780  0.15075  Biso   1.000  O
  C127     1.0000 0.88703  0.74627  0.30176  Biso   1.000  C
  C128     1.0000 0.08628  0.74794  0.29048  Biso   1.000  C
  C129     1.0000 0.84237  0.57373  0.05350  Biso   1.000  C
  C130     1.0000 0.04258  0.56352  0.03692  Biso   1.000  C
  C131     1.0000 0.24287  0.46692  0.16669  Biso   1.000  C
  C132     1.0000 0.28026  0.49540  0.17119  Biso   1.000  C
  H162     1.0000 0.82529  0.72431  0.31210  Biso   1.000  H
  C133     1.0000 0.86523  0.80955  0.28391  Biso   1.000  C
  O23      1.0000 0.19318  0.71386  0.29396  Biso   1.000  O
  C134     1.0000 0.06507  0.81154  0.27369  Biso   1.000  C
  O24      1.0000 0.75396  0.55635  0.08699  Biso   1.000  O
  C135     1.0000 0.82777  0.61549  0.00742  Biso   1.000  C
  C136     1.0000 0.02867  0.60594  0.99169  Biso   1.000  C
  H163     1.0000 0.11696  0.54561  0.04680  Biso   1.000  H
  C137     1.0000 0.33560  0.45006  0.12260  Biso   1.000  C
  H164     1.0000 0.27521  0.46963  0.20451  Biso   1.000  H
  H165     1.0000 0.19157  0.43401  0.16839  Biso   1.000  H
  H166     1.0000 0.26366  0.47033  0.20540  Biso   1.000  H
  H167     1.0000 0.33208  0.52570  0.18140  Biso   1.000  H
  O25      1.0000 0.75833  0.84293  0.27827  Biso   1.000  O
  C138     1.0000 0.95560  0.84333  0.26988  Biso   1.000  C
  C139     1.0000 0.28815  0.74776  0.28853  Biso   1.000  C
  H168     1.0000 0.12706  0.83383  0.26462  Biso   1.000  H
  C140     1.0000 0.64190  0.58339  0.07427  Biso   1.000  C
  C141     1.0000 0.92002  0.63195  0.97613  Biso   1.000  C
  H169     1.0000 0.75342  0.63302  0.99733  Biso   1.000  H
  O26      1.0000 0.11716  0.62408  0.95905  Biso   1.000  O
  H170     1.0000 0.38746  0.48192  0.12252  Biso   1.000  H
  H171     1.0000 0.37707  0.40789  0.13121  Biso   1.000  H
  H172     1.0000 0.30268  0.44922  0.08521  Biso   1.000  H
  H173     1.0000 0.35507  0.47560  0.08979  Biso   1.000  H
  H174     1.0000 0.40423  0.42430  0.13608  Biso   1.000  H
  H175     1.0000 0.28178  0.42192  0.11158  Biso   1.000  H
  C142     1.0000 0.66373  0.81213  0.29527  Biso   1.000  C
  C143     1.0000 0.93410  0.91290  0.25139  Biso   1.000  C
  H176     1.0000 0.29150  0.76771  0.25050  Biso   1.000  H
  H177     1.0000 0.28207  0.78163  0.31740  Biso   1.000  H
  C144     1.0000 0.39219  0.70030  0.29692  Biso   1.000  C
  C145     1.0000 0.56531  0.56289  0.12137  Biso   1.000  C
  H178     1.0000 0.63544  0.63052  0.07249  Biso   1.000  H
  H179     1.0000 0.62112  0.56781  0.03731  Biso   1.000  H
  C146     1.0000 0.90248  0.67784  0.92619  Biso   1.000  C
  C147     1.0000 0.22943  0.59584  0.97185  Biso   1.000  C
  H180     1.0000 0.66818  0.77061  0.27590  Biso   1.000  H
  H181     1.0000 0.66310  0.80431  0.33669  Biso   1.000  H
  C148     1.0000 0.55826  0.85517  0.27942  Biso   1.000  C
  C149     1.0000 0.91579  0.92218  0.18844  Biso   1.000  C
  H182     1.0000 0.99940  0.93395  0.26148  Biso   1.000  H
  H183     1.0000 0.86632  0.93424  0.27272  Biso   1.000  H
  H184     1.0000 0.38930  0.68211  0.33521  Biso   1.000  H
  H185     1.0000 0.39560  0.66614  0.26899  Biso   1.000  H
  H186     1.0000 0.45955  0.72160  0.29201  Biso   1.000  H
  H187     1.0000 0.58270  0.58163  0.15720  Biso   1.000  H
  H188     1.0000 0.48615  0.57750  0.11268  Biso   1.000  H
  H189     1.0000 0.57737  0.51633  0.12481  Biso   1.000  H
  C150     1.0000 0.89179  0.74684  0.94434  Biso   1.000  C
  H190     1.0000 0.83298  0.67089  0.90695  Biso   1.000  H
  H191     1.0000 0.96723  0.66872  0.89864  Biso   1.000  H
  H192     1.0000 0.23622  0.54879  0.97011  Biso   1.000  H
  C151     1.0000 0.30863  0.62022  0.92831  Biso   1.000  C
  H193     1.0000 0.24799  0.60779  0.01039  Biso   1.000  H
  H194     1.0000 0.55650  0.89675  0.29739  Biso   1.000  H
  H195     1.0000 0.55786  0.86075  0.23808  Biso   1.000  H
  H196     1.0000 0.49160  0.83604  0.29230  Biso   1.000  H
  C152     1.0000 0.80754  0.93517  0.16767  Biso   1.000  C
  C153     1.0000 0.00806  0.91886  0.14952  Biso   1.000  C
  C154     1.0000 0.78629  0.78114  0.95947  Biso   1.000  C
  C155     1.0000 0.98732  0.77714  0.94790  Biso   1.000  C
  H197     1.0000 0.38692  0.60290  0.93641  Biso   1.000  H
  H198     1.0000 0.29105  0.60679  0.89054  Biso   1.000  H
  H199     1.0000 0.29945  0.66689  0.92963  Biso   1.000  H
  C156     1.0000 0.78960  0.94240  0.10993  Biso   1.000  C
  H200     1.0000 0.74419  0.93921  0.19361  Biso   1.000  H
  C157     1.0000 0.98967  0.92619  0.09195  Biso   1.000  C
  O27      1.0000 0.11443  0.90824  0.17178  Biso   1.000  O
  O28      1.0000 0.69486  0.74847  0.95489  Biso   1.000  O
  C158     1.0000 0.77841  0.84375  0.97821  Biso   1.000  C
  C159     1.0000 0.97914  0.83993  0.96685  Biso   1.000  C
  H201     1.0000 0.05952  0.75471  0.93722  Biso   1.000  H
  C160     1.0000 0.88138  0.93704  0.07109  Biso   1.000  C
  O29      1.0000 0.68330  0.95412  0.08754  Biso   1.000  O
  H202     1.0000 0.05303  0.92373  0.06609  Biso   1.000  H
  C161     1.0000 0.20957  0.90527  0.13261  Biso   1.000  C
  C162     1.0000 0.58465  0.78089  0.96770  Biso   1.000  C
  C163     1.0000 0.87427  0.87342  0.98292  Biso   1.000  C
  H203     1.0000 0.70609  0.86660  0.98805  Biso   1.000  H
  O30      1.0000 0.07057  0.87232  0.97126  Biso   1.000  O
  C164     1.0000 0.86477  0.94007  0.00755  Biso   1.000  C
  C165     1.0000 0.59080  0.97924  0.12443  Biso   1.000  C
  H204     1.0000 0.20624  0.87173  0.10412  Biso   1.000  H
  H205     1.0000 0.20920  0.94663  0.11251  Biso   1.000  H
  C166     1.0000 0.31489  0.89022  0.16589  Biso   1.000  C
  H206     1.0000 0.57862  0.79531  0.00750  Biso   1.000  H
  H207     1.0000 0.56792  0.81852  0.94251  Biso   1.000  H
  C167     1.0000 0.50314  0.73419  0.95837  Biso   1.000  C
  C168     1.0000 0.18000  0.84166  0.95290  Biso   1.000  C
  H208     1.0000 0.78908  0.96388  0.99992  Biso   1.000  H
  H209     1.0000 0.92252  0.96340  0.98894  Biso   1.000  H
  H210     1.0000 0.57009  0.94561  0.15058  Biso   1.000  H
  H211     1.0000 0.61180  0.01444  0.14719  Biso   1.000  H
  C169     1.0000 0.49295  0.00342  0.08809  Biso   1.000  C
  H212     1.0000 0.31788  0.92400  0.19348  Biso   1.000  H
  H213     1.0000 0.31395  0.84943  0.18581  Biso   1.000  H
  H214     1.0000 0.38154  0.88733  0.13998  Biso   1.000  H
  H215     1.0000 0.52112  0.69698  0.98313  Biso   1.000  H
  H216     1.0000 0.42564  0.75462  0.96714  Biso   1.000  H
  H217     1.0000 0.50955  0.72048  0.91873  Biso   1.000  H
  H218     1.0000 0.20123  0.80200  0.97495  Biso   1.000  H
  H219     1.0000 0.18061  0.83068  0.91225  Biso   1.000  H
  C170     1.0000 0.26114  0.88836  0.96265  Biso   1.000  C
  H220     1.0000 0.47168  0.96793  0.06660  Biso   1.000  H
  H221     1.0000 0.42850  0.02202  0.11230  Biso   1.000  H
  H222     1.0000 0.51511  0.03601  0.06181  Biso   1.000  H
  H223     1.0000 0.33812  0.86899  0.95154  Biso   1.000  H
  H224     1.0000 0.23999  0.92688  0.93993  Biso   1.000  H
  H225     1.0000 0.25811  0.89939  0.00288  Biso   1.000  H
  C171     1.0000 0.36682  0.40118  0.66100  Biso   1.000  C
  C172     1.0000 0.29028  0.42066  0.71166  Biso   1.000  C
  H226     1.0000 0.33147  0.41943  0.62649  Biso   1.000  H
  H227     1.0000 0.37968  0.35457  0.65829  Biso   1.000  H
  H228     1.0000 0.43941  0.41698  0.66511  Biso   1.000  H
  O31      1.0000 0.18547  0.39765  0.70339  Biso   1.000  O
  H229     1.0000 0.32466  0.40207  0.74672  Biso   1.000  H
  H230     1.0000 0.27784  0.46765  0.71522  Biso   1.000  H
  C173     1.0000 0.09693  0.41589  0.74180  Biso   1.000  C
  C174     1.0000 0.10869  0.44940  0.79085  Biso   1.000  C
  C175     1.0000 0.99270  0.39830  0.72883  Biso   1.000  C
  H231     1.0000 0.18075  0.45997  0.79950  Biso   1.000  H
  C176     1.0000 0.01621  0.46780  0.82757  Biso   1.000  C
  C177     1.0000 0.90024  0.41819  0.76474  Biso   1.000  C
  C178     1.0000 0.98227  0.35555  0.67855  Biso   1.000  C
  C179     1.0000 0.03159  0.50069  0.88297  Biso   1.000  C
  C180     1.0000 0.91143  0.45313  0.81319  Biso   1.000  C
  H232     1.0000 0.82797  0.40777  0.75609  Biso   1.000  H
  H233     1.0000 0.03769  0.36404  0.64811  Biso   1.000  H
  C181     1.0000 0.00329  0.28580  0.69509  Biso   1.000  C
  H234     1.0000 0.90546  0.36573  0.66350  Biso   1.000  H
  C182     1.0000 0.04955  0.45348  0.93168  Biso   1.000  C
  H235     1.0000 0.09761  0.52409  0.87882  Biso   1.000  H
  H236     1.0000 0.96370  0.53219  0.89171  Biso   1.000  H
  O32      1.0000 0.81816  0.47225  0.84927  Biso   1.000  O
  C183     1.0000 0.11286  0.25383  0.69826  Biso   1.000  C
  C184     1.0000 0.91361  0.25216  0.70954  Biso   1.000  C
  C185     1.0000 0.15752  0.42637  0.94652  Biso   1.000  C
  C186     1.0000 0.95731  0.43658  0.96305  Biso   1.000  C
  C187     1.0000 0.75702  0.53318  0.83329  Biso   1.000  C
  C188     1.0000 0.71965  0.50465  0.82879  Biso   1.000  C
  H237     1.0000 0.17470  0.27575  0.68792  Biso   1.000  H
  C189     1.0000 0.13467  0.19055  0.71611  Biso   1.000  C
  O33      1.0000 0.80671  0.28624  0.70607  Biso   1.000  O
  C190     1.0000 0.93483  0.18852  0.72633  Biso   1.000  C
  O34      1.0000 0.24595  0.44371  0.91303  Biso   1.000  O
  C191     1.0000 0.17213  0.38461  0.99260  Biso   1.000  C
  H238     1.0000 0.88294  0.45450  0.95322  Biso   1.000  H
  C192     1.0000 0.97132  0.39412  0.00829  Biso   1.000  C
  C193     1.0000 0.66430  0.55004  0.87742  Biso   1.000  C
  H239     1.0000 0.72477  0.53048  0.79552  Biso   1.000  H
  H240     1.0000 0.80832  0.56609  0.83159  Biso   1.000  H
  H241     1.0000 0.73624  0.52977  0.79463  Biso   1.000  H
  H242     1.0000 0.66783  0.47436  0.81862  Biso   1.000  H
  O35      1.0000 0.24156  0.15718  0.72175  Biso   1.000  O
  C194     1.0000 0.04438  0.15678  0.73014  Biso   1.000  C
  C195     1.0000 0.71175  0.25234  0.71149  Biso   1.000  C
  H243     1.0000 0.87284  0.16627  0.73540  Biso   1.000  H
  C196     1.0000 0.35799  0.41671  0.92575  Biso   1.000  C
  C197     1.0000 0.07989  0.36810  0.02389  Biso   1.000  C
  H244     1.0000 0.24648  0.36708  0.00269  Biso   1.000  H
  O36      1.0000 0.88273  0.37602  0.04097  Biso   1.000  O
  H245     1.0000 0.61243  0.51819  0.87750  Biso   1.000  H
  H246     1.0000 0.62284  0.59217  0.86881  Biso   1.000  H
  H247     1.0000 0.69721  0.55089  0.91481  Biso   1.000  H
  H248     1.0000 0.64484  0.52446  0.91019  Biso   1.000  H
  H249     1.0000 0.59577  0.57575  0.86390  Biso   1.000  H
  H250     1.0000 0.71811  0.57818  0.88840  Biso   1.000  H
  C198     1.0000 0.33617  0.18797  0.70475  Biso   1.000  C
  C199     1.0000 0.06588  0.08720  0.74863  Biso   1.000  C
  H251     1.0000 0.70841  0.23234  0.74952  Biso   1.000  H
  H252     1.0000 0.71783  0.21848  0.68262  Biso   1.000  H
  C200     1.0000 0.60771  0.29980  0.70310  Biso   1.000  C
  C201     1.0000 0.43468  0.43716  0.87865  Biso   1.000  C
  H253     1.0000 0.36445  0.36959  0.92753  Biso   1.000  H
  H254     1.0000 0.37886  0.43230  0.96272  Biso   1.000  H
  C202     1.0000 0.09741  0.32226  0.07383  Biso   1.000  C
  C203     1.0000 0.77047  0.40426  0.02813  Biso   1.000  C
  H255     1.0000 0.33172  0.22945  0.72412  Biso   1.000  H
  H256     1.0000 0.33689  0.19574  0.66329  Biso   1.000  H
  C204     1.0000 0.44163  0.14493  0.72061  Biso   1.000  C
  H257     1.0000 0.00058  0.06616  0.73850  Biso   1.000  H
  H258     1.0000 0.13357  0.06587  0.72730  Biso   1.000  H
  C205     1.0000 0.08411  0.07792  0.81158  Biso   1.000  C
  H259     1.0000 0.61061  0.31794  0.66482  Biso   1.000  H
  H260     1.0000 0.60439  0.33396  0.73099  Biso   1.000  H
  H261     1.0000 0.54035  0.27845  0.70802  Biso   1.000  H
  H262     1.0000 0.41728  0.41847  0.84283  Biso   1.000  H
  H263     1.0000 0.51374  0.42260  0.88730  Biso   1.000  H
  H264     1.0000 0.42252  0.48378  0.87522  Biso   1.000  H
  C206     1.0000 0.10811  0.25326  0.05568  Biso   1.000  C
  H265     1.0000 0.16692  0.32921  0.09308  Biso   1.000  H
  H266     1.0000 0.03275  0.33139  0.10139  Biso   1.000  H
  H267     1.0000 0.75192  0.39227  0.98959  Biso   1.000  H
  H268     1.0000 0.76368  0.45131  0.02987  Biso   1.000  H
  C207     1.0000 0.69128  0.37983  0.07171  Biso   1.000  C
  H269     1.0000 0.44349  0.10335  0.70259  Biso   1.000  H
  H270     1.0000 0.44204  0.13936  0.76190  Biso   1.000  H
  H271     1.0000 0.50838  0.16406  0.70772  Biso   1.000  H
  C208     1.0000 0.19237  0.06488  0.83236  Biso   1.000  C
  C209     1.0000 0.99184  0.08124  0.85046  Biso   1.000  C
  C210     1.0000 0.21361  0.21896  0.04055  Biso   1.000  C
  C211     1.0000 0.01257  0.22297  0.05212  Biso   1.000  C
  H272     1.0000 0.61297  0.39721  0.06357  Biso   1.000  H
  H273     1.0000 0.70893  0.39331  0.10948  Biso   1.000  H
  H274     1.0000 0.70052  0.33321  0.07040  Biso   1.000  H
  H275     1.0000 0.25571  0.06085  0.80641  Biso   1.000  H
  C212     1.0000 0.21039  0.05765  0.89010  Biso   1.000  C
  C213     1.0000 0.01022  0.07391  0.90807  Biso   1.000  C
  O37      1.0000 0.88555  0.09186  0.82820  Biso   1.000  O
  O38      1.0000 0.30504  0.25163  0.04509  Biso   1.000  O
  C214     1.0000 0.22149  0.15636  0.02177  Biso   1.000  C
  H276     1.0000 0.94038  0.24539  0.06276  Biso   1.000  H
  C215     1.0000 0.02085  0.16013  0.03317  Biso   1.000  C
  O39      1.0000 0.31659  0.04598  0.91248  Biso   1.000  O
  C216     1.0000 0.11851  0.06306  0.92893  Biso   1.000  C
  H277     1.0000 0.94695  0.07638  0.93389  Biso   1.000  H
  C217     1.0000 0.79034  0.09479  0.86742  Biso   1.000  C
  C218     1.0000 0.41533  0.21921  0.03233  Biso   1.000  C
  C219     1.0000 0.12562  0.12669  0.01711  Biso   1.000  C
  H278     1.0000 0.29380  0.13350  0.01198  Biso   1.000  H
  O40      1.0000 0.92941  0.12779  0.02876  Biso   1.000  O
  C220     1.0000 0.40911  0.02081  0.87560  Biso   1.000  C
  C221     1.0000 0.13512  0.06003  0.99248  Biso   1.000  C
  H279     1.0000 0.79365  0.12837  0.89590  Biso   1.000  H
  H280     1.0000 0.79070  0.05348  0.88751  Biso   1.000  H
  C222     1.0000 0.68501  0.10988  0.83414  Biso   1.000  C
  H281     1.0000 0.42136  0.20480  0.99252  Biso   1.000  H
  H282     1.0000 0.43197  0.18158  0.05747  Biso   1.000  H
  C223     1.0000 0.49684  0.26592  0.04165  Biso   1.000  C
  C224     1.0000 0.81990  0.15844  0.04712  Biso   1.000  C
  H283     1.0000 0.42982  0.05445  0.84940  Biso   1.000  H
  H284     1.0000 0.38818  0.98566  0.85279  Biso   1.000  H
  C225     1.0000 0.50694  0.99668  0.91193  Biso   1.000  C
  H285     1.0000 0.21083  0.03618  0.00006  Biso   1.000  H
  H286     1.0000 0.07738  0.03671  0.01109  Biso   1.000  H
  H287     1.0000 0.68203  0.07606  0.80650  Biso   1.000  H
  H288     1.0000 0.68594  0.15067  0.81421  Biso   1.000  H
  H289     1.0000 0.61836  0.11278  0.86000  Biso   1.000  H
  H290     1.0000 0.47879  0.30307  0.01689  Biso   1.000  H
  H291     1.0000 0.57434  0.24548  0.03288  Biso   1.000  H
  H292     1.0000 0.49044  0.27957  0.08129  Biso   1.000  H
  H293     1.0000 0.79866  0.19810  0.02508  Biso   1.000  H
  H294     1.0000 0.81930  0.16937  0.08778  Biso   1.000  H
  C226     1.0000 0.73876  0.11174  0.03733  Biso   1.000  C
  H295     1.0000 0.52822  0.03218  0.93342  Biso   1.000  H
  H296     1.0000 0.57149  0.97804  0.88772  Biso   1.000  H
  H297     1.0000 0.48488  0.96405  0.93821  Biso   1.000  H
  H298     1.0000 0.74180  0.10067  0.99710  Biso   1.000  H
  H299     1.0000 0.66177  0.13111  0.04848  Biso   1.000  H
  H300     1.0000 0.75992  0.07318  0.06009  Biso   1.000  H
  Ne1      1.0000 0.59067  0.22381  0.37610  Biso   1.000  Ne
  He1      1.0000 0.23784  0.23903  0.38631  Biso   1.000  He
  He2      1.0000 0.89498  0.25522  0.36955  Biso   1.000  He
  Ar1      1.0000 0.58677  0.23006  0.37396  Biso   1.000  Ar
  Ne2      1.0000 0.94366  0.72866  0.12613  Biso   1.000  Ne
  He3      1.0000 0.63001  0.76249  0.13722  Biso   1.000  He
  He4      1.0000 0.26043  0.71048  0.11887  Biso   1.000  He
  Ar2      1.0000 0.94573  0.73368  0.12375  Biso   1.000  Ar
  Ne3      1.0000 0.40924  0.77628  0.62390  Biso   1.000  Ne
  He5      1.0000 0.05985  0.74513  0.63184  Biso   1.000  He
  He6      1.0000 0.73695  0.75986  0.61389  Biso   1.000  He
  Ar3      1.0000 0.41324  0.77052  0.62639  Biso   1.000  Ar
  Ne4      1.0000 0.05626  0.27143  0.87388  Biso   1.000  Ne
  He7      1.0000 0.88742  0.27662  0.88359  Biso   1.000  He
  He8      1.0000 0.42545  0.23925  0.86161  Biso   1.000  He
  Ar4      1.0000 0.05059  0.26703  0.87563  Biso   1.000  Ar
