data_image0
_cell_length_a       19.668
_cell_length_b       21.624
_cell_length_c       22.829
_cell_angle_alpha    89.77
_cell_angle_beta     71.39
_cell_angle_gamma    84.83

_symmetry_space_group_name_H-M    "P 1"
_symmetry_int_tables_number       1

loop_
  _symmetry_equiv_pos_as_xyz
  'x, y, z'

loop_
  _atom_site_label
  _atom_site_occupancy
  _atom_site_fract_x
  _atom_site_fract_y
  _atom_site_fract_z
  _atom_site_thermal_displace_type
  _atom_site_B_iso_or_equiv
  _atom_site_type_symbol
  C1       1.0000 0.54983  0.52784  0.54046  Biso   1.000  C
  C2       1.0000 0.49771  0.50282  0.59012  Biso   1.000  C
  C3       1.0000 0.61858  0.49630  0.51702  Biso   1.000  C
  C4       1.0000 0.53346  0.58648  0.51406  Biso   1.000  C
  C5       1.0000 0.51685  0.44741  0.61629  Biso   1.000  C
  O1       1.0000 0.43041  0.53083  0.61361  Biso   1.000  O
  C6       1.0000 0.63803  0.44089  0.54152  Biso   1.000  C
  H1       1.0000 0.65324  0.51323  0.48317  Biso   1.000  H
  H2       1.0000 0.57001  0.60294  0.48128  Biso   1.000  H
  N1       1.0000 0.47087  0.61650  0.53403  Biso   1.000  N
  C7       1.0000 0.46189  0.42156  0.66766  Biso   1.000  C
  C8       1.0000 0.58622  0.41760  0.59127  Biso   1.000  C
  H3       1.0000 0.42633  0.56305  0.59377  Biso   1.000  H
  C9       1.0000 0.71133  0.40641  0.51387  Biso   1.000  C
  C10      1.0000 0.45992  0.67727  0.51262  Biso   1.000  C
  N2       1.0000 0.47620  0.37306  0.69526  Biso   1.000  N
  H4       1.0000 0.41423  0.44145  0.68079  Biso   1.000  H
  H5       1.0000 0.59841  0.38003  0.60889  Biso   1.000  H
  H6       1.0000 0.74423  0.43422  0.48747  Biso   1.000  H
  H7       1.0000 0.72991  0.39182  0.54707  Biso   1.000  H
  H8       1.0000 0.70772  0.37075  0.48909  Biso   1.000  H
  C11      1.0000 0.40625  0.71772  0.55336  Biso   1.000  C
  C12      1.0000 0.50242  0.69849  0.45603  Biso   1.000  C
  C13      1.0000 0.41935  0.35159  0.74385  Biso   1.000  C
  C14      1.0000 0.40126  0.78005  0.53986  Biso   1.000  C
  H9       1.0000 0.37372  0.70252  0.58979  Biso   1.000  H
  H10      1.0000 0.53511  0.67004  0.42658  Biso   1.000  H
  C15      1.0000 0.49686  0.76110  0.44276  Biso   1.000  C
  C16      1.0000 0.36609  0.39142  0.78584  Biso   1.000  C
  C17      1.0000 0.41777  0.28740  0.75005  Biso   1.000  C
  C18      1.0000 0.35360  0.83161  0.58295  Biso   1.000  C
  C19      1.0000 0.44825  0.80221  0.48572  Biso   1.000  C
  H11      1.0000 0.52624  0.77570  0.40457  Biso   1.000  H
  C20      1.0000 0.31208  0.36678  0.83212  Biso   1.000  C
  H12      1.0000 0.36712  0.43517  0.78246  Biso   1.000  H
  C21      1.0000 0.36254  0.26279  0.79606  Biso   1.000  C
  H13      1.0000 0.45478  0.26025  0.72259  Biso   1.000  H
  C22      1.0000 0.31635  0.87336  0.54592  Biso   1.000  C
  C23      1.0000 0.40614  0.87250  0.59627  Biso   1.000  C
  H14      1.0000 0.31925  0.81572  0.62119  Biso   1.000  H
  C24      1.0000 0.44264  0.87268  0.48326  Biso   1.000  C
  C25      1.0000 0.24930  0.40316  0.88058  Biso   1.000  C
  C26      1.0000 0.31043  0.30215  0.83767  Biso   1.000  C
  H15      1.0000 0.36073  0.21903  0.79878  Biso   1.000  H
  C27      1.0000 0.24345  0.89336  0.56321  Biso   1.000  C
  C28      1.0000 0.36441  0.89439  0.49140  Biso   1.000  C
  C29      1.0000 0.45465  0.89449  0.54259  Biso   1.000  C
  C30      1.0000 0.40827  0.88767  0.65411  Biso   1.000  C
  H16      1.0000 0.47712  0.88844  0.44498  Biso   1.000  H
  C31      1.0000 0.18170  0.37889  0.87258  Biso   1.000  C
  C32      1.0000 0.25545  0.38036  0.94239  Biso   1.000  C
  H17      1.0000 0.24992  0.44916  0.87646  Biso   1.000  H
  C33      1.0000 0.24752  0.28361  0.89181  Biso   1.000  C
  C34      1.0000 0.21878  0.93491  0.52589  Biso   1.000  C
  H18      1.0000 0.21086  0.87891  0.59987  Biso   1.000  H
  C35      1.0000 0.33842  0.93257  0.45293  Biso   1.000  C
  C36      1.0000 0.50681  0.93088  0.54730  Biso   1.000  C
  C37      1.0000 0.46034  0.92556  0.65919  Biso   1.000  C
  H19      1.0000 0.37493  0.87265  0.69008  Biso   1.000  H
  C38      1.0000 0.12942  0.41263  0.85399  Biso   1.000  C
  C39      1.0000 0.18074  0.31448  0.87937  Biso   1.000  C
  C40      1.0000 0.25389  0.31602  0.94831  Biso   1.000  C
  C41      1.0000 0.26775  0.41651  0.98724  Biso   1.000  C
  H20      1.0000 0.24688  0.23756  0.89597  Biso   1.000  H
  N3       1.0000 0.14467  0.95680  0.54772  Biso   1.000  N
  C42      1.0000 0.26577  0.95275  0.46962  Biso   1.000  C
  H21      1.0000 0.37052  0.94504  0.41497  Biso   1.000  H
  H22      1.0000 0.54023  0.94562  0.51119  Biso   1.000  H
  C43      1.0000 0.50988  0.94583  0.60556  Biso   1.000  C
  N4       1.0000 0.46882  0.94178  0.71611  Biso   1.000  N
  C44      1.0000 0.07684  0.38191  0.84067  Biso   1.000  C
  H23      1.0000 0.12941  0.45646  0.85038  Biso   1.000  H
  C45      1.0000 0.12556  0.28449  0.87068  Biso   1.000  C
  C46      1.0000 0.26413  0.28762  0.99991  Biso   1.000  C
  H24      1.0000 0.26863  0.46014  0.98308  Biso   1.000  H
  C47      1.0000 0.27891  0.38751  0.03926  Biso   1.000  C
  C48      1.0000 0.12124  0.00997  0.53195  Biso   1.000  C
  H25      1.0000 0.24791  0.97851  0.44299  Biso   1.000  H
  H26      1.0000 0.54633  0.97034  0.60889  Biso   1.000  H
  C49      1.0000 0.41460  0.94622  0.76508  Biso   1.000  C
  N5       1.0000 0.02810  0.41569  0.81497  Biso   1.000  N
  C50      1.0000 0.07331  0.31788  0.85140  Biso   1.000  C
  H27      1.0000 0.12341  0.24127  0.87789  Biso   1.000  H
  H28      1.0000 0.26201  0.24400  0.00454  Biso   1.000  H
  C51      1.0000 0.27747  0.32344  0.04490  Biso   1.000  C
  N6       1.0000 0.29704  0.42066  0.08480  Biso   1.000  N
  C52      1.0000 0.04536  0.03005  0.55040  Biso   1.000  C
  H29      1.0000 0.15486  0.03645  0.50768  Biso   1.000  H
  C53      1.0000 0.42365  0.96034  0.82486  Biso   1.000  C
  H30      1.0000 0.36810  0.94046  0.76300  Biso   1.000  H
  C54      1.0000 0.01508  0.38873  0.77002  Biso   1.000  C
  H31      1.0000 0.03510  0.29757  0.84539  Biso   1.000  H
  H32      1.0000 0.28577  0.30402  0.07972  Biso   1.000  H
  C55      1.0000 0.26721  0.47517  0.10066  Biso   1.000  C
  C56      1.0000 0.99408  0.99172  0.58665  Biso   1.000  C
  C57      1.0000 0.02134  0.08591  0.52932  Biso   1.000  C
  C58      1.0000 0.36456  0.96451  0.87937  Biso   1.000  C
  C59      1.0000 0.49118  0.97142  0.82791  Biso   1.000  C
  H33      1.0000 0.03922  0.34894  0.75588  Biso   1.000  H
  C60      1.0000 0.96533  0.41617  0.73997  Biso   1.000  C
  C61      1.0000 0.28550  0.51372  0.14528  Biso   1.000  C
  H34      1.0000 0.23189  0.49161  0.08305  Biso   1.000  H
  C62      1.0000 0.92060  0.01048  0.60061  Biso   1.000  C
  O2       1.0000 0.01438  0.93730  0.60778  Biso   1.000  O
  C63      1.0000 0.94854  0.10570  0.54393  Biso   1.000  C
  H35      1.0000 0.05582  0.11112  0.50430  Biso   1.000  H
  C64      1.0000 0.37510  0.97840  0.93587  Biso   1.000  C
  O3       1.0000 0.29890  0.95500  0.87632  Biso   1.000  O
  H36      1.0000 0.53096  0.96896  0.79078  Biso   1.000  H
  C65      1.0000 0.50285  0.98592  0.88284  Biso   1.000  C
  C66      1.0000 0.92789  0.47560  0.75736  Biso   1.000  C
  C67      1.0000 0.95338  0.38183  0.69304  Biso   1.000  C
  C68      1.0000 0.24832  0.57280  0.16179  Biso   1.000  C
  C69      1.0000 0.33695  0.49272  0.17274  Biso   1.000  C
  C70      1.0000 0.86898  0.96742  0.63358  Biso   1.000  C
  C71      1.0000 0.89913  0.06735  0.57925  Biso   1.000  C
  H37      1.0000 0.05952  0.93214  0.59710  Biso   1.000  H
  C72      1.0000 0.92436  0.16656  0.52030  Biso   1.000  C
  C73      1.0000 0.31570  0.98261  0.99353  Biso   1.000  C
  C74      1.0000 0.44391  0.98872  0.93661  Biso   1.000  C
  H38      1.0000 0.26852  0.95887  0.91188  Biso   1.000  H
  C75      1.0000 0.57682  0.99855  0.88293  Biso   1.000  C
  O4       1.0000 0.93780  0.51049  0.80197  Biso   1.000  O
  C76      1.0000 0.87898  0.49844  0.72735  Biso   1.000  C
  H39      1.0000 0.97902  0.34205  0.68139  Biso   1.000  H
  C77      1.0000 0.90558  0.40370  0.66317  Biso   1.000  C
  O5       1.0000 0.19866  0.59295  0.13520  Biso   1.000  O
  C78      1.0000 0.26417  0.60986  0.20599  Biso   1.000  C
  C79      1.0000 0.35347  0.52821  0.21570  Biso   1.000  C
  H40      1.0000 0.36162  0.45253  0.16151  Biso   1.000  H
  N7       1.0000 0.80039  0.97974  0.64676  Biso   1.000  N
  H41      1.0000 0.88672  0.92883  0.64569  Biso   1.000  H
  H42      1.0000 0.84912  0.08001  0.58929  Biso   1.000  H
  H43      1.0000 0.96056  0.17612  0.48137  Biso   1.000  H
  H44      1.0000 0.87825  0.16303  0.51327  Biso   1.000  H
  H45      1.0000 0.91854  0.19983  0.55100  Biso   1.000  H
  N8       1.0000 0.25047  0.97471  0.99672  Biso   1.000  N
  H46      1.0000 0.32540  0.99153  0.03071  Biso   1.000  H
  H47      1.0000 0.45065  0.99795  0.97499  Biso   1.000  H
  H48      1.0000 0.60265  0.95993  0.89038  Biso   1.000  H
  H49      1.0000 0.60351  0.01463  0.84280  Biso   1.000  H
  H50      1.0000 0.57253  0.02927  0.91567  Biso   1.000  H
  H51      1.0000 0.96780  0.49126  0.81617  Biso   1.000  H
  C80      1.0000 0.86858  0.46222  0.68139  Biso   1.000  C
  C81      1.0000 0.83588  0.55851  0.74598  Biso   1.000  C
  C82      1.0000 0.89099  0.36508  0.61421  Biso   1.000  C
  H52      1.0000 0.18091  0.62893  0.14893  Biso   1.000  H
  C83      1.0000 0.31599  0.58705  0.23197  Biso   1.000  C
  C84      1.0000 0.22705  0.67094  0.22425  Biso   1.000  C
  C85      1.0000 0.40981  0.50531  0.24543  Biso   1.000  C
  C86      1.0000 0.75529  0.93568  0.68023  Biso   1.000  C
  C87      1.0000 0.19712  0.97719  0.05595  Biso   1.000  C
  H53      1.0000 0.83501  0.47786  0.66160  Biso   1.000  H
  H54      1.0000 0.83673  0.58035  0.78177  Biso   1.000  H
  N9       1.0000 0.79775  0.58122  0.71436  Biso   1.000  N
  H55      1.0000 0.91918  0.32465  0.60931  Biso   1.000  H
  H56      1.0000 0.83963  0.35905  0.62669  Biso   1.000  H
  H57      1.0000 0.90474  0.38651  0.57477  Biso   1.000  H
  H58      1.0000 0.32633  0.61202  0.26161  Biso   1.000  H
  H59      1.0000 0.24023  0.69555  0.25250  Biso   1.000  H
  N10      1.0000 0.17641  0.69309  0.20321  Biso   1.000  N
  H60      1.0000 0.38800  0.50705  0.29051  Biso   1.000  H
  H61      1.0000 0.42801  0.46241  0.23151  Biso   1.000  H
  H62      1.0000 0.44972  0.53174  0.23341  Biso   1.000  H
  C88      1.0000 0.77430  0.89361  0.72074  Biso   1.000  C
  C89      1.0000 0.68707  0.93582  0.67344  Biso   1.000  C
  C90      1.0000 0.14482  0.93504  0.06677  Biso   1.000  C
  C91      1.0000 0.19788  0.01758  0.10320  Biso   1.000  C
  C92      1.0000 0.75244  0.63717  0.73373  Biso   1.000  C
  C93      1.0000 0.14176  0.75361  0.21991  Biso   1.000  C
  C94      1.0000 0.72639  0.85254  0.75167  Biso   1.000  C
  H63      1.0000 0.81991  0.89354  0.72679  Biso   1.000  H
  C95      1.0000 0.63886  0.89450  0.70525  Biso   1.000  C
  H64      1.0000 0.67344  0.96465  0.64666  Biso   1.000  H
  C96      1.0000 0.09848  0.92967  0.12577  Biso   1.000  C
  H65      1.0000 0.14130  0.91039  0.03371  Biso   1.000  H
  C97      1.0000 0.15033  0.01195  0.16280  Biso   1.000  C
  H66      1.0000 0.23049  0.04870  0.09484  Biso   1.000  H
  C98      1.0000 0.77257  0.68949  0.75777  Biso   1.000  C
  C99      1.0000 0.68473  0.63942  0.72554  Biso   1.000  C
  C100     1.0000 0.10777  0.78093  0.17973  Biso   1.000  C
  C101     1.0000 0.14171  0.78727  0.27252  Biso   1.000  C
  C102     1.0000 0.73917  0.80424  0.79707  Biso   1.000  C
  C103     1.0000 0.65790  0.85315  0.74478  Biso   1.000  C
  H67      1.0000 0.59291  0.89473  0.69979  Biso   1.000  H
  C104     1.0000 0.04651  0.87981  0.14708  Biso   1.000  C
  C105     1.0000 0.10336  0.96644  0.17483  Biso   1.000  C
  H68      1.0000 0.15043  0.03951  0.19512  Biso   1.000  H
  C106     1.0000 0.72487  0.74232  0.77331  Biso   1.000  C
  H69      1.0000 0.81851  0.68865  0.76327  Biso   1.000  H
  H70      1.0000 0.67184  0.60445  0.70779  Biso   1.000  H
  C107     1.0000 0.63631  0.69193  0.74298  Biso   1.000  C
  C108     1.0000 0.07925  0.84174  0.18953  Biso   1.000  C
  H71      1.0000 0.10439  0.75751  0.14583  Biso   1.000  H
  H72      1.0000 0.16121  0.76775  0.30170  Biso   1.000  H
  C109     1.0000 0.11315  0.84904  0.28177  Biso   1.000  C
  C110     1.0000 0.67775  0.82003  0.85736  Biso   1.000  C
  H73      1.0000 0.78802  0.80366  0.80179  Biso   1.000  H
  C111     1.0000 0.61182  0.80614  0.78487  Biso   1.000  C
  C112     1.0000 0.97422  0.91124  0.18930  Biso   1.000  C
  H74      1.0000 0.04163  0.85470  0.11222  Biso   1.000  H
  C113     1.0000 0.05799  0.94572  0.23794  Biso   1.000  C
  C114     1.0000 0.65652  0.74349  0.76660  Biso   1.000  C
  H75      1.0000 0.58974  0.69256  0.73868  Biso   1.000  H
  C115     1.0000 0.08425  0.87709  0.23960  Biso   1.000  C
  H76      1.0000 0.11361  0.87184  0.31714  Biso   1.000  H
  C116     1.0000 0.68516  0.83423  0.91331  Biso   1.000  C
  C117     1.0000 0.60914  0.82051  0.85071  Biso   1.000  C
  H77      1.0000 0.56293  0.80676  0.78010  Biso   1.000  H
  C118     1.0000 0.98104  0.94692  0.23766  Biso   1.000  C
  C119     1.0000 0.90673  0.90379  0.18477  Biso   1.000  C
  H78      1.0000 0.06255  0.97102  0.27280  Biso   1.000  H
  H79      1.0000 0.73184  0.83484  0.91696  Biso   1.000  H
  C120     1.0000 0.62400  0.84776  0.96500  Biso   1.000  C
  C121     1.0000 0.54856  0.83433  0.90143  Biso   1.000  C
  C122     1.0000 0.92070  0.97575  0.28140  Biso   1.000  C
  C123     1.0000 0.84519  0.93263  0.22938  Biso   1.000  C
  H80      1.0000 0.90223  0.87952  0.15194  Biso   1.000  H
  C124     1.0000 0.55574  0.84824  0.95876  Biso   1.000  C
  N11      1.0000 0.63710  0.86148  0.02081  Biso   1.000  N
  H81      1.0000 0.50202  0.83437  0.89736  Biso   1.000  H
  C125     1.0000 0.85288  0.96765  0.27710  Biso   1.000  C
  H82      1.0000 0.92533  0.00075  0.31381  Biso   1.000  H
  N12      1.0000 0.77358  0.92498  0.23151  Biso   1.000  N
  H83      1.0000 0.51401  0.85807  0.99358  Biso   1.000  H
  C126     1.0000 0.58848  0.86074  0.07375  Biso   1.000  C
  H84      1.0000 0.81113  0.98652  0.30762  Biso   1.000  H
  C127     1.0000 0.75959  0.91365  0.18199  Biso   1.000  C
  C128     1.0000 0.60378  0.87639  0.13011  Biso   1.000  C
  H85      1.0000 0.54193  0.84990  0.07643  Biso   1.000  H
  C129     1.0000 0.68656  0.90278  0.18370  Biso   1.000  C
  H86      1.0000 0.79709  0.91222  0.14343  Biso   1.000  H
  C130     1.0000 0.67344  0.88865  0.12845  Biso   1.000  C
  C131     1.0000 0.54766  0.88006  0.18675  Biso   1.000  C
  C132     1.0000 0.62911  0.90624  0.23919  Biso   1.000  C
  O6       1.0000 0.72847  0.88649  0.07477  Biso   1.000  O
  C133     1.0000 0.55960  0.89539  0.24154  Biso   1.000  C
  H87      1.0000 0.50061  0.87192  0.18773  Biso   1.000  H
  H88      1.0000 0.63781  0.91632  0.27641  Biso   1.000  H
  H89      1.0000 0.71361  0.87732  0.04555  Biso   1.000  H
  C134     1.0000 0.49791  0.90180  0.30151  Biso   1.000  C
  H90      1.0000 0.46860  0.86683  0.30503  Biso   1.000  H
  H91      1.0000 0.51701  0.90202  0.33624  Biso   1.000  H
  H92      1.0000 0.46811  0.94082  0.30221  Biso   1.000  H
  C135     1.0000 0.45022  0.47221  0.45955  Biso   1.000  C
  C136     1.0000 0.46659  0.41357  0.48595  Biso   1.000  C
  C137     1.0000 0.50229  0.49724  0.40989  Biso   1.000  C
  C138     1.0000 0.38147  0.50376  0.48299  Biso   1.000  C
  N13      1.0000 0.52918  0.38356  0.46597  Biso   1.000  N
  H93      1.0000 0.43001  0.39711  0.51868  Biso   1.000  H
  O7       1.0000 0.56959  0.46922  0.38640  Biso   1.000  O
  C139     1.0000 0.48315  0.55264  0.38372  Biso   1.000  C
  H94      1.0000 0.34683  0.48682  0.51679  Biso   1.000  H
  C140     1.0000 0.36197  0.55916  0.45848  Biso   1.000  C
  C141     1.0000 0.54013  0.32278  0.48738  Biso   1.000  C
  H95      1.0000 0.57374  0.43701  0.40619  Biso   1.000  H
  C142     1.0000 0.41385  0.58250  0.40869  Biso   1.000  C
  C143     1.0000 0.53818  0.57849  0.33230  Biso   1.000  C
  C144     1.0000 0.28874  0.59364  0.48609  Biso   1.000  C
  C145     1.0000 0.59375  0.28238  0.44665  Biso   1.000  C
  C146     1.0000 0.49765  0.30156  0.54393  Biso   1.000  C
  H96      1.0000 0.40161  0.62002  0.39107  Biso   1.000  H
  H97      1.0000 0.58584  0.55860  0.31917  Biso   1.000  H
  N14      1.0000 0.52387  0.62699  0.30470  Biso   1.000  N
  H98      1.0000 0.25584  0.56583  0.51249  Biso   1.000  H
  H99      1.0000 0.27010  0.60823  0.45289  Biso   1.000  H
  H100     1.0000 0.29235  0.62931  0.51087  Biso   1.000  H
  C147     1.0000 0.59881  0.22000  0.46010  Biso   1.000  C
  H101     1.0000 0.62628  0.29753  0.41021  Biso   1.000  H
  C148     1.0000 0.50315  0.23895  0.55720  Biso   1.000  C
  H102     1.0000 0.46490  0.33001  0.57338  Biso   1.000  H
  C149     1.0000 0.58065  0.64846  0.25615  Biso   1.000  C
  C150     1.0000 0.64642  0.16844  0.41701  Biso   1.000  C
  C151     1.0000 0.55181  0.19784  0.51424  Biso   1.000  C
  H103     1.0000 0.47378  0.22435  0.59539  Biso   1.000  H
  C152     1.0000 0.63391  0.60863  0.21417  Biso   1.000  C
  C153     1.0000 0.58230  0.71265  0.24991  Biso   1.000  C
  C154     1.0000 0.59393  0.12755  0.40369  Biso   1.000  C
  C155     1.0000 0.68370  0.12670  0.45409  Biso   1.000  C
  H104     1.0000 0.68082  0.18433  0.37877  Biso   1.000  H
  C156     1.0000 0.55736  0.12737  0.51674  Biso   1.000  C
  C157     1.0000 0.68793  0.63327  0.16784  Biso   1.000  C
  H105     1.0000 0.63294  0.56493  0.21750  Biso   1.000  H
  H106     1.0000 0.54524  0.73980  0.27737  Biso   1.000  H
  C158     1.0000 0.63748  0.73726  0.20390  Biso   1.000  C
  C159     1.0000 0.59179  0.11242  0.34585  Biso   1.000  C
  C160     1.0000 0.54540  0.10556  0.45742  Biso   1.000  C
  C161     1.0000 0.63559  0.10566  0.50860  Biso   1.000  C
  C162     1.0000 0.75657  0.10674  0.43675  Biso   1.000  C
  H107     1.0000 0.52290  0.11162  0.55498  Biso   1.000  H
  C163     1.0000 0.68959  0.69790  0.16229  Biso   1.000  C
  C164     1.0000 0.75075  0.59689  0.11943  Biso   1.000  C
  H108     1.0000 0.63934  0.78102  0.20118  Biso   1.000  H
  C165     1.0000 0.53967  0.07449  0.34076  Biso   1.000  C
  H109     1.0000 0.62509  0.12740  0.30988  Biso   1.000  H
  C166     1.0000 0.49321  0.06917  0.45266  Biso   1.000  C
  C167     1.0000 0.66160  0.06748  0.54702  Biso   1.000  C
  H110     1.0000 0.78921  0.12114  0.40009  Biso   1.000  H
  C168     1.0000 0.78122  0.06514  0.47411  Biso   1.000  C
  C169     1.0000 0.75248  0.71644  0.10819  Biso   1.000  C
  C170     1.0000 0.74460  0.61969  0.05761  Biso   1.000  C
  H111     1.0000 0.75014  0.55089  0.12350  Biso   1.000  H
  C171     1.0000 0.81830  0.62116  0.12743  Biso   1.000  C
  N15      1.0000 0.53118  0.05827  0.28389  Biso   1.000  N
  C172     1.0000 0.49017  0.05422  0.39444  Biso   1.000  C
  H112     1.0000 0.45977  0.05443  0.48881  Biso   1.000  H
  C173     1.0000 0.73425  0.04731  0.53033  Biso   1.000  C
  H113     1.0000 0.62950  0.05501  0.58499  Biso   1.000  H
  N16      1.0000 0.85538  0.04325  0.45229  Biso   1.000  N
  C174     1.0000 0.74618  0.68403  0.05165  Biso   1.000  C
  H114     1.0000 0.75314  0.76249  0.10399  Biso   1.000  H
  C175     1.0000 0.81926  0.68557  0.12063  Biso   1.000  C
  C176     1.0000 0.73230  0.58354  0.01276  Biso   1.000  C
  C177     1.0000 0.87065  0.58742  0.14597  Biso   1.000  C
  C178     1.0000 0.58547  0.05383  0.23488  Biso   1.000  C
  H115     1.0000 0.45368  0.02971  0.39107  Biso   1.000  H
  H116     1.0000 0.75210  0.02154  0.55697  Biso   1.000  H
  C179     1.0000 0.87878  0.99008  0.46801  Biso   1.000  C
  C180     1.0000 0.73592  0.71244  0.00009  Biso   1.000  C
  C181     1.0000 0.87446  0.71556  0.12928  Biso   1.000  C
  C182     1.0000 0.72111  0.61254  0.96070  Biso   1.000  C
  H117     1.0000 0.73142  0.53991  0.01692  Biso   1.000  H
  H118     1.0000 0.87061  0.54359  0.14958  Biso   1.000  H
  C183     1.0000 0.92318  0.61814  0.15929  Biso   1.000  C
  C184     1.0000 0.57637  0.03972  0.17510  Biso   1.000  C
  H119     1.0000 0.63190  0.05959  0.23701  Biso   1.000  H
  C185     1.0000 0.95471  0.97000  0.44956  Biso   1.000  C
  H120     1.0000 0.84520  0.96365  0.49228  Biso   1.000  H
  C186     1.0000 0.72252  0.67666  0.95510  Biso   1.000  C
  H121     1.0000 0.73804  0.75606  0.99547  Biso   1.000  H
  C187     1.0000 0.92669  0.68217  0.14860  Biso   1.000  C
  H122     1.0000 0.87664  0.75879  0.12211  Biso   1.000  H
  N17      1.0000 0.70298  0.57940  0.91516  Biso   1.000  N
  N18      1.0000 0.97195  0.58437  0.18504  Biso   1.000  N
  C188     1.0000 0.50887  0.02863  0.17209  Biso   1.000  C
  C189     1.0000 0.63546  0.03554  0.12058  Biso   1.000  C
  C190     1.0000 0.97872  0.91414  0.47064  Biso   1.000  C
  C191     1.0000 0.00593  0.00833  0.41331  Biso   1.000  C
  H123     1.0000 0.71425  0.69603  0.92024  Biso   1.000  H
  H124     1.0000 0.96490  0.70248  0.15462  Biso   1.000  H
  C192     1.0000 0.73279  0.52488  0.89934  Biso   1.000  C
  C193     1.0000 0.98497  0.61132  0.22998  Biso   1.000  C
  C194     1.0000 0.49716  0.01414  0.11712  Biso   1.000  C
  H125     1.0000 0.46911  0.03109  0.20917  Biso   1.000  H
  C195     1.0000 0.62490  0.02166  0.06413  Biso   1.000  C
  O8       1.0000 0.70116  0.04505  0.12364  Biso   1.000  O
  H126     1.0000 0.94418  0.88894  0.49570  Biso   1.000  H
  C196     1.0000 0.05146  0.89435  0.45608  Biso   1.000  C
  O9       1.0000 0.98564  0.06275  0.39218  Biso   1.000  O
  C197     1.0000 0.07947  0.98958  0.39935  Biso   1.000  C
  C198     1.0000 0.71451  0.48633  0.85468  Biso   1.000  C
  H127     1.0000 0.76811  0.50845  0.91696  Biso   1.000  H
  H128     1.0000 0.96085  0.65112  0.24408  Biso   1.000  H
  C199     1.0000 0.03474  0.58388  0.25999  Biso   1.000  C
  C200     1.0000 0.42320  0.00150  0.11702  Biso   1.000  C
  C201     1.0000 0.55610  0.01133  0.06334  Biso   1.000  C
  C202     1.0000 0.68430  0.01744  0.00647  Biso   1.000  C
  H129     1.0000 0.73150  0.04118  0.08808  Biso   1.000  H
  C203     1.0000 0.10093  0.93270  0.42071  Biso   1.000  C
  C204     1.0000 0.07571  0.83349  0.47966  Biso   1.000  C
  H130     1.0000 0.94048  0.06791  0.40291  Biso   1.000  H
  C205     1.0000 0.13107  0.03263  0.36642  Biso   1.000  C
  C206     1.0000 0.75170  0.42725  0.83817  Biso   1.000  C
  C207     1.0000 0.66305  0.50734  0.82726  Biso   1.000  C
  C208     1.0000 0.07218  0.52445  0.24260  Biso   1.000  C
  C209     1.0000 0.04664  0.61822  0.30692  Biso   1.000  C
  H131     1.0000 0.39742  0.04013  0.10958  Biso   1.000  H
  H132     1.0000 0.39649  0.98543  0.15720  Biso   1.000  H
  H133     1.0000 0.42749  0.97078  0.08429  Biso   1.000  H
  H134     1.0000 0.54940  0.00210  0.02501  Biso   1.000  H
  N19      1.0000 0.74954  0.02535  0.00324  Biso   1.000  N
  H135     1.0000 0.67462  0.00852  0.96925  Biso   1.000  H
  H136     1.0000 0.15090  0.92004  0.41067  Biso   1.000  H
  H137     1.0000 0.03951  0.82393  0.51859  Biso   1.000  H
  H138     1.0000 0.12182  0.83702  0.48669  Biso   1.000  H
  H139     1.0000 0.08146  0.80023  0.44900  Biso   1.000  H
  H140     1.0000 0.11328  0.07123  0.35431  Biso   1.000  H
  N20      1.0000 0.19963  0.02031  0.35320  Biso   1.000  N
  C210     1.0000 0.73585  0.39019  0.79397  Biso   1.000  C
  O10      1.0000 0.80135  0.40710  0.86476  Biso   1.000  O
  C211     1.0000 0.64655  0.47184  0.78426  Biso   1.000  C
  H141     1.0000 0.63845  0.54752  0.83845  Biso   1.000  H
  C212     1.0000 0.12109  0.50161  0.27261  Biso   1.000  C
  O11      1.0000 0.06227  0.48957  0.19799  Biso   1.000  O
  C213     1.0000 0.09444  0.59635  0.33679  Biso   1.000  C
  H142     1.0000 0.02103  0.65800  0.31862  Biso   1.000  H
  C214     1.0000 0.80288  0.02286  0.94405  Biso   1.000  C
  C215     1.0000 0.24476  0.06437  0.31977  Biso   1.000  C
  C216     1.0000 0.77302  0.32911  0.77571  Biso   1.000  C
  C217     1.0000 0.68401  0.41305  0.76803  Biso   1.000  C
  H143     1.0000 0.81914  0.37112  0.85107  Biso   1.000  H
  C218     1.0000 0.59025  0.49474  0.75458  Biso   1.000  C
  C219     1.0000 0.16417  0.44154  0.25402  Biso   1.000  C
  C220     1.0000 0.13142  0.53783  0.31862  Biso   1.000  C
  H144     1.0000 0.03222  0.50879  0.18379  Biso   1.000  H
  C221     1.0000 0.10901  0.63497  0.38580  Biso   1.000  C
  C222     1.0000 0.80218  0.98247  0.89675  Biso   1.000  C
  C223     1.0000 0.85523  0.06501  0.93323  Biso   1.000  C
  C224     1.0000 0.31300  0.06423  0.32652  Biso   1.000  C
  C225     1.0000 0.22572  0.10644  0.27922  Biso   1.000  C
  N21      1.0000 0.82360  0.30696  0.79674  Biso   1.000  N
  H145     1.0000 0.75983  0.30455  0.74746  Biso   1.000  H
  H146     1.0000 0.67374  0.38803  0.73835  Biso   1.000  H
  H147     1.0000 0.61201  0.49304  0.70945  Biso   1.000  H
  H148     1.0000 0.57206  0.53764  0.76845  Biso   1.000  H
  H149     1.0000 0.55035  0.46831  0.76655  Biso   1.000  H
  N22      1.0000 0.20230  0.41883  0.28565  Biso   1.000  N
  H150     1.0000 0.16334  0.41970  0.21819  Biso   1.000  H
  H151     1.0000 0.16499  0.52224  0.33841  Biso   1.000  H
  H152     1.0000 0.08082  0.67541  0.39070  Biso   1.000  H
  H153     1.0000 0.16043  0.64101  0.37331  Biso   1.000  H
  H154     1.0000 0.09532  0.61354  0.42519  Biso   1.000  H
  H155     1.0000 0.76951  0.95135  0.90517  Biso   1.000  H
  C226     1.0000 0.84968  0.98810  0.83715  Biso   1.000  C
  C227     1.0000 0.90159  0.07038  0.87419  Biso   1.000  C
  H156     1.0000 0.85871  0.08966  0.96625  Biso   1.000  H
  C228     1.0000 0.36119  0.10555  0.29476  Biso   1.000  C
  H157     1.0000 0.32658  0.03540  0.35329  Biso   1.000  H
  H158     1.0000 0.18009  0.10652  0.27321  Biso   1.000  H
  C229     1.0000 0.27366  0.14751  0.24834  Biso   1.000  C
  C230     1.0000 0.85824  0.24644  0.78010  Biso   1.000  C
  C231     1.0000 0.24763  0.36288  0.26623  Biso   1.000  C
  H159     1.0000 0.84964  0.96055  0.80484  Biso   1.000  H
  C232     1.0000 0.89669  0.03361  0.82518  Biso   1.000  C
  C233     1.0000 0.95349  0.12024  0.85292  Biso   1.000  C
  C234     1.0000 0.34211  0.14690  0.25518  Biso   1.000  C
  H160     1.0000 0.40709  0.10532  0.30021  Biso   1.000  H
  C235     1.0000 0.26083  0.19582  0.20293  Biso   1.000  C
  C236     1.0000 0.89225  0.21912  0.82023  Biso   1.000  C
  C237     1.0000 0.85834  0.21278  0.72748  Biso   1.000  C
  C238     1.0000 0.22745  0.31057  0.24219  Biso   1.000  C
  C239     1.0000 0.31527  0.36064  0.27446  Biso   1.000  C
  C240     1.0000 0.94208  0.05433  0.76202  Biso   1.000  C
  C241     1.0000 0.92076  0.15832  0.81043  Biso   1.000  C
  H161     1.0000 0.95844  0.14535  0.88774  Biso   1.000  H
  C242     1.0000 0.02580  0.08881  0.81066  Biso   1.000  C
  C243     1.0000 0.38820  0.19391  0.21509  Biso   1.000  C
  C244     1.0000 0.32225  0.18002  0.14264  Biso   1.000  C
  H162     1.0000 0.21198  0.19643  0.19822  Biso   1.000  H
  C245     1.0000 0.27515  0.25773  0.22665  Biso   1.000  C
  H163     1.0000 0.89561  0.24254  0.85417  Biso   1.000  H
  C246     1.0000 0.88691  0.15101  0.71819  Biso   1.000  C
  H164     1.0000 0.83880  0.23230  0.69826  Biso   1.000  H
  H165     1.0000 0.18151  0.31140  0.23669  Biso   1.000  H
  C247     1.0000 0.36374  0.30812  0.25703  Biso   1.000  C
  H166     1.0000 0.32821  0.39560  0.29222  Biso   1.000  H
  C248     1.0000 0.91580  0.12296  0.76040  Biso   1.000  C
  H167     1.0000 0.93752  0.02903  0.72716  Biso   1.000  H
  C249     1.0000 0.01896  0.05313  0.76234  Biso   1.000  C
  C250     1.0000 0.09329  0.09627  0.81519  Biso   1.000  C
  C251     1.0000 0.39093  0.17954  0.14925  Biso   1.000  C
  H168     1.0000 0.43712  0.19329  0.21990  Biso   1.000  H
  C252     1.0000 0.34350  0.25656  0.23336  Biso   1.000  C
  C253     1.0000 0.31484  0.16582  0.08669  Biso   1.000  C
  H169     1.0000 0.88639  0.12821  0.68286  Biso   1.000  H
  H170     1.0000 0.41033  0.30749  0.26128  Biso   1.000  H
  C254     1.0000 0.07937  0.02430  0.71856  Biso   1.000  C
  C255     1.0000 0.15486  0.06742  0.77062  Biso   1.000  C
  H171     1.0000 0.09782  0.12053  0.84807  Biso   1.000  H
  C256     1.0000 0.45146  0.16572  0.09853  Biso   1.000  C
  C257     1.0000 0.37605  0.15230  0.03500  Biso   1.000  C
  H172     1.0000 0.26822  0.16521  0.08299  Biso   1.000  H
  H173     1.0000 0.07473  0.99930  0.68615  Biso   1.000  H
  C258     1.0000 0.14714  0.03240  0.72286  Biso   1.000  C
  N23      1.0000 0.22644  0.07507  0.76845  Biso   1.000  N
  C259     1.0000 0.44433  0.15181  0.04120  Biso   1.000  C
  H174     1.0000 0.49800  0.16568  0.10260  Biso   1.000  H
  N24      1.0000 0.36297  0.13857  0.97915  Biso   1.000  N
  H175     1.0000 0.18894  0.01354  0.69234  Biso   1.000  H
  C260     1.0000 0.24047  0.08640  0.81801  Biso   1.000  C
  H176     1.0000 0.48601  0.14198  0.00638  Biso   1.000  H
  C261     1.0000 0.41154  0.13931  0.92621  Biso   1.000  C
  C262     1.0000 0.31346  0.09727  0.81626  Biso   1.000  C
  H177     1.0000 0.20291  0.08784  0.85657  Biso   1.000  H
  C263     1.0000 0.39622  0.12366  0.86989  Biso   1.000  C
  H178     1.0000 0.45812  0.15015  0.92357  Biso   1.000  H
  C264     1.0000 0.32662  0.11140  0.87151  Biso   1.000  C
  C265     1.0000 0.37089  0.09381  0.76082  Biso   1.000  C
  C266     1.0000 0.45241  0.11999  0.81320  Biso   1.000  C
  O12      1.0000 0.27158  0.11356  0.92524  Biso   1.000  O
  H179     1.0000 0.36221  0.08373  0.72355  Biso   1.000  H
  C267     1.0000 0.44045  0.10466  0.75846  Biso   1.000  C
  H180     1.0000 0.49939  0.12814  0.81228  Biso   1.000  H
  H181     1.0000 0.28644  0.12273  0.95446  Biso   1.000  H
  C268     1.0000 0.50209  0.09825  0.69849  Biso   1.000  C
  H182     1.0000 0.53140  0.13322  0.69498  Biso   1.000  H
  H183     1.0000 0.48299  0.09804  0.66377  Biso   1.000  H
  H184     1.0000 0.53191  0.05923  0.69775  Biso   1.000  H
  Ne1      1.0000 0.88846  0.27112  0.15001  Biso   1.000  Ne
  He1      1.0000 0.88983  0.32406  0.33559  Biso   1.000  He
  He2      1.0000 0.70862  0.30983  0.15111  Biso   1.000  He
  He3      1.0000 0.96688  0.14546  0.15070  Biso   1.000  He
  He4      1.0000 0.98476  0.32543  0.03607  Biso   1.000  He
  Ar1      1.0000 0.88887  0.26897  0.14995  Biso   1.000  Ar
  Ne2      1.0000 0.11157  0.72894  0.84997  Biso   1.000  Ne
  He5      1.0000 0.01601  0.67516  0.96300  Biso   1.000  He
  He6      1.0000 0.38818  0.67444  0.86850  Biso   1.000  He
  He7      1.0000 0.98501  0.95474  0.87404  Biso   1.000  He
  He8      1.0000 0.07881  0.70732  0.70855  Biso   1.000  He
  Ar2      1.0000 0.10686  0.73233  0.85021  Biso   1.000  Ar
