data_image0
_cell_length_a       12.216
_cell_length_b       26.288
_cell_length_c       11.74
_cell_angle_alpha    101.93
_cell_angle_beta     107.36
_cell_angle_gamma    88.51

_symmetry_space_group_name_H-M    "P 1"
_symmetry_int_tables_number       1

loop_
  _symmetry_equiv_pos_as_xyz
  'x, y, z'

loop_
  _atom_site_label
  _atom_site_occupancy
  _atom_site_fract_x
  _atom_site_fract_y
  _atom_site_fract_z
  _atom_site_thermal_displace_type
  _atom_site_B_iso_or_equiv
  _atom_site_type_symbol
  C1       1.0000 0.42207  0.54799  0.21343  Biso   1.000  C
  O1       1.0000 0.33097  0.58299  0.18889  Biso   1.000  O
  H1       1.0000 0.38976  0.50888  0.16817  Biso   1.000  H
  H2       1.0000 0.45637  0.55009  0.31061  Biso   1.000  H
  O2       1.0000 0.51014  0.56169  0.16553  Biso   1.000  O
  C2       1.0000 0.33809  0.62501  0.28871  Biso   1.000  C
  C3       1.0000 0.60728  0.58789  0.25732  Biso   1.000  C
  C4       1.0000 0.26158  0.62032  0.35414  Biso   1.000  C
  C5       1.0000 0.41451  0.66789  0.32549  Biso   1.000  C
  C6       1.0000 0.70567  0.56169  0.30587  Biso   1.000  C
  C7       1.0000 0.60244  0.64129  0.29939  Biso   1.000  C
  O3       1.0000 0.18620  0.57632  0.32704  Biso   1.000  O
  C8       1.0000 0.26152  0.65849  0.45643  Biso   1.000  C
  C9       1.0000 0.41435  0.70621  0.42778  Biso   1.000  C
  C10      1.0000 0.49582  0.67038  0.25212  Biso   1.000  C
  O4       1.0000 0.70332  0.50891  0.26481  Biso   1.000  O
  C11      1.0000 0.79898  0.58889  0.39648  Biso   1.000  C
  C12      1.0000 0.69574  0.66860  0.39000  Biso   1.000  C
  C13      1.0000 0.09249  0.57620  0.22174  Biso   1.000  C
  C14      1.0000 0.33793  0.70149  0.49321  Biso   1.000  C
  O5       1.0000 0.18203  0.65459  0.51702  Biso   1.000  O
  H3       1.0000 0.47365  0.73942  0.45634  Biso   1.000  H
  H4       1.0000 0.45317  0.65132  0.15877  Biso   1.000  H
  C15      1.0000 0.51922  0.72690  0.24026  Biso   1.000  C
  C16      1.0000 0.71795  0.49332  0.14463  Biso   1.000  C
  C17      1.0000 0.79402  0.64239  0.43846  Biso   1.000  C
  O6       1.0000 0.89319  0.56040  0.43599  Biso   1.000  O
  H5       1.0000 0.69187  0.71001  0.42258  Biso   1.000  H
  C18      1.0000 0.03399  0.52260  0.18341  Biso   1.000  C
  H6       1.0000 0.12386  0.58228  0.14846  Biso   1.000  H
  H7       1.0000 0.03442  0.60639  0.23980  Biso   1.000  H
  C19      1.0000 0.34006  0.74161  0.60809  Biso   1.000  C
  C20      1.0000 0.22228  0.63390  0.62196  Biso   1.000  C
  H8       1.0000 0.55200  0.75059  0.33124  Biso   1.000  H
  H9       1.0000 0.58094  0.72751  0.19099  Biso   1.000  H
  C21      1.0000 0.40740  0.74842  0.17283  Biso   1.000  C
  C22      1.0000 0.71508  0.43282  0.12027  Biso   1.000  C
  H10      1.0000 0.64643  0.50529  0.07683  Biso   1.000  H
  H11      1.0000 0.79713  0.50920  0.14098  Biso   1.000  H
  C23      1.0000 0.89687  0.66820  0.54467  Biso   1.000  C
  C24      1.0000 0.89688  0.54411  0.54047  Biso   1.000  C
  C25      1.0000 0.12510  0.47870  0.17027  Biso   1.000  C
  H12      1.0000 0.96652  0.51880  0.09782  Biso   1.000  H
  H13      1.0000 0.99789  0.51690  0.25367  Biso   1.000  H
  C26      1.0000 0.42269  0.72371  0.71576  Biso   1.000  C
  H14      1.0000 0.25737  0.74352  0.62442  Biso   1.000  H
  C27      1.0000 0.36272  0.79841  0.59513  Biso   1.000  C
  H15      1.0000 0.29046  0.60800  0.61147  Biso   1.000  H
  H16      1.0000 0.15264  0.61241  0.63154  Biso   1.000  H
  O7       1.0000 0.26692  0.67471  0.73566  Biso   1.000  O
  H17      1.0000 0.37635  0.72449  0.08212  Biso   1.000  H
  H18      1.0000 0.34607  0.74629  0.22201  Biso   1.000  H
  C28      1.0000 0.41984  0.80399  0.16224  Biso   1.000  C
  C29      1.0000 0.59539  0.41531  0.11680  Biso   1.000  C
  H19      1.0000 0.77867  0.42131  0.19591  Biso   1.000  H
  H20      1.0000 0.73188  0.41491  0.03577  Biso   1.000  H
  C30      1.0000 0.87799  0.66099  0.66384  Biso   1.000  C
  H21      1.0000 0.97526  0.64920  0.53856  Biso   1.000  H
  C31      1.0000 0.91811  0.72460  0.53582  Biso   1.000  C
  H22      1.0000 0.92833  0.50511  0.53491  Biso   1.000  H
  H23      1.0000 0.81060  0.54399  0.54759  Biso   1.000  H
  O8       1.0000 0.96912  0.57749  0.64961  Biso   1.000  O
  O9       1.0000 0.05599  0.43040  0.12994  Biso   1.000  O
  H24      1.0000 0.16341  0.48411  0.10138  Biso   1.000  H
  H25      1.0000 0.19153  0.48051  0.25614  Biso   1.000  H
  C32      1.0000 0.37927  0.68920  0.76887  Biso   1.000  C
  C33      1.0000 0.53917  0.73840  0.75856  Biso   1.000  C
  H26      1.0000 0.45203  0.80371  0.60161  Biso   1.000  H
  H27      1.0000 0.30920  0.80661  0.50972  Biso   1.000  H
  C34      1.0000 0.33503  0.83450  0.70317  Biso   1.000  C
  C35      1.0000 0.45299  0.81779  0.06844  Biso   1.000  C
  C36      1.0000 0.39698  0.84250  0.25304  Biso   1.000  C
  O10      1.0000 0.58990  0.35930  0.07190  Biso   1.000  O
  H28      1.0000 0.53133  0.43460  0.05648  Biso   1.000  H
  H29      1.0000 0.58479  0.42439  0.20695  Biso   1.000  H
  C37      1.0000 0.91365  0.61669  0.71047  Biso   1.000  C
  C38      1.0000 0.82080  0.69909  0.72389  Biso   1.000  C
  H30      1.0000 0.83989  0.74469  0.53701  Biso   1.000  H
  H31      1.0000 0.98804  0.74341  0.61293  Biso   1.000  H
  C39      1.0000 0.94562  0.72711  0.41929  Biso   1.000  C
  C40      1.0000 0.10778  0.38958  0.18268  Biso   1.000  C
  C41      1.0000 0.45239  0.66941  0.86468  Biso   1.000  C
  C42      1.0000 0.61222  0.71861  0.85446  Biso   1.000  C
  H32      1.0000 0.57280  0.76511  0.71750  Biso   1.000  H
  H33      1.0000 0.39497  0.82871  0.78776  Biso   1.000  H
  H34      1.0000 0.24878  0.82512  0.70116  Biso   1.000  H
  C43      1.0000 0.34249  0.89169  0.69067  Biso   1.000  C
  C44      1.0000 0.46349  0.87022  0.06533  Biso   1.000  C
  H35      1.0000 0.47066  0.78802  0.99808  Biso   1.000  H
  C45      1.0000 0.40748  0.89489  0.24993  Biso   1.000  C
  H36      1.0000 0.37131  0.83179  0.32558  Biso   1.000  H
  C46      1.0000 0.54765  0.33061  0.13532  Biso   1.000  C
  C47      1.0000 0.89217  0.61040  0.81733  Biso   1.000  C
  C48      1.0000 0.79926  0.69289  0.83056  Biso   1.000  C
  H37      1.0000 0.79309  0.73350  0.68766  Biso   1.000  H
  H38      1.0000 0.88229  0.70340  0.34310  Biso   1.000  H
  C49      1.0000 0.94061  0.78300  0.40387  Biso   1.000  C
  H39      1.0000 0.03002  0.71249  0.42358  Biso   1.000  H
  C50      1.0000 0.08630  0.38329  0.28954  Biso   1.000  C
  C51      1.0000 0.16497  0.35152  0.12264  Biso   1.000  C
  O11      1.0000 0.41013  0.64068  0.92810  Biso   1.000  O
  C52      1.0000 0.56877  0.68421  0.90748  Biso   1.000  C
  C53      1.0000 0.73973  0.73242  0.90274  Biso   1.000  C
  C54      1.0000 0.37618  0.90911  0.60115  Biso   1.000  C
  C55      1.0000 0.30747  0.92721  0.77818  Biso   1.000  C
  C56      1.0000 0.44071  0.90870  0.15613  Biso   1.000  C
  H40      1.0000 0.48922  0.88093  0.99270  Biso   1.000  H
  H41      1.0000 0.38992  0.92469  0.32010  Biso   1.000  H
  C57      1.0000 0.43118  0.31581  0.09253  Biso   1.000  C
  C58      1.0000 0.62068  0.31082  0.23114  Biso   1.000  C
  O12      1.0000 0.94396  0.56961  0.87007  Biso   1.000  O
  C59      1.0000 0.83498  0.64850  0.87737  Biso   1.000  C
  C60      1.0000 0.83942  0.80370  0.34137  Biso   1.000  C
  C61      1.0000 0.04156  0.81379  0.45306  Biso   1.000  C
  C62      1.0000 0.12196  0.33899  0.33616  Biso   1.000  C
  O13      1.0000 0.03091  0.42249  0.35040  Biso   1.000  O
  C63      1.0000 0.20067  0.30712  0.16936  Biso   1.000  C
  O14      1.0000 0.17741  0.36018  0.01296  Biso   1.000  O
  C64      1.0000 0.40456  0.58471  0.88321  Biso   1.000  C
  O15      1.0000 0.63828  0.66689  0.00375  Biso   1.000  O
  H42      1.0000 0.76962  0.73259  0.99928  Biso   1.000  H
  C65      1.0000 0.77172  0.78998  0.89106  Biso   1.000  C
  C66      1.0000 0.37490  0.96199  0.59933  Biso   1.000  C
  H43      1.0000 0.40329  0.88170  0.53336  Biso   1.000  H
  C67      1.0000 0.30618  0.98009  0.77626  Biso   1.000  C
  H44      1.0000 0.28137  0.91370  0.84753  Biso   1.000  H
  H45      1.0000 0.44879  0.94931  0.15366  Biso   1.000  H
  C68      1.0000 0.38781  0.28140  0.14554  Biso   1.000  C
  O16      1.0000 0.36167  0.33313  0.99626  Biso   1.000  O
  C69      1.0000 0.57734  0.27631  0.28424  Biso   1.000  C
  O17      1.0000 0.73308  0.32529  0.26426  Biso   1.000  O
  C70      1.0000 0.87493  0.52132  0.82974  Biso   1.000  C
  O18      1.0000 0.82260  0.63979  0.98696  Biso   1.000  O
  C71      1.0000 0.83924  0.85520  0.32823  Biso   1.000  C
  H46      1.0000 0.76117  0.77981  0.30331  Biso   1.000  H
  C72      1.0000 0.04138  0.86528  0.43992  Biso   1.000  C
  H47      1.0000 0.11988  0.79770  0.50151  Biso   1.000  H
  C73      1.0000 0.17924  0.30089  0.27612  Biso   1.000  C
  C74      1.0000 0.10308  0.33182  0.45534  Biso   1.000  C
  C75      1.0000 0.10315  0.45590  0.45953  Biso   1.000  C
  C76      1.0000 0.26030  0.26760  0.09727  Biso   1.000  C
  C77      1.0000 0.28573  0.37259  0.01688  Biso   1.000  C
  C78      1.0000 0.28495  0.56720  0.87974  Biso   1.000  C
  H48      1.0000 0.46870  0.56541  0.94352  Biso   1.000  H
  H49      1.0000 0.41521  0.57558  0.79296  Biso   1.000  H
  C79      1.0000 0.71431  0.62739  0.98313  Biso   1.000  C
  H50      1.0000 0.86288  0.79569  0.90775  Biso   1.000  H
  H51      1.0000 0.72641  0.79460  0.79962  Biso   1.000  H
  C80      1.0000 0.72956  0.83011  0.98112  Biso   1.000  C
  C81      1.0000 0.33989  0.99752  0.68684  Biso   1.000  C
  H52      1.0000 0.40100  0.97550  0.52998  Biso   1.000  H
  H53      1.0000 0.27914  0.00750  0.84406  Biso   1.000  H
  C82      1.0000 0.46076  0.26161  0.24136  Biso   1.000  C
  C83      1.0000 0.65989  0.25841  0.39192  Biso   1.000  C
  C84      1.0000 0.77773  0.36611  0.37796  Biso   1.000  C
  C85      1.0000 0.96604  0.47741  0.81660  Biso   1.000  C
  H54      1.0000 0.83662  0.51591  0.89863  Biso   1.000  H
  H55      1.0000 0.80850  0.51950  0.74387  Biso   1.000  H
  C86      1.0000 0.94019  0.88598  0.37741  Biso   1.000  C
  H56      1.0000 0.76079  0.87130  0.27986  Biso   1.000  H
  H57      1.0000 0.11955  0.88922  0.47797  Biso   1.000  H
  H58      1.0000 0.20691  0.26651  0.31226  Biso   1.000  H
  C87      1.0000 0.20599  0.35758  0.56146  Biso   1.000  C
  H59      1.0000 0.02466  0.35081  0.46136  Biso   1.000  H
  C88      1.0000 0.08192  0.27541  0.46419  Biso   1.000  C
  O19      1.0000 0.10685  0.43958  0.56402  Biso   1.000  O
  H60      1.0000 0.07170  0.49491  0.46510  Biso   1.000  H
  H61      1.0000 0.18943  0.45599  0.45242  Biso   1.000  H
  H62      1.0000 0.23042  0.26739  0.00073  Biso   1.000  H
  C89      1.0000 0.22829  0.20999  0.10886  Biso   1.000  C
  H63      1.0000 0.32622  0.39641  0.10621  Biso   1.000  H
  H64      1.0000 0.27711  0.39541  0.94817  Biso   1.000  H
  C90      1.0000 0.28209  0.50670  0.85538  Biso   1.000  C
  H65      1.0000 0.22128  0.57870  0.80409  Biso   1.000  H
  H66      1.0000 0.26815  0.58510  0.96424  Biso   1.000  H
  H67      1.0000 0.67381  0.60361  0.89379  Biso   1.000  H
  H68      1.0000 0.72292  0.60457  0.05184  Biso   1.000  H
  H69      1.0000 0.64005  0.82150  0.96816  Biso   1.000  H
  C91      1.0000 0.74460  0.88580  0.96506  Biso   1.000  C
  H70      1.0000 0.77971  0.82687  0.07228  Biso   1.000  H
  H71      1.0000 0.33890  0.03841  0.68538  Biso   1.000  H
  H72      1.0000 0.42723  0.23491  0.28251  Biso   1.000  H
  C92      1.0000 0.66210  0.29849  0.50680  Biso   1.000  C
  H73      1.0000 0.74258  0.25650  0.37558  Biso   1.000  H
  C93      1.0000 0.63731  0.20161  0.40488  Biso   1.000  C
  O20      1.0000 0.81801  0.34539  0.48299  Biso   1.000  O
  H74      1.0000 0.70948  0.39202  0.38854  Biso   1.000  H
  H75      1.0000 0.84739  0.38761  0.36847  Biso   1.000  H
  C94      1.0000 0.90746  0.42381  0.77827  Biso   1.000  C
  H76      1.0000 0.03351  0.48118  0.90219  Biso   1.000  H
  H77      1.0000 0.00214  0.48312  0.74633  Biso   1.000  H
  H78      1.0000 0.94002  0.92590  0.36719  Biso   1.000  H
  C95      1.0000 0.30429  0.33142  0.61001  Biso   1.000  C
  C96      1.0000 0.20097  0.41109  0.60353  Biso   1.000  C
  H79      1.0000 0.16006  0.25529  0.46300  Biso   1.000  H
  H80      1.0000 0.01199  0.25661  0.38708  Biso   1.000  H
  C97      1.0000 0.05441  0.27291  0.58071  Biso   1.000  C
  H81      1.0000 0.13705  0.20428  0.09216  Biso   1.000  H
  H82      1.0000 0.27362  0.20538  0.20038  Biso   1.000  H
  C98      1.0000 0.27038  0.16991  0.01889  Biso   1.000  C
  O21      1.0000 0.29671  0.49111  0.73520  Biso   1.000  O
  H83      1.0000 0.35361  0.49469  0.92318  Biso   1.000  H
  H84      1.0000 0.20290  0.49081  0.85903  Biso   1.000  H
  C99      1.0000 0.65849  0.90791  0.88376  Biso   1.000  C
  C100     1.0000 0.84938  0.91278  0.02629  Biso   1.000  C
  C101     1.0000 0.58560  0.29381  0.57223  Biso   1.000  C
  C102     1.0000 0.73851  0.34149  0.54358  Biso   1.000  C
  H85      1.0000 0.54800  0.19631  0.39840  Biso   1.000  H
  H86      1.0000 0.69083  0.19341  0.49029  Biso   1.000  H
  C103     1.0000 0.66500  0.16551  0.29684  Biso   1.000  C
  O22      1.0000 0.81383  0.42370  0.67297  Biso   1.000  O
  H87      1.0000 0.87609  0.41770  0.85154  Biso   1.000  H
  H88      1.0000 0.96561  0.39359  0.76020  Biso   1.000  H
  C104     1.0000 0.39760  0.35869  0.70062  Biso   1.000  C
  H89      1.0000 0.30808  0.29001  0.57743  Biso   1.000  H
  C105     1.0000 0.29428  0.43829  0.69414  Biso   1.000  C
  H90      1.0000 0.11766  0.29658  0.65691  Biso   1.000  H
  C106     1.0000 0.05942  0.21701  0.59614  Biso   1.000  C
  H91      1.0000 0.97001  0.28749  0.57643  Biso   1.000  H
  H92      1.0000 0.35987  0.17851  0.03175  Biso   1.000  H
  C107     1.0000 0.25541  0.11421  0.03486  Biso   1.000  C
  H93      1.0000 0.22033  0.17311  0.92773  Biso   1.000  H
  C108     1.0000 0.67711  0.95689  0.86377  Biso   1.000  C
  H94      1.0000 0.57740  0.88699  0.83640  Biso   1.000  H
  C109     1.0000 0.86798  0.96187  0.00621  Biso   1.000  C
  H95      1.0000 0.91612  0.89570  0.08925  Biso   1.000  H
  C110     1.0000 0.58553  0.33209  0.67452  Biso   1.000  C
  H96      1.0000 0.52638  0.26060  0.54367  Biso   1.000  H
  C111     1.0000 0.73837  0.37970  0.64587  Biso   1.000  C
  H97      1.0000 0.60495  0.17130  0.21216  Biso   1.000  H
  H98      1.0000 0.75125  0.17490  0.29884  Biso   1.000  H
  C112     1.0000 0.65754  0.10829  0.30934  Biso   1.000  C
  C113     1.0000 0.39267  0.41209  0.74268  Biso   1.000  C
  C114     1.0000 0.50421  0.32960  0.74788  Biso   1.000  C
  C115     1.0000 0.16061  0.19631  0.65864  Biso   1.000  C
  C116     1.0000 0.95836  0.18618  0.54686  Biso   1.000  C
  C117     1.0000 0.34151  0.09210  0.11616  Biso   1.000  C
  C118     1.0000 0.15065  0.08720  0.97372  Biso   1.000  C
  C119     1.0000 0.78189  0.98399  0.92500  Biso   1.000  C
  H99      1.0000 0.61040  0.97402  0.80090  Biso   1.000  H
  H100     1.0000 0.94907  0.98279  0.05357  Biso   1.000  H
  C120     1.0000 0.66186  0.37501  0.71129  Biso   1.000  C
  C121     1.0000 0.62383  0.09090  0.39876  Biso   1.000  C
  C122     1.0000 0.69248  0.07281  0.22183  Biso   1.000  C
  O23      1.0000 0.48989  0.43829  0.83448  Biso   1.000  O
  H101     1.0000 0.54678  0.34870  0.84123  Biso   1.000  H
  C123     1.0000 0.48079  0.27311  0.75966  Biso   1.000  C
  C124     1.0000 0.16079  0.14482  0.67178  Biso   1.000  C
  H102     1.0000 0.23878  0.22021  0.69669  Biso   1.000  H
  C125     1.0000 0.95857  0.13470  0.56009  Biso   1.000  C
  H103     1.0000 0.88007  0.20228  0.49850  Biso   1.000  H
  C126     1.0000 0.32292  0.04309  0.13624  Biso   1.000  C
  H104     1.0000 0.42263  0.11299  0.16361  Biso   1.000  H
  C127     1.0000 0.13198  0.03811  0.99380  Biso   1.000  C
  H105     1.0000 0.08391  0.10432  0.91076  Biso   1.000  H
  H106     1.0000 0.79644  0.02199  0.90949  Biso   1.000  H
  O24      1.0000 0.66898  0.41699  0.81112  Biso   1.000  O
  C128     1.0000 0.62513  0.03798  0.40068  Biso   1.000  C
  H107     1.0000 0.59671  0.11831  0.46656  Biso   1.000  H
  C129     1.0000 0.69378  0.01989  0.22374  Biso   1.000  C
  H108     1.0000 0.71858  0.08631  0.15248  Biso   1.000  H
  C130     1.0000 0.57788  0.45199  0.78657  Biso   1.000  C
  H109     1.0000 0.44795  0.24939  0.66877  Biso   1.000  H
  H110     1.0000 0.41909  0.27251  0.80902  Biso   1.000  H
  C131     1.0000 0.59263  0.25160  0.82718  Biso   1.000  C
  C132     1.0000 0.05984  0.11400  0.62260  Biso   1.000  C
  H111     1.0000 0.23925  0.12872  0.72014  Biso   1.000  H
  H112     1.0000 0.88040  0.11080  0.52204  Biso   1.000  H
  C133     1.0000 0.21814  0.01599  0.07501  Biso   1.000  C
  H113     1.0000 0.38963  0.02600  0.19911  Biso   1.000  H
  H114     1.0000 0.05088  0.01723  0.94644  Biso   1.000  H
  C134     1.0000 0.66006  0.00250  0.31317  Biso   1.000  C
  H115     1.0000 0.59903  0.02452  0.47003  Biso   1.000  H
  H116     1.0000 0.72086  0.99251  0.15585  Biso   1.000  H
  H117     1.0000 0.61020  0.49110  0.83183  Biso   1.000  H
  H118     1.0000 0.54358  0.44989  0.68939  Biso   1.000  H
  H119     1.0000 0.62369  0.27549  0.91788  Biso   1.000  H
  H120     1.0000 0.65388  0.25369  0.77800  Biso   1.000  H
  C135     1.0000 0.58019  0.19599  0.83777  Biso   1.000  C
  H121     1.0000 0.06001  0.07411  0.63282  Biso   1.000  H
  H122     1.0000 0.20359  0.97802  0.09052  Biso   1.000  H
  H123     1.0000 0.66105  0.96161  0.31463  Biso   1.000  H
  C136     1.0000 0.54696  0.18219  0.93157  Biso   1.000  C
  C137     1.0000 0.60297  0.15751  0.74697  Biso   1.000  C
  C138     1.0000 0.53646  0.12980  0.93467  Biso   1.000  C
  H124     1.0000 0.52929  0.21200  0.00192  Biso   1.000  H
  C139     1.0000 0.59247  0.10509  0.75007  Biso   1.000  C
  H125     1.0000 0.62872  0.16819  0.67443  Biso   1.000  H
  C140     1.0000 0.55932  0.09128  0.84388  Biso   1.000  C
  H126     1.0000 0.51081  0.11909  0.00731  Biso   1.000  H
  H127     1.0000 0.61012  0.07529  0.67990  Biso   1.000  H
  H128     1.0000 0.55125  0.05071  0.84634  Biso   1.000  H
