data_image0
_cell_length_a       12.984
_cell_length_b       14.664
_cell_length_c       20.454
_cell_angle_alpha    68.5
_cell_angle_beta     73.72
_cell_angle_gamma    65.18

_symmetry_space_group_name_H-M    "P 1"
_symmetry_int_tables_number       1

loop_
  _symmetry_equiv_pos_as_xyz
  'x, y, z'

loop_
  _atom_site_label
  _atom_site_occupancy
  _atom_site_fract_x
  _atom_site_fract_y
  _atom_site_fract_z
  _atom_site_thermal_displace_type
  _atom_site_B_iso_or_equiv
  _atom_site_type_symbol
  C1       1.0000 0.82419  0.88241  0.00340  Biso   1.000  C
  C2       1.0000 0.87865  0.96163  0.99298  Biso   1.000  C
  C3       1.0000 0.87864  0.96161  0.99304  Biso   1.000  C
  O1       1.0000 0.91471  0.79008  0.98911  Biso   1.000  O
  H1       1.0000 0.76307  0.91398  0.96700  Biso   1.000  H
  H2       1.0000 0.78108  0.86297  0.05703  Biso   1.000  H
  O2       1.0000 0.94021  0.98993  0.92331  Biso   1.000  O
  O3       1.0000 0.94029  0.98993  0.92331  Biso   1.000  O
  H3       1.0000 0.93813  0.92894  0.03098  Biso   1.000  H
  H4       1.0000 0.93812  0.92892  0.03104  Biso   1.000  H
  C4       1.0000 0.82423  0.88248  0.00340  Biso   1.000  C
  H5       1.0000 0.81093  0.03281  0.99702  Biso   1.000  H
  C5       1.0000 0.88731  0.74665  0.95041  Biso   1.000  C
  C6       1.0000 0.87726  0.03391  0.86761  Biso   1.000  C
  C7       1.0000 0.83954  0.66884  0.98602  Biso   1.000  C
  C8       1.0000 0.89614  0.78654  0.87659  Biso   1.000  C
  C9       1.0000 0.80835  0.13979  0.85332  Biso   1.000  C
  C10      1.0000 0.88542  0.97555  0.82441  Biso   1.000  C
  O4       1.0000 0.81798  0.64077  0.05851  Biso   1.000  O
  C11      1.0000 0.80066  0.63114  0.94781  Biso   1.000  C
  C12      1.0000 0.96538  0.85996  0.83913  Biso   1.000  C
  C13      1.0000 0.85725  0.74882  0.83844  Biso   1.000  C
  O5       1.0000 0.79054  0.19580  0.90014  Biso   1.000  O
  C14      1.0000 0.74753  0.18746  0.79581  Biso   1.000  C
  C15      1.0000 0.74757  0.18753  0.79581  Biso   1.000  C
  C16      1.0000 0.82457  0.02318  0.76701  Biso   1.000  C
  C17      1.0000 0.82454  0.02325  0.76701  Biso   1.000  C
  C18      1.0000 0.90767  0.55395  0.09322  Biso   1.000  C
  O6       1.0000 0.77360  0.54179  0.98012  Biso   1.000  O
  C19      1.0000 0.80942  0.67118  0.87399  Biso   1.000  C
  O7       1.0000 0.77365  0.54187  0.98012  Biso   1.000  O
  H6       1.0000 0.02006  0.84494  0.87601  Biso   1.000  H
  C20      1.0000 0.04754  0.83596  0.77232  Biso   1.000  C
  H7       1.0000 0.86402  0.77994  0.78099  Biso   1.000  H
  H8       1.0000 0.86408  0.77992  0.78104  Biso   1.000  H
  C21      1.0000 0.87588  0.24491  0.87899  Biso   1.000  C
  C22      1.0000 0.87586  0.24488  0.87904  Biso   1.000  C
  C23      1.0000 0.75567  0.12921  0.75271  Biso   1.000  C
  O8       1.0000 0.68571  0.29390  0.78072  Biso   1.000  O
  H9       1.0000 0.83102  0.97795  0.73400  Biso   1.000  H
  H10      1.0000 0.83109  0.97795  0.73400  Biso   1.000  H
  C24      1.0000 0.86181  0.55363  0.17368  Biso   1.000  C
  C25      1.0000 0.86176  0.55369  0.17373  Biso   1.000  C
  H11      1.0000 0.98809  0.56694  0.07504  Biso   1.000  H
  H12      1.0000 0.91707  0.48196  0.08503  Biso   1.000  H
  H13      1.0000 0.91708  0.48198  0.08498  Biso   1.000  H
  C26      1.0000 0.74918  0.63916  0.83514  Biso   1.000  C
  C27      1.0000 0.74920  0.63919  0.83509  Biso   1.000  C
  C28      1.0000 0.66810  0.55631  0.02572  Biso   1.000  C
  C29      1.0000 0.66806  0.55639  0.02572  Biso   1.000  C
  H14      1.0000 0.00006  0.83292  0.73799  Biso   1.000  H
  H15      1.0000 0.08204  0.89796  0.74501  Biso   1.000  H
  C30      1.0000 0.14526  0.73254  0.79060  Biso   1.000  C
  C31      1.0000 0.83737  0.32115  0.92182  Biso   1.000  C
  C32      1.0000 0.83733  0.32123  0.92182  Biso   1.000  C
  H16      1.0000 0.88096  0.28599  0.82302  Biso   1.000  H
  H17      1.0000 0.95892  0.18600  0.89004  Biso   1.000  H
  C33      1.0000 0.68906  0.18401  0.68862  Biso   1.000  C
  C34      1.0000 0.58026  0.32193  0.82600  Biso   1.000  C
  C35      1.0000 0.89499  0.62856  0.18362  Biso   1.000  C
  H18      1.0000 0.90006  0.47691  0.20902  Biso   1.000  H
  H19      1.0000 0.76911  0.57596  0.18399  Biso   1.000  H
  H20      1.0000 0.90010  0.47698  0.20902  Biso   1.000  H
  C36      1.0000 0.62836  0.71561  0.82542  Biso   1.000  C
  C37      1.0000 0.62832  0.71569  0.82542  Biso   1.000  C
  H21      1.0000 0.73900  0.56592  0.86900  Biso   1.000  H
  C38      1.0000 0.82311  0.61850  0.76632  Biso   1.000  C
  C39      1.0000 0.82315  0.61857  0.76632  Biso   1.000  C
  H22      1.0000 0.73907  0.56592  0.86900  Biso   1.000  H
  C40      1.0000 0.82307  0.61857  0.76632  Biso   1.000  C
  C41      1.0000 0.57015  0.63762  0.99038  Biso   1.000  C
  C42      1.0000 0.57010  0.63768  0.99043  Biso   1.000  C
  H23      1.0000 0.67306  0.57894  0.06904  Biso   1.000  H
  H24      1.0000 0.65307  0.48299  0.04602  Biso   1.000  H
  H25      1.0000 0.18399  0.73197  0.83100  Biso   1.000  H
  H26      1.0000 0.11102  0.66992  0.81101  Biso   1.000  H
  C43      1.0000 0.23652  0.71296  0.72757  Biso   1.000  C
  H27      1.0000 0.18406  0.73197  0.83100  Biso   1.000  H
  H28      1.0000 0.11106  0.66999  0.81101  Biso   1.000  H
  C44      1.0000 0.23658  0.71294  0.72763  Biso   1.000  C
  C45      1.0000 0.81442  0.27758  0.00314  Biso   1.000  C
  H29      1.0000 0.75894  0.38202  0.90503  Biso   1.000  H
  H30      1.0000 0.75895  0.38205  0.90497  Biso   1.000  H
  H31      1.0000 0.90298  0.35502  0.90901  Biso   1.000  H
  C46      1.0000 0.58463  0.15591  0.70360  Biso   1.000  C
  C47      1.0000 0.58471  0.15591  0.70360  Biso   1.000  C
  H32      1.0000 0.65696  0.26803  0.68001  Biso   1.000  H
  C48      1.0000 0.76759  0.16543  0.62091  Biso   1.000  C
  C49      1.0000 0.49771  0.27320  0.82770  Biso   1.000  C
  C50      1.0000 0.49779  0.27320  0.82770  Biso   1.000  C
  H33      1.0000 0.53896  0.40603  0.80899  Biso   1.000  H
  H34      1.0000 0.59892  0.29803  0.87899  Biso   1.000  H
  H35      1.0000 0.59898  0.29800  0.87904  Biso   1.000  H
  C51      1.0000 0.79836  0.67471  0.24458  Biso   1.000  C
  C52      1.0000 0.79840  0.67478  0.24458  Biso   1.000  C
  H36      1.0000 0.89808  0.69090  0.13499  Biso   1.000  H
  H37      1.0000 0.97807  0.59096  0.20100  Biso   1.000  H
  H38      1.0000 0.89812  0.69098  0.13499  Biso   1.000  H
  C53      1.0000 0.53559  0.69148  0.87181  Biso   1.000  C
  C54      1.0000 0.60943  0.80096  0.76462  Biso   1.000  C
  H39      1.0000 0.90902  0.56997  0.77700  Biso   1.000  H
  H40      1.0000 0.82400  0.69297  0.72901  Biso   1.000  H
  C55      1.0000 0.78181  0.56585  0.73220  Biso   1.000  C
  H41      1.0000 0.82407  0.69297  0.72901  Biso   1.000  H
  C56      1.0000 0.78188  0.56585  0.73220  Biso   1.000  C
  O9       1.0000 0.55390  0.61062  0.93304  Biso   1.000  O
  O10      1.0000 0.55398  0.61062  0.93304  Biso   1.000  O
  H42      1.0000 0.58602  0.71091  0.96801  Biso   1.000  H
  H43      1.0000 0.58599  0.71099  0.96801  Biso   1.000  H
  H44      1.0000 0.49308  0.64689  0.02902  Biso   1.000  H
  H45      1.0000 0.49305  0.64697  0.02902  Biso   1.000  H
  H46      1.0000 0.49312  0.64697  0.02902  Biso   1.000  H
  H47      1.0000 0.20206  0.70094  0.69101  Biso   1.000  H
  C57      1.0000 0.34233  0.61674  0.74963  Biso   1.000  C
  H48      1.0000 0.26208  0.78098  0.70201  Biso   1.000  H
  C58      1.0000 0.69369  0.27951  0.02939  Biso   1.000  C
  C59      1.0000 0.69376  0.27949  0.02944  Biso   1.000  C
  H49      1.0000 0.87301  0.19800  0.01903  Biso   1.000  H
  H50      1.0000 0.83007  0.32500  0.02700  Biso   1.000  H
  C60      1.0000 0.48428  0.21648  0.73762  Biso   1.000  C
  C61      1.0000 0.48425  0.21656  0.73762  Biso   1.000  C
  C62      1.0000 0.58505  0.07290  0.68538  Biso   1.000  C
  C63      1.0000 0.58504  0.07288  0.68543  Biso   1.000  C
  C64      1.0000 0.58500  0.07295  0.68543  Biso   1.000  C
  H51      1.0000 0.79400  0.08301  0.62500  Biso   1.000  H
  H52      1.0000 0.84196  0.18404  0.61703  Biso   1.000  H
  H53      1.0000 0.84201  0.18399  0.61698  Biso   1.000  H
  C65      1.0000 0.71842  0.22829  0.55123  Biso   1.000  C
  O11      1.0000 0.48089  0.29967  0.75489  Biso   1.000  O
  O12      1.0000 0.48085  0.29974  0.75489  Biso   1.000  O
  H54      1.0000 0.53291  0.18901  0.84901  Biso   1.000  H
  H55      1.0000 0.53299  0.18901  0.84901  Biso   1.000  H
  H56      1.0000 0.41701  0.30399  0.86001  Biso   1.000  H
  O13      1.0000 0.70961  0.75337  0.20589  Biso   1.000  O
  H57      1.0000 0.83107  0.70796  0.26998  Biso   1.000  H
  H58      1.0000 0.76907  0.61497  0.28401  Biso   1.000  H
  H59      1.0000 0.83106  0.70794  0.27003  Biso   1.000  H
  C66      1.0000 0.42404  0.75255  0.85741  Biso   1.000  C
  C67      1.0000 0.49771  0.86200  0.75011  Biso   1.000  C
  C68      1.0000 0.49776  0.86207  0.75011  Biso   1.000  C
  H60      1.0000 0.68100  0.81995  0.72901  Biso   1.000  H
  H61      1.0000 0.68108  0.81995  0.72901  Biso   1.000  H
  H62      1.0000 0.68900  0.59294  0.74602  Biso   1.000  H
  H63      1.0000 0.81704  0.48294  0.75904  Biso   1.000  H
  C69      1.0000 0.87772  0.53698  0.66162  Biso   1.000  C
  H64      1.0000 0.81705  0.48296  0.75898  Biso   1.000  H
  H65      1.0000 0.68908  0.59294  0.74602  Biso   1.000  H
  C70      1.0000 0.81023  0.56809  0.66072  Biso   1.000  C
  H66      1.0000 0.37001  0.62591  0.79098  Biso   1.000  H
  H67      1.0000 0.31703  0.54898  0.77099  Biso   1.000  H
  C71      1.0000 0.43769  0.59845  0.69441  Biso   1.000  C
  C72      1.0000 0.43777  0.59845  0.69441  Biso   1.000  C
  H68      1.0000 0.37005  0.62599  0.79098  Biso   1.000  H
  O14      1.0000 0.66996  0.27059  0.10353  Biso   1.000  O
  H69      1.0000 0.63504  0.35203  0.00101  Biso   1.000  H
  H70      1.0000 0.68499  0.21506  0.02099  Biso   1.000  H
  C73      1.0000 0.38416  0.19413  0.75340  Biso   1.000  C
  C74      1.0000 0.48492  0.05052  0.70121  Biso   1.000  C
  H71      1.0000 0.66298  0.02600  0.65902  Biso   1.000  H
  H72      1.0000 0.64396  0.20897  0.55501  Biso   1.000  H
  C75      1.0000 0.65494  0.34489  0.54608  Biso   1.000  C
  H73      1.0000 0.64393  0.20904  0.55501  Biso   1.000  H
  H74      1.0000 0.78095  0.20697  0.50803  Biso   1.000  H
  C76      1.0000 0.65502  0.34489  0.54608  Biso   1.000  C
  H75      1.0000 0.78092  0.20705  0.50803  Biso   1.000  H
  C77      1.0000 0.65497  0.34494  0.54613  Biso   1.000  C
  C78      1.0000 0.61587  0.80579  0.24660  Biso   1.000  C
  C79      1.0000 0.61591  0.80587  0.24660  Biso   1.000  C
  O15      1.0000 0.33011  0.72938  0.89652  Biso   1.000  O
  C80      1.0000 0.40518  0.83787  0.79650  Biso   1.000  C
  C81      1.0000 0.47911  0.96029  0.68463  Biso   1.000  C
  H76      1.0000 0.85305  0.62096  0.62298  Biso   1.000  H
  C82      1.0000 0.83852  0.45263  0.64211  Biso   1.000  C
  H77      1.0000 0.85304  0.62093  0.62304  Biso   1.000  H
  H78      1.0000 0.95000  0.50494  0.67204  Biso   1.000  H
  C83      1.0000 0.80192  0.51349  0.62304  Biso   1.000  C
  H79      1.0000 0.50603  0.52493  0.69202  Biso   1.000  H
  H80      1.0000 0.39301  0.62897  0.64998  Biso   1.000  H
  H81      1.0000 0.47400  0.65398  0.69298  Biso   1.000  H
  H82      1.0000 0.39300  0.62894  0.65003  Biso   1.000  H
  H83      1.0000 0.47398  0.65396  0.69303  Biso   1.000  H
  H84      1.0000 0.50599  0.52500  0.69202  Biso   1.000  H
  H85      1.0000 0.39308  0.62894  0.65003  Biso   1.000  H
  H86      1.0000 0.47406  0.65396  0.69303  Biso   1.000  H
  C84      1.0000 0.57602  0.24743  0.14264  Biso   1.000  C
  C85      1.0000 0.57607  0.24737  0.14259  Biso   1.000  C
  O16      1.0000 0.29039  0.24663  0.79411  Biso   1.000  O
  O17      1.0000 0.29047  0.24663  0.79411  Biso   1.000  O
  C86      1.0000 0.38459  0.11112  0.73517  Biso   1.000  C
  H87      1.0000 0.60794  0.36898  0.58201  Biso   1.000  H
  C87      1.0000 0.62797  0.44202  0.46801  Biso   1.000  C
  H88      1.0000 0.60802  0.36898  0.58201  Biso   1.000  H
  C88      1.0000 0.73597  0.35203  0.53003  Biso   1.000  C
  C89      1.0000 0.66297  0.37601  0.45403  Biso   1.000  C
  C90      1.0000 0.61553  0.88880  0.26483  Biso   1.000  C
  C91      1.0000 0.61549  0.88888  0.26483  Biso   1.000  C
  C92      1.0000 0.51583  0.78344  0.26238  Biso   1.000  C
  C93      1.0000 0.30634  0.72041  0.97061  Biso   1.000  C
  C94      1.0000 0.30631  0.72049  0.97061  Biso   1.000  C
  O18      1.0000 0.29761  0.88914  0.77610  Biso   1.000  O
  O19      1.0000 0.29769  0.88914  0.77610  Biso   1.000  O
  C95      1.0000 0.56173  0.93462  0.61857  Biso   1.000  C
  C96      1.0000 0.56176  0.93467  0.61862  Biso   1.000  C
  C97      1.0000 0.56181  0.93462  0.61857  Biso   1.000  C
  H89      1.0000 0.39304  0.98600  0.67299  Biso   1.000  H
  C98      1.0000 0.93620  0.46371  0.57961  Biso   1.000  C
  C99      1.0000 0.93624  0.46379  0.57961  Biso   1.000  C
  C100     1.0000 0.93876  0.37144  0.65561  Biso   1.000  C
  C101     1.0000 0.46440  0.30849  0.12824  Biso   1.000  C
  C102     1.0000 0.59490  0.16213  0.20350  Biso   1.000  C
  C103     1.0000 0.20167  0.32522  0.75542  Biso   1.000  C
  O20      1.0000 0.28196  0.09491  0.74761  Biso   1.000  O
  C104     1.0000 0.76397  0.43099  0.43803  Biso   1.000  C
  C105     1.0000 0.66403  0.48804  0.42799  Biso   1.000  C
  C106     1.0000 0.51507  0.94945  0.29884  Biso   1.000  C
  C107     1.0000 0.51508  0.94948  0.29879  Biso   1.000  C
  O21      1.0000 0.71814  0.90499  0.25244  Biso   1.000  O
  O22      1.0000 0.71816  0.90501  0.25239  Biso   1.000  O
  O23      1.0000 0.71811  0.90506  0.25244  Biso   1.000  O
  C108     1.0000 0.41541  0.84402  0.29640  Biso   1.000  C
  C109     1.0000 0.41539  0.84400  0.29645  Biso   1.000  C
  C110     1.0000 0.41536  0.84407  0.29645  Biso   1.000  C
  O24      1.0000 0.51923  0.70026  0.24511  Biso   1.000  O
  C111     1.0000 0.18561  0.72233  0.99692  Biso   1.000  C
  C112     1.0000 0.18568  0.72233  0.99692  Biso   1.000  C
  H90      1.0000 0.36496  0.64797  0.99899  Biso   1.000  H
  H91      1.0000 0.31501  0.78494  0.97901  Biso   1.000  H
  H92      1.0000 0.36503  0.64795  0.99904  Biso   1.000  H
  H93      1.0000 0.36504  0.64797  0.99899  Biso   1.000  H
  C113     1.0000 0.21606  0.95492  0.81952  Biso   1.000  C
  C114     1.0000 0.53884  0.85714  0.59471  Biso   1.000  C
  H94      1.0000 0.64805  0.89998  0.63000  Biso   1.000  H
  H95      1.0000 0.55198  0.00605  0.57600  Biso   1.000  H
  H96      1.0000 0.92504  0.50494  0.54597  Biso   1.000  H
  H97      1.0000 0.92499  0.50499  0.54603  Biso   1.000  H
  C115     1.0000 0.37168  0.28431  0.17458  Biso   1.000  C
  C116     1.0000 0.37176  0.28431  0.17458  Biso   1.000  C
  O25      1.0000 0.44612  0.38929  0.06702  Biso   1.000  O
  C117     1.0000 0.50232  0.13793  0.24989  Biso   1.000  C
  C118     1.0000 0.50231  0.13790  0.24995  Biso   1.000  C
  O26      1.0000 0.70239  0.11086  0.22390  Biso   1.000  O
  C119     1.0000 0.10509  0.37144  0.81638  Biso   1.000  C
  H98      1.0000 0.23093  0.38503  0.71599  Biso   1.000  H
  H99      1.0000 0.16897  0.29197  0.73002  Biso   1.000  H
  H100     1.0000 0.16893  0.29204  0.73002  Biso   1.000  H
  H101     1.0000 0.23100  0.38501  0.71604  Biso   1.000  H
  C120     1.0000 0.25076  0.03651  0.82042  Biso   1.000  C
  C121     1.0000 0.52088  0.03969  0.31542  Biso   1.000  C
  C122     1.0000 0.41498  0.92703  0.31462  Biso   1.000  C
  C123     1.0000 0.74935  0.96341  0.17958  Biso   1.000  C
  C124     1.0000 0.74930  0.96346  0.17963  Biso   1.000  C
  C125     1.0000 0.31097  0.81592  0.31138  Biso   1.000  C
  C126     1.0000 0.31104  0.81589  0.31144  Biso   1.000  C
  C127     1.0000 0.31100  0.81597  0.31144  Biso   1.000  C
  C128     1.0000 0.50233  0.72672  0.17230  Biso   1.000  C
  C129     1.0000 0.16265  0.67875  0.07823  Biso   1.000  C
  C130     1.0000 0.16273  0.67875  0.07823  Biso   1.000  C
  H102     1.0000 0.12703  0.80192  0.98097  Biso   1.000  H
  H103     1.0000 0.12702  0.80190  0.98103  Biso   1.000  H
  H104     1.0000 0.12706  0.80198  0.98103  Biso   1.000  H
  H105     1.0000 0.17001  0.67500  0.97300  Biso   1.000  H
  H106     1.0000 0.20504  0.90595  0.87298  Biso   1.000  H
  H107     1.0000 0.13504  0.99189  0.79900  Biso   1.000  H
  H108     1.0000 0.20503  0.90593  0.87303  Biso   1.000  H
  H109     1.0000 0.13501  0.99197  0.79900  Biso   1.000  H
  H110     1.0000 0.13509  0.99197  0.79900  Biso   1.000  H
  H111     1.0000 0.45308  0.89292  0.58201  Biso   1.000  H
  C131     1.0000 0.62214  0.82871  0.53131  Biso   1.000  C
  H112     1.0000 0.54608  0.78593  0.63802  Biso   1.000  H
  H113     1.0000 0.54609  0.78595  0.63797  Biso   1.000  H
  H114     1.0000 0.45305  0.89300  0.58201  Biso   1.000  H
  C132     1.0000 0.62218  0.82878  0.53131  Biso   1.000  C
  C133     1.0000 0.25080  0.36081  0.16491  Biso   1.000  C
  C134     1.0000 0.39057  0.19904  0.23538  Biso   1.000  C
  C135     1.0000 0.39063  0.19902  0.23544  Biso   1.000  C
  C136     1.0000 0.42989  0.36230  0.00962  Biso   1.000  C
  C137     1.0000 0.42997  0.36230  0.00962  Biso   1.000  C
  C138     1.0000 0.78397  0.04500  0.18048  Biso   1.000  C
  C139     1.0000 0.78405  0.04500  0.18048  Biso   1.000  C
  C140     1.0000 0.13823  0.44629  0.82632  Biso   1.000  C
  C141     1.0000 0.13830  0.44629  0.82632  Biso   1.000  C
  H115     1.0000 0.10196  0.30902  0.86501  Biso   1.000  H
  H116     1.0000 0.02196  0.40896  0.79900  Biso   1.000  H
  H117     1.0000 0.02193  0.40904  0.79900  Biso   1.000  H
  H118     1.0000 0.02200  0.40904  0.79900  Biso   1.000  H
  H119     1.0000 0.32397  0.00100  0.84800  Biso   1.000  H
  H120     1.0000 0.18094  0.08903  0.84699  Biso   1.000  H
  C142     1.0000 0.43830  0.06530  0.38143  Biso   1.000  C
  H121     1.0000 0.60704  0.01400  0.32701  Biso   1.000  H
  H122     1.0000 0.33712  0.97390  0.34104  Biso   1.000  H
  H123     1.0000 0.81910  0.91089  0.15301  Biso   1.000  H
  H124     1.0000 0.67615  0.99892  0.15200  Biso   1.000  H
  H125     1.0000 0.81914  0.91097  0.15301  Biso   1.000  H
  C143     1.0000 0.24443  0.87070  0.24734  Biso   1.000  C
  C144     1.0000 0.24444  0.87072  0.24729  Biso   1.000  C
  C145     1.0000 0.24440  0.87077  0.24734  Biso   1.000  C
  H126     1.0000 0.34308  0.73190  0.31999  Biso   1.000  H
  C146     1.0000 0.23252  0.83450  0.37909  Biso   1.000  C
  H127     1.0000 0.34311  0.73195  0.32005  Biso   1.000  H
  C147     1.0000 0.23247  0.83455  0.37914  Biso   1.000  C
  H128     1.0000 0.34304  0.73197  0.31999  Biso   1.000  H
  C148     1.0000 0.23249  0.83457  0.37909  Biso   1.000  C
  C149     1.0000 0.41974  0.67807  0.17400  Biso   1.000  C
  H129     1.0000 0.46713  0.81091  0.15099  Biso   1.000  H
  H130     1.0000 0.46708  0.81097  0.15104  Biso   1.000  H
  H131     1.0000 0.58309  0.69591  0.14004  Biso   1.000  H
  C150     1.0000 0.12416  0.75502  0.12101  Biso   1.000  C
  C151     1.0000 0.12424  0.75502  0.12101  Biso   1.000  C
  H132     1.0000 0.24105  0.61795  0.09503  Biso   1.000  H
  H133     1.0000 0.09709  0.64498  0.09099  Biso   1.000  H
  H134     1.0000 0.09708  0.64495  0.09104  Biso   1.000  H
  H135     1.0000 0.24113  0.61795  0.09503  Biso   1.000  H
  H136     1.0000 0.62006  0.89995  0.48900  Biso   1.000  H
  H137     1.0000 0.70705  0.78794  0.54603  Biso   1.000  H
  C152     1.0000 0.59398  0.75937  0.50399  Biso   1.000  C
  H138     1.0000 0.26104  0.43401  0.13100  Biso   1.000  H
  C153     1.0000 0.19058  0.32882  0.12601  Biso   1.000  C
  C154     1.0000 0.19065  0.32882  0.12601  Biso   1.000  C
  C155     1.0000 0.17691  0.38141  0.23374  Biso   1.000  C
  H139     1.0000 0.31898  0.18003  0.27104  Biso   1.000  H
  C156     1.0000 0.33194  0.44361  0.97428  Biso   1.000  C
  C157     1.0000 0.33192  0.44359  0.97433  Biso   1.000  C
  C158     1.0000 0.33200  0.44359  0.97433  Biso   1.000  C
  H140     1.0000 0.41401  0.28901  0.03199  Biso   1.000  H
  H141     1.0000 0.50695  0.35303  0.97098  Biso   1.000  H
  H142     1.0000 0.50694  0.35301  0.97104  Biso   1.000  H
  H143     1.0000 0.86499  0.00803  0.20100  Biso   1.000  H
  H144     1.0000 0.79496  0.09405  0.12702  Biso   1.000  H
  C159     1.0000 0.09237  0.44598  0.90678  Biso   1.000  C
  C160     1.0000 0.09232  0.44603  0.90684  Biso   1.000  C
  H145     1.0000 0.23100  0.42396  0.81601  Biso   1.000  H
  H146     1.0000 0.23096  0.42404  0.81601  Biso   1.000  H
  H147     1.0000 0.09996  0.52299  0.79103  Biso   1.000  H
  H148     1.0000 0.44810  0.99395  0.42400  Biso   1.000  H
  C161     1.0000 0.46119  0.14276  0.40534  Biso   1.000  C
  H149     1.0000 0.35203  0.10002  0.37000  Biso   1.000  H
  C162     1.0000 0.46115  0.14283  0.40534  Biso   1.000  C
  C163     1.0000 0.17554  0.97675  0.23299  Biso   1.000  C
  C164     1.0000 0.25250  0.81244  0.20424  Biso   1.000  C
  H150     1.0000 0.20612  0.91692  0.37500  Biso   1.000  H
  H151     1.0000 0.15810  0.81594  0.38302  Biso   1.000  H
  C165     1.0000 0.28168  0.77161  0.44882  Biso   1.000  C
  O27      1.0000 0.31435  0.70608  0.21933  Biso   1.000  O
  H152     1.0000 0.40112  0.70190  0.12101  Biso   1.000  H
  H153     1.0000 0.46104  0.59397  0.19101  Biso   1.000  H
  H154     1.0000 0.40108  0.70197  0.12101  Biso   1.000  H
  H155     1.0000 0.46111  0.59397  0.19101  Biso   1.000  H
  O28      1.0000 0.20948  0.80410  0.09991  Biso   1.000  O
  O29      1.0000 0.20952  0.80418  0.09991  Biso   1.000  O
  H156     1.0000 0.04111  0.81390  0.11001  Biso   1.000  H
  H157     1.0000 0.11907  0.71391  0.17703  Biso   1.000  H
  H158     1.0000 0.04107  0.81398  0.11001  Biso   1.000  H
  H159     1.0000 0.11914  0.71391  0.17703  Biso   1.000  H
  H160     1.0000 0.51001  0.80097  0.48799  Biso   1.000  H
  C166     1.0000 0.67998  0.72815  0.44149  Biso   1.000  C
  H161     1.0000 0.59303  0.68894  0.54704  Biso   1.000  H
  H162     1.0000 0.51008  0.80097  0.48799  Biso   1.000  H
  C167     1.0000 0.14277  0.25108  0.16162  Biso   1.000  C
  C168     1.0000 0.19945  0.36879  0.05219  Biso   1.000  C
  C169     1.0000 0.14285  0.25108  0.16162  Biso   1.000  C
  C170     1.0000 0.19944  0.36876  0.05224  Biso   1.000  C
  C171     1.0000 0.19940  0.36884  0.05224  Biso   1.000  C
  H163     1.0000 0.09101  0.42996  0.22300  Biso   1.000  H
  C172     1.0000 0.21823  0.43407  0.26780  Biso   1.000  C
  H164     1.0000 0.17600  0.30703  0.27099  Biso   1.000  H
  H165     1.0000 0.09106  0.43003  0.22300  Biso   1.000  H
  C173     1.0000 0.21819  0.43415  0.26780  Biso   1.000  C
  O30      1.0000 0.22643  0.45813  0.01988  Biso   1.000  O
  O31      1.0000 0.22642  0.45811  0.01993  Biso   1.000  O
  H166     1.0000 0.34693  0.51701  0.95398  Biso   1.000  H
  H167     1.0000 0.34699  0.51698  0.95403  Biso   1.000  H
  H168     1.0000 0.32693  0.42104  0.93102  Biso   1.000  H
  H169     1.0000 0.34700  0.51701  0.95398  Biso   1.000  H
  O32      1.0000 0.18202  0.35923  0.94149  Biso   1.000  O
  O33      1.0000 0.18208  0.35920  0.94154  Biso   1.000  O
  H170     1.0000 0.01193  0.43296  0.92501  Biso   1.000  H
  H171     1.0000 0.01197  0.43304  0.92501  Biso   1.000  H
  H172     1.0000 0.08300  0.51802  0.91502  Biso   1.000  H
  H173     1.0000 0.45402  0.21398  0.36203  Biso   1.000  H
  C174     1.0000 0.37788  0.17119  0.46875  Biso   1.000  C
  H174     1.0000 0.54703  0.10700  0.41799  Biso   1.000  H
  C175     1.0000 0.11461  0.02437  0.17559  Biso   1.000  C
  C176     1.0000 0.11457  0.02442  0.17565  Biso   1.000  C
  C177     1.0000 0.11458  0.02445  0.17559  Biso   1.000  C
  H175     1.0000 0.16897  0.02202  0.26605  Biso   1.000  H
  H176     1.0000 0.16898  0.02205  0.26600  Biso   1.000  H
  C178     1.0000 0.19169  0.86014  0.14668  Biso   1.000  C
  C179     1.0000 0.19167  0.86011  0.14674  Biso   1.000  C
  C180     1.0000 0.19175  0.86011  0.14674  Biso   1.000  C
  H177     1.0000 0.35607  0.79096  0.44499  Biso   1.000  H
  H178     1.0000 0.21907  0.79293  0.49203  Biso   1.000  H
  C181     1.0000 0.34509  0.65503  0.45392  Biso   1.000  C
  H179     1.0000 0.35606  0.79093  0.44504  Biso   1.000  H
  H180     1.0000 0.64707  0.68490  0.42501  Biso   1.000  H
  H181     1.0000 0.69805  0.78894  0.39600  Biso   1.000  H
  H182     1.0000 0.75704  0.67593  0.46397  Biso   1.000  H
  H183     1.0000 0.64703  0.68498  0.42501  Biso   1.000  H
  H184     1.0000 0.75700  0.67600  0.46397  Biso   1.000  H
  H185     1.0000 0.75707  0.67598  0.46402  Biso   1.000  H
  H186     1.0000 0.13602  0.21998  0.21901  Biso   1.000  H
  C182     1.0000 0.10389  0.21338  0.12341  Biso   1.000  C
  C183     1.0000 0.10393  0.21346  0.12341  Biso   1.000  C
  C184     1.0000 0.16057  0.33109  0.01398  Biso   1.000  C
  C185     1.0000 0.16052  0.33114  0.01403  Biso   1.000  C
  H187     1.0000 0.18306  0.51696  0.24102  Biso   1.000  H
  H188     1.0000 0.31103  0.40699  0.25398  Biso   1.000  H
  H189     1.0000 0.31102  0.40696  0.25404  Biso   1.000  H
  C186     1.0000 0.12234  0.46300  0.33843  Biso   1.000  C
  C187     1.0000 0.12235  0.46302  0.33838  Biso   1.000  C
  H190     1.0000 0.18303  0.51704  0.24102  Biso   1.000  H
  C188     1.0000 0.18985  0.43191  0.33928  Biso   1.000  C
  H191     1.0000 0.29297  0.21196  0.45403  Biso   1.000  H
  C189     1.0000 0.40613  0.24055  0.49601  Biso   1.000  C
  H192     1.0000 0.29305  0.21196  0.45403  Biso   1.000  H
  H193     1.0000 0.37996  0.09995  0.51105  Biso   1.000  H
  C190     1.0000 0.40609  0.24063  0.49601  Biso   1.000  C
  H194     1.0000 0.29301  0.21203  0.45403  Biso   1.000  H
  H195     1.0000 0.38000  0.10003  0.51105  Biso   1.000  H
  C191     1.0000 0.03469  0.14002  0.16093  Biso   1.000  C
  C192     1.0000 0.12284  0.96599  0.13244  Biso   1.000  C
  C193     1.0000 0.12280  0.96607  0.13244  Biso   1.000  C
  H196     1.0000 0.39208  0.63093  0.41805  Biso   1.000  H
  C194     1.0000 0.37203  0.55798  0.53199  Biso   1.000  C
  C195     1.0000 0.26402  0.64795  0.47002  Biso   1.000  C
  C196     1.0000 0.33705  0.62389  0.54602  Biso   1.000  C
  C197     1.0000 0.11268  0.25333  0.04964  Biso   1.000  C
  C198     1.0000 0.11269  0.25335  0.04959  Biso   1.000  C
  H197     1.0000 0.14699  0.37897  0.37702  Biso   1.000  H
  H198     1.0000 0.05002  0.49496  0.32802  Biso   1.000  H
  C199     1.0000 0.16151  0.54729  0.35789  Biso   1.000  C
  C200     1.0000 0.16150  0.54727  0.35794  Biso   1.000  C
  H199     1.0000 0.14703  0.37904  0.37702  Biso   1.000  H
  H200     1.0000 0.04998  0.49503  0.32802  Biso   1.000  H
  C201     1.0000 0.16158  0.54727  0.35794  Biso   1.000  C
  C202     1.0000 0.19814  0.48649  0.37702  Biso   1.000  C
  H201     1.0000 0.40699  0.31096  0.45302  Biso   1.000  H
  H202     1.0000 0.48999  0.19903  0.51201  Biso   1.000  H
  C203     1.0000 0.32014  0.27177  0.55851  Biso   1.000  C
  H203     1.0000 0.40703  0.31104  0.45302  Biso   1.000  H
  C204     1.0000 0.32010  0.27185  0.55851  Biso   1.000  C
  C205     1.0000 0.95250  0.16397  0.22768  Biso   1.000  C
  C206     1.0000 0.95253  0.16402  0.22773  Biso   1.000  C
  H204     1.0000 0.98006  0.15498  0.12399  Biso   1.000  H
  C207     1.0000 0.95254  0.16404  0.22768  Biso   1.000  C
  H205     1.0000 0.98001  0.15503  0.12404  Biso   1.000  H
  O34      1.0000 0.05981  0.00997  0.07674  Biso   1.000  O
  O35      1.0000 0.05978  0.01004  0.07674  Biso   1.000  O
  C208     1.0000 0.23606  0.56892  0.56202  Biso   1.000  C
  C209     1.0000 0.33608  0.51189  0.57201  Biso   1.000  C
  O36      1.0000 0.08537  0.20992  0.01089  Biso   1.000  O
  C210     1.0000 0.06383  0.53619  0.42044  Biso   1.000  C
  C211     1.0000 0.06136  0.62849  0.34439  Biso   1.000  C
  H206     1.0000 0.30199  0.21098  0.60400  Biso   1.000  H
  H207     1.0000 0.24300  0.32400  0.53603  Biso   1.000  H
  H208     1.0000 0.35303  0.31500  0.57504  Biso   1.000  H
  H209     1.0000 0.99997  0.16701  0.26201  Biso   1.000  H
  C212     1.0000 0.85478  0.26739  0.20940  Biso   1.000  C
  H210     1.0000 0.91795  0.10202  0.25505  Biso   1.000  H
  C213     1.0000 0.85485  0.26739  0.20940  Biso   1.000  C
  H211     1.0000 0.91796  0.10204  0.25499  Biso   1.000  H
  H212     1.0000 0.91802  0.10202  0.25505  Biso   1.000  H
  H213     1.0000 0.00005  0.16701  0.26201  Biso   1.000  H
  C214     1.0000 0.12146  0.03829  0.00702  Biso   1.000  C
  C215     1.0000 0.17584  0.11752  0.99660  Biso   1.000  C
  H214     1.0000 0.07500  0.49499  0.45403  Biso   1.000  H
  H215     1.0000 0.81601  0.26803  0.16900  Biso   1.000  H
  H216     1.0000 0.88900  0.32999  0.18904  Biso   1.000  H
  C216     1.0000 0.76348  0.28704  0.27243  Biso   1.000  C
  H217     1.0000 0.18911  0.96711  0.00298  Biso   1.000  H
  H218     1.0000 0.18914  0.96717  0.00303  Biso   1.000  H
  H219     1.0000 0.06190  0.07098  0.96902  Biso   1.000  H
  H220     1.0000 0.06198  0.07098  0.96902  Biso   1.000  H
  H221     1.0000 0.06194  0.07106  0.96902  Biso   1.000  H
  H222     1.0000 0.23700  0.08602  0.03300  Biso   1.000  H
  H223     1.0000 0.21899  0.13701  0.94303  Biso   1.000  H
  H224     1.0000 0.79797  0.29899  0.30899  Biso   1.000  H
  C217     1.0000 0.65770  0.38317  0.25042  Biso   1.000  C
  H225     1.0000 0.73799  0.21900  0.29804  Biso   1.000  H
  H226     1.0000 0.79804  0.29896  0.30904  Biso   1.000  H
  H227     1.0000 0.79805  0.29899  0.30899  Biso   1.000  H
  H228     1.0000 0.79800  0.29904  0.30904  Biso   1.000  H
  C218     1.0000 0.65774  0.38324  0.25042  Biso   1.000  C
  H229     1.0000 0.63003  0.37401  0.20902  Biso   1.000  H
  H230     1.0000 0.68300  0.45095  0.22901  Biso   1.000  H
  C219     1.0000 0.56235  0.40147  0.30559  Biso   1.000  C
  H231     1.0000 0.68304  0.45102  0.22901  Biso   1.000  H
  C220     1.0000 0.56230  0.40153  0.30564  Biso   1.000  C
  H232     1.0000 0.49401  0.47500  0.30798  Biso   1.000  H
  H233     1.0000 0.52604  0.34595  0.30702  Biso   1.000  H
  H234     1.0000 0.52600  0.34602  0.30702  Biso   1.000  H
  H235     1.0000 0.49407  0.47498  0.30803  Biso   1.000  H
  H236     1.0000 0.60699  0.37103  0.35002  Biso   1.000  H
