data_image0
_cell_length_a       12.984
_cell_length_b       14.664
_cell_length_c       20.454
_cell_angle_alpha    68.5
_cell_angle_beta     73.72
_cell_angle_gamma    65.18

_symmetry_space_group_name_H-M    "P 1"
_symmetry_int_tables_number       1

loop_
  _symmetry_equiv_pos_as_xyz
  'x, y, z'

loop_
  _atom_site_label
  _atom_site_occupancy
  _atom_site_fract_x
  _atom_site_fract_y
  _atom_site_fract_z
  _atom_site_thermal_displace_type
  _atom_site_B_iso_or_equiv
  _atom_site_type_symbol
  C1       1.0000 0.50227  0.72676  0.17230  Biso   1.000  C
  C2       1.0000 0.41969  0.67811  0.17400  Biso   1.000  C
  H1       1.0000 0.46707  0.81095  0.15099  Biso   1.000  H
  H2       1.0000 0.58305  0.69597  0.13999  Biso   1.000  H
  O1       1.0000 0.51909  0.70029  0.24511  Biso   1.000  O
  O2       1.0000 0.31435  0.70607  0.21928  Biso   1.000  O
  H3       1.0000 0.46098  0.59401  0.19101  Biso   1.000  H
  H4       1.0000 0.40102  0.70201  0.12101  Biso   1.000  H
  C3       1.0000 0.51578  0.78348  0.26238  Biso   1.000  C
  C4       1.0000 0.25245  0.81250  0.20419  Biso   1.000  C
  C5       1.0000 0.41535  0.84406  0.29640  Biso   1.000  C
  C6       1.0000 0.61586  0.80591  0.24660  Biso   1.000  C
  C7       1.0000 0.19163  0.86017  0.14668  Biso   1.000  C
  C8       1.0000 0.24439  0.87076  0.24729  Biso   1.000  C
  C9       1.0000 0.31092  0.81595  0.31138  Biso   1.000  C
  C10      1.0000 0.41493  0.92706  0.31462  Biso   1.000  C
  C11      1.0000 0.61547  0.88884  0.26483  Biso   1.000  C
  O3       1.0000 0.70955  0.75341  0.20589  Biso   1.000  O
  O4       1.0000 0.20943  0.80414  0.09991  Biso   1.000  O
  C12      1.0000 0.12280  0.96605  0.13239  Biso   1.000  C
  C13      1.0000 0.17548  0.97678  0.23299  Biso   1.000  C
  H5       1.0000 0.34299  0.73201  0.31999  Biso   1.000  H
  C14      1.0000 0.23243  0.83461  0.37909  Biso   1.000  C
  C15      1.0000 0.51502  0.94951  0.29879  Biso   1.000  C
  H6       1.0000 0.33708  0.97396  0.34098  Biso   1.000  H
  O5       1.0000 0.71810  0.90505  0.25239  Biso   1.000  O
  C16      1.0000 0.79835  0.67482  0.24458  Biso   1.000  C
  C17      1.0000 0.12418  0.75506  0.12101  Biso   1.000  C
  O6       1.0000 0.05977  0.01003  0.07669  Biso   1.000  O
  C18      1.0000 0.11456  0.02441  0.17559  Biso   1.000  C
  H7       1.0000 0.16896  0.02201  0.26600  Biso   1.000  H
  H8       1.0000 0.20606  0.91695  0.37500  Biso   1.000  H
  H9       1.0000 0.15805  0.81597  0.38302  Biso   1.000  H
  C19      1.0000 0.28163  0.77165  0.44882  Biso   1.000  C
  C20      1.0000 0.52082  0.03973  0.31542  Biso   1.000  C
  C21      1.0000 0.74929  0.96345  0.17958  Biso   1.000  C
  C22      1.0000 0.89493  0.62860  0.18362  Biso   1.000  C
  H10      1.0000 0.76901  0.61501  0.28401  Biso   1.000  H
  H11      1.0000 0.83101  0.70800  0.26998  Biso   1.000  H
  C23      1.0000 0.16261  0.67881  0.07818  Biso   1.000  C
  H12      1.0000 0.11902  0.71397  0.17698  Biso   1.000  H
  H13      1.0000 0.04105  0.81394  0.11001  Biso   1.000  H
  C24      1.0000 0.12133  0.03833  0.00702  Biso   1.000  C
  C25      1.0000 0.03467  0.13998  0.16093  Biso   1.000  C
  H14      1.0000 0.35602  0.79099  0.44499  Biso   1.000  H
  H15      1.0000 0.21901  0.79297  0.49203  Biso   1.000  H
  C26      1.0000 0.34504  0.65507  0.45392  Biso   1.000  C
  C27      1.0000 0.50227  0.13796  0.24989  Biso   1.000  C
  H16      1.0000 0.60691  0.01404  0.32701  Biso   1.000  H
  C28      1.0000 0.43825  0.06534  0.38143  Biso   1.000  C
  H17      1.0000 0.67609  0.99896  0.15200  Biso   1.000  H
  H18      1.0000 0.81901  0.91100  0.15301  Biso   1.000  H
  C29      1.0000 0.78392  0.04504  0.18048  Biso   1.000  C
  C30      1.0000 0.86175  0.55367  0.17368  Biso   1.000  C
  H19      1.0000 0.89806  0.69101  0.13499  Biso   1.000  H
  H20      1.0000 0.97802  0.59100  0.20100  Biso   1.000  H
  H21      1.0000 0.24100  0.61799  0.09503  Biso   1.000  H
  H22      1.0000 0.09704  0.64501  0.09099  Biso   1.000  H
  C31      1.0000 0.18563  0.72236  0.99692  Biso   1.000  C
  H23      1.0000 0.18905  0.96715  0.00298  Biso   1.000  H
  C32      1.0000 0.17590  0.11748  0.99660  Biso   1.000  C
  H24      1.0000 0.06204  0.07094  0.96902  Biso   1.000  H
  H25      1.0000 0.97992  0.15502  0.12399  Biso   1.000  H
  C33      1.0000 0.95244  0.16400  0.22768  Biso   1.000  C
  C34      1.0000 0.10384  0.21342  0.12341  Biso   1.000  C
  H26      1.0000 0.39204  0.63099  0.41799  Biso   1.000  H
  C35      1.0000 0.37198  0.55801  0.53199  Biso   1.000  C
  C36      1.0000 0.26404  0.64799  0.47002  Biso   1.000  C
  C37      1.0000 0.33700  0.62393  0.54602  Biso   1.000  C
  C38      1.0000 0.39055  0.19900  0.23538  Biso   1.000  C
  C39      1.0000 0.59488  0.16209  0.20350  Biso   1.000  C
  H27      1.0000 0.44804  0.99398  0.42400  Biso   1.000  H
  H28      1.0000 0.35190  0.10006  0.37000  Biso   1.000  H
  C40      1.0000 0.46114  0.14282  0.40529  Biso   1.000  C
  O7       1.0000 0.70237  0.11082  0.22390  Biso   1.000  O
  H29      1.0000 0.79494  0.09401  0.12702  Biso   1.000  H
  H30      1.0000 0.86494  0.00807  0.20100  Biso   1.000  H
  C41      1.0000 0.90761  0.55399  0.09322  Biso   1.000  C
  H31      1.0000 0.76906  0.57600  0.18399  Biso   1.000  H
  H32      1.0000 0.90000  0.47695  0.20902  Biso   1.000  H
  C42      1.0000 0.30625  0.72052  0.97061  Biso   1.000  C
  H33      1.0000 0.12700  0.80201  0.98103  Biso   1.000  H
  H34      1.0000 0.16995  0.67504  0.97300  Biso   1.000  H
  H35      1.0000 0.21897  0.13697  0.94303  Biso   1.000  H
  O8       1.0000 0.08523  0.20996  0.01089  Biso   1.000  O
  H36      1.0000 0.23695  0.08606  0.03300  Biso   1.000  H
  H37      1.0000 0.91794  0.10200  0.25499  Biso   1.000  H
  C43      1.0000 0.85472  0.26743  0.20940  Biso   1.000  C
  H38      1.0000 0.99992  0.16705  0.26201  Biso   1.000  H
  C44      1.0000 0.14272  0.25112  0.16162  Biso   1.000  C
  C45      1.0000 0.11267  0.25331  0.04959  Biso   1.000  C
  C46      1.0000 0.23600  0.56895  0.56202  Biso   1.000  C
  C47      1.0000 0.33599  0.51200  0.57201  Biso   1.000  C
  C48      1.0000 0.37162  0.28435  0.17458  Biso   1.000  C
  H39      1.0000 0.31898  0.18002  0.27099  Biso   1.000  H
  C49      1.0000 0.57594  0.24741  0.14259  Biso   1.000  C
  H40      1.0000 0.45397  0.21401  0.36203  Biso   1.000  H
  H41      1.0000 0.54690  0.10704  0.41799  Biso   1.000  H
  C50      1.0000 0.37784  0.17125  0.46869  Biso   1.000  C
  O9       1.0000 0.81793  0.64081  0.05851  Biso   1.000  O
  H42      1.0000 0.98805  0.56700  0.07499  Biso   1.000  H
  H43      1.0000 0.91702  0.48202  0.08498  Biso   1.000  H
  O10      1.0000 0.33005  0.72942  0.89652  Biso   1.000  O
  H44      1.0000 0.36497  0.64799  0.99904  Biso   1.000  H
  H45      1.0000 0.31496  0.78498  0.97901  Biso   1.000  H
  H46      1.0000 0.81599  0.26799  0.16900  Biso   1.000  H
  H47      1.0000 0.88896  0.33005  0.18899  Biso   1.000  H
  C51      1.0000 0.76346  0.28700  0.27243  Biso   1.000  C
  C52      1.0000 0.19052  0.32886  0.12601  Biso   1.000  C
  H48      1.0000 0.13596  0.22002  0.21901  Biso   1.000  H
  C53      1.0000 0.16051  0.33113  0.01398  Biso   1.000  C
  C54      1.0000 0.25075  0.36085  0.16491  Biso   1.000  C
  C55      1.0000 0.46436  0.30855  0.12819  Biso   1.000  C
  O11      1.0000 0.66984  0.27065  0.10348  Biso   1.000  O
  H49      1.0000 0.29292  0.21200  0.45403  Biso   1.000  H
  H50      1.0000 0.37992  0.10001  0.51100  Biso   1.000  H
  C56      1.0000 0.40607  0.24059  0.49601  Biso   1.000  C
  C57      1.0000 0.83949  0.66887  0.98602  Biso   1.000  C
  C58      1.0000 0.42399  0.75259  0.85741  Biso   1.000  C
  H51      1.0000 0.73794  0.21906  0.29799  Biso   1.000  H
  H52      1.0000 0.79792  0.29902  0.30899  Biso   1.000  H
  C59      1.0000 0.65764  0.38320  0.25042  Biso   1.000  C
  C60      1.0000 0.19940  0.36882  0.05219  Biso   1.000  C
  O12      1.0000 0.18214  0.35917  0.94154  Biso   1.000  O
  H53      1.0000 0.26098  0.43404  0.13100  Biso   1.000  H
  C61      1.0000 0.17687  0.38147  0.23368  Biso   1.000  C
  O13      1.0000 0.44607  0.38932  0.06702  Biso   1.000  O
  C62      1.0000 0.69364  0.27955  0.02939  Biso   1.000  C
  H54      1.0000 0.40693  0.31100  0.45302  Biso   1.000  H
  H55      1.0000 0.48997  0.19899  0.51201  Biso   1.000  H
  C63      1.0000 0.32000  0.27181  0.55851  Biso   1.000  C
  C64      1.0000 0.80060  0.63118  0.94781  Biso   1.000  C
  C65      1.0000 0.88725  0.74669  0.95041  Biso   1.000  C
  C66      1.0000 0.53553  0.69152  0.87181  Biso   1.000  C
  C67      1.0000 0.40512  0.83790  0.79650  Biso   1.000  C
  H56      1.0000 0.62997  0.37405  0.20902  Biso   1.000  H
  H57      1.0000 0.68295  0.45098  0.22901  Biso   1.000  H
  C68      1.0000 0.56229  0.40151  0.30559  Biso   1.000  C
  O14      1.0000 0.22638  0.45817  0.01988  Biso   1.000  O
  C69      1.0000 0.09238  0.44599  0.90684  Biso   1.000  C
  H58      1.0000 0.09096  0.43000  0.22300  Biso   1.000  H
  H59      1.0000 0.17598  0.30699  0.27099  Biso   1.000  H
  C70      1.0000 0.21817  0.43411  0.26780  Biso   1.000  C
  C71      1.0000 0.42983  0.36234  0.00962  Biso   1.000  C
  H60      1.0000 0.63502  0.35199  0.00101  Biso   1.000  H
  H61      1.0000 0.68497  0.21502  0.02099  Biso   1.000  H
  C72      1.0000 0.81437  0.27764  0.00308  Biso   1.000  C
  H62      1.0000 0.35291  0.31506  0.57499  Biso   1.000  H
  H63      1.0000 0.30193  0.21102  0.60400  Biso   1.000  H
  H64      1.0000 0.24294  0.32403  0.53603  Biso   1.000  H
  C73      1.0000 0.80937  0.67122  0.87399  Biso   1.000  C
  O15      1.0000 0.77359  0.54190  0.98012  Biso   1.000  O
  C74      1.0000 0.89609  0.78658  0.87659  Biso   1.000  C
  O16      1.0000 0.91466  0.79012  0.98911  Biso   1.000  O
  C75      1.0000 0.62827  0.71573  0.82542  Biso   1.000  C
  O17      1.0000 0.55392  0.61065  0.93304  Biso   1.000  O
  O18      1.0000 0.29764  0.88918  0.77610  Biso   1.000  O
  C76      1.0000 0.49770  0.86211  0.75011  Biso   1.000  C
  H65      1.0000 0.49395  0.47504  0.30798  Biso   1.000  H
  H66      1.0000 0.60697  0.37100  0.35002  Biso   1.000  H
  H67      1.0000 0.52598  0.34598  0.30702  Biso   1.000  H
  C77      1.0000 0.33198  0.44355  0.97433  Biso   1.000  C
  H68      1.0000 0.01203  0.43300  0.92501  Biso   1.000  H
  H69      1.0000 0.08298  0.51798  0.91502  Biso   1.000  H
  C78      1.0000 0.13836  0.44625  0.82632  Biso   1.000  C
  H70      1.0000 0.18301  0.51700  0.24102  Biso   1.000  H
  H71      1.0000 0.31098  0.40702  0.25398  Biso   1.000  H
  C79      1.0000 0.12222  0.46306  0.33838  Biso   1.000  C
  C80      1.0000 0.18979  0.43195  0.33928  Biso   1.000  C
  H72      1.0000 0.50700  0.35297  0.97104  Biso   1.000  H
  H73      1.0000 0.41396  0.28905  0.03199  Biso   1.000  H
  C81      1.0000 0.83739  0.32119  0.92182  Biso   1.000  C
  H74      1.0000 0.87295  0.19804  0.01903  Biso   1.000  H
  H75      1.0000 0.82994  0.32504  0.02700  Biso   1.000  H
  C82      1.0000 0.74913  0.63920  0.83514  Biso   1.000  C
  C83      1.0000 0.85719  0.74886  0.83844  Biso   1.000  C
  C84      1.0000 0.66804  0.55635  0.02572  Biso   1.000  C
  C85      1.0000 0.96532  0.85999  0.83913  Biso   1.000  C
  C86      1.0000 0.82414  0.88245  0.00340  Biso   1.000  C
  C87      1.0000 0.60937  0.80100  0.76462  Biso   1.000  C
  C88      1.0000 0.57004  0.63771  0.99043  Biso   1.000  C
  C89      1.0000 0.21601  0.95496  0.81952  Biso   1.000  C
  C90      1.0000 0.47905  0.96032  0.68463  Biso   1.000  C
  H76      1.0000 0.34705  0.51695  0.95403  Biso   1.000  H
  H77      1.0000 0.32699  0.42100  0.93102  Biso   1.000  H
  H78      1.0000 0.23102  0.42400  0.81601  Biso   1.000  H
  H79      1.0000 0.10002  0.52296  0.79103  Biso   1.000  H
  C91      1.0000 0.10513  0.37138  0.81643  Biso   1.000  C
  H80      1.0000 0.14693  0.37901  0.37702  Biso   1.000  H
  H81      1.0000 0.04996  0.49500  0.32802  Biso   1.000  H
  C92      1.0000 0.16146  0.54733  0.35789  Biso   1.000  C
  C93      1.0000 0.19808  0.48652  0.37702  Biso   1.000  C
  C94      1.0000 0.87592  0.24485  0.87904  Biso   1.000  C
  H82      1.0000 0.75899  0.38199  0.90503  Biso   1.000  H
  H83      1.0000 0.90296  0.35499  0.90901  Biso   1.000  H
  H84      1.0000 0.73898  0.56603  0.86900  Biso   1.000  H
  C95      1.0000 0.82310  0.61861  0.76632  Biso   1.000  C
  H85      1.0000 0.86402  0.77996  0.78104  Biso   1.000  H
  H86      1.0000 0.65305  0.48296  0.04602  Biso   1.000  H
  H87      1.0000 0.67302  0.57900  0.06898  Biso   1.000  H
  C96      1.0000 0.88537  0.97559  0.82441  Biso   1.000  C
  H88      1.0000 0.02000  0.84498  0.87601  Biso   1.000  H
  C97      1.0000 0.04748  0.83600  0.77232  Biso   1.000  C
  H89      1.0000 0.78106  0.86293  0.05703  Biso   1.000  H
  H90      1.0000 0.76302  0.91401  0.96700  Biso   1.000  H
  C98      1.0000 0.87858  0.96165  0.99304  Biso   1.000  C
  H91      1.0000 0.68103  0.81998  0.72901  Biso   1.000  H
  H92      1.0000 0.49299  0.64700  0.02902  Biso   1.000  H
  H93      1.0000 0.58593  0.71103  0.96801  Biso   1.000  H
  H94      1.0000 0.20497  0.90597  0.87303  Biso   1.000  H
  H95      1.0000 0.13503  0.99200  0.79900  Biso   1.000  H
  C99      1.0000 0.25082  0.03648  0.82042  Biso   1.000  C
  H96      1.0000 0.39298  0.98604  0.67299  Biso   1.000  H
  C100     1.0000 0.56170  0.93471  0.61862  Biso   1.000  C
  C101     1.0000 0.48498  0.05049  0.70121  Biso   1.000  C
  C102     1.0000 0.20173  0.32518  0.75542  Biso   1.000  C
  H97      1.0000 0.10202  0.30899  0.86501  Biso   1.000  H
  H98      1.0000 0.02198  0.40900  0.79900  Biso   1.000  H
  C103     1.0000 0.06378  0.53625  0.42039  Biso   1.000  C
  C104     1.0000 0.06130  0.62853  0.34439  Biso   1.000  C
  O19      1.0000 0.79060  0.19576  0.90014  Biso   1.000  O
  H99      1.0000 0.88101  0.28595  0.82302  Biso   1.000  H
  H100     1.0000 0.95897  0.18596  0.89004  Biso   1.000  H
  H101     1.0000 0.90897  0.57000  0.77700  Biso   1.000  H
  H102     1.0000 0.82402  0.69301  0.72901  Biso   1.000  H
  C105     1.0000 0.78183  0.56589  0.73220  Biso   1.000  C
  C106     1.0000 0.82460  0.02322  0.76701  Biso   1.000  C
  C107     1.0000 0.87732  0.03387  0.86761  Biso   1.000  C
  H103     1.0000 0.99997  0.83303  0.73799  Biso   1.000  H
  H104     1.0000 0.08199  0.89800  0.74501  Biso   1.000  H
  C108     1.0000 0.14520  0.73257  0.79060  Biso   1.000  C
  O20      1.0000 0.94023  0.98997  0.92331  Biso   1.000  O
  H105     1.0000 0.93808  0.92898  0.03098  Biso   1.000  H
  H106     1.0000 0.81099  0.03277  0.99702  Biso   1.000  H
  O21      1.0000 0.28201  0.09488  0.74761  Biso   1.000  O
  H107     1.0000 0.32402  0.00096  0.84800  Biso   1.000  H
  H108     1.0000 0.18099  0.08900  0.84699  Biso   1.000  H
  H109     1.0000 0.64799  0.90002  0.63000  Biso   1.000  H
  C109     1.0000 0.53878  0.85718  0.59471  Biso   1.000  C
  H110     1.0000 0.55196  0.00601  0.57600  Biso   1.000  H
  C110     1.0000 0.58509  0.07284  0.68543  Biso   1.000  C
  C111     1.0000 0.38463  0.11106  0.73523  Biso   1.000  C
  O22      1.0000 0.29052  0.24659  0.79411  Biso   1.000  O
  H111     1.0000 0.23098  0.38497  0.71604  Biso   1.000  H
  H112     1.0000 0.16899  0.29200  0.73002  Biso   1.000  H
  H113     1.0000 0.07494  0.49503  0.45403  Biso   1.000  H
  C112     1.0000 0.80841  0.13975  0.85332  Biso   1.000  C
  H114     1.0000 0.81698  0.48298  0.75904  Biso   1.000  H
  H115     1.0000 0.68902  0.59298  0.74602  Biso   1.000  H
  C113     1.0000 0.87767  0.53702  0.66162  Biso   1.000  C
  C114     1.0000 0.81017  0.56813  0.66072  Biso   1.000  C
  C115     1.0000 0.75573  0.12917  0.75271  Biso   1.000  C
  H116     1.0000 0.83104  0.97799  0.73400  Biso   1.000  H
  H117     1.0000 0.18401  0.73201  0.83100  Biso   1.000  H
  H118     1.0000 0.11100  0.67003  0.81101  Biso   1.000  H
  C116     1.0000 0.23653  0.71297  0.72763  Biso   1.000  C
  H119     1.0000 0.54602  0.78596  0.63802  Biso   1.000  H
  H120     1.0000 0.45299  0.89304  0.58201  Biso   1.000  H
  C117     1.0000 0.62212  0.82882  0.53131  Biso   1.000  C
  C118     1.0000 0.58469  0.15587  0.70360  Biso   1.000  C
  H121     1.0000 0.66304  0.02596  0.65902  Biso   1.000  H
  C119     1.0000 0.38422  0.19409  0.75340  Biso   1.000  C
  C120     1.0000 0.74763  0.18750  0.79581  Biso   1.000  C
  H122     1.0000 0.85298  0.62097  0.62304  Biso   1.000  H
  H123     1.0000 0.94995  0.50498  0.67204  Biso   1.000  H
  C121     1.0000 0.83847  0.45267  0.64211  Biso   1.000  C
  C122     1.0000 0.80187  0.51353  0.62304  Biso   1.000  C
  C123     1.0000 0.68912  0.18397  0.68862  Biso   1.000  C
  H124     1.0000 0.26202  0.78102  0.70201  Biso   1.000  H
  H125     1.0000 0.20201  0.70098  0.69101  Biso   1.000  H
  C124     1.0000 0.34227  0.61677  0.74963  Biso   1.000  C
  H126     1.0000 0.70700  0.78798  0.54603  Biso   1.000  H
  H127     1.0000 0.62000  0.89999  0.48900  Biso   1.000  H
  C125     1.0000 0.59393  0.75941  0.50399  Biso   1.000  C
  C126     1.0000 0.48434  0.21645  0.73762  Biso   1.000  C
  O23      1.0000 0.68569  0.29386  0.78072  Biso   1.000  O
  C127     1.0000 0.93618  0.46383  0.57961  Biso   1.000  C
  C128     1.0000 0.93870  0.37147  0.65561  Biso   1.000  C
  H128     1.0000 0.65702  0.26799  0.68001  Biso   1.000  H
  C129     1.0000 0.76765  0.16539  0.62091  Biso   1.000  C
  H129     1.0000 0.36998  0.62600  0.79103  Biso   1.000  H
  H130     1.0000 0.31698  0.54902  0.77099  Biso   1.000  H
  C130     1.0000 0.43771  0.59849  0.69441  Biso   1.000  C
  H131     1.0000 0.59298  0.68898  0.54704  Biso   1.000  H
  H132     1.0000 0.51003  0.80101  0.48799  Biso   1.000  H
  C131     1.0000 0.67992  0.72819  0.44149  Biso   1.000  C
  O24      1.0000 0.48091  0.29971  0.75489  Biso   1.000  O
  C132     1.0000 0.58032  0.32189  0.82600  Biso   1.000  C
  H133     1.0000 0.92494  0.50503  0.54603  Biso   1.000  H
  H134     1.0000 0.79405  0.08297  0.62500  Biso   1.000  H
  H135     1.0000 0.84202  0.18400  0.61703  Biso   1.000  H
  C133     1.0000 0.71840  0.22825  0.55123  Biso   1.000  C
  H136     1.0000 0.50594  0.52504  0.69202  Biso   1.000  H
  H137     1.0000 0.39302  0.62898  0.65003  Biso   1.000  H
  H138     1.0000 0.47401  0.65399  0.69303  Biso   1.000  H
  H139     1.0000 0.64697  0.68502  0.42501  Biso   1.000  H
  H140     1.0000 0.69799  0.78898  0.39600  Biso   1.000  H
  H141     1.0000 0.75701  0.67602  0.46402  Biso   1.000  H
  C134     1.0000 0.49784  0.27316  0.82770  Biso   1.000  C
  H142     1.0000 0.53902  0.40599  0.80899  Biso   1.000  H
  H143     1.0000 0.59896  0.29797  0.87904  Biso   1.000  H
  H144     1.0000 0.64399  0.20901  0.55501  Biso   1.000  H
  H145     1.0000 0.78101  0.20694  0.50803  Biso   1.000  H
  C135     1.0000 0.65506  0.34483  0.54613  Biso   1.000  C
  H146     1.0000 0.53297  0.18897  0.84901  Biso   1.000  H
  H147     1.0000 0.41699  0.30395  0.86001  Biso   1.000  H
  H148     1.0000 0.60804  0.36901  0.58201  Biso   1.000  H
  C136     1.0000 0.62802  0.44199  0.46801  Biso   1.000  C
  C137     1.0000 0.73603  0.35199  0.53003  Biso   1.000  C
  C138     1.0000 0.66303  0.37597  0.45403  Biso   1.000  C
  C139     1.0000 0.76402  0.43095  0.43803  Biso   1.000  C
  C140     1.0000 0.66401  0.48800  0.42799  Biso   1.000  C
  Ne1      1.0000 0.50000  1.00000  0.00001  Biso   1.000  Ne
  He1      1.0000 0.22948  0.10224  0.28474  Biso   1.000  He
  He2      1.0000 0.77221  0.89323  0.72002  Biso   1.000  He
  Ar1      1.0000 0.49998  0.00000  0.00001  Biso   1.000  Ar
