data_image0
_cell_length_a       15.359
_cell_length_b       21.896
_cell_length_c       18.644
_cell_angle_alpha    90
_cell_angle_beta     100.11
_cell_angle_gamma    90

_symmetry_space_group_name_H-M    "P 1"
_symmetry_int_tables_number       1

loop_
  _symmetry_equiv_pos_as_xyz
  'x, y, z'

loop_
  _atom_site_label
  _atom_site_occupancy
  _atom_site_fract_x
  _atom_site_fract_y
  _atom_site_fract_z
  _atom_site_thermal_displace_type
  _atom_site_B_iso_or_equiv
  _atom_site_type_symbol
  O1       1.0000 0.27707  0.42780  0.36133  Biso   1.000  O
  C1       1.0000 0.33692  0.39432  0.33300  Biso   1.000  C
  H1       1.0000 0.30284  0.44798  0.39641  Biso   1.000  H
  N1       1.0000 0.29133  0.35938  0.27301  Biso   1.000  N
  C2       1.0000 0.40493  0.43131  0.29862  Biso   1.000  C
  N2       1.0000 0.39333  0.35678  0.38688  Biso   1.000  N
  C3       1.0000 0.21104  0.32609  0.27481  Biso   1.000  C
  C4       1.0000 0.32115  0.37162  0.21128  Biso   1.000  C
  N3       1.0000 0.38951  0.40962  0.22441  Biso   1.000  N
  N4       1.0000 0.48842  0.41382  0.34090  Biso   1.000  N
  O2       1.0000 0.39323  0.49338  0.29780  Biso   1.000  O
  C5       1.0000 0.36142  0.31992  0.44033  Biso   1.000  C
  C6       1.0000 0.47996  0.37080  0.39069  Biso   1.000  C
  N5       1.0000 0.22580  0.26471  0.30129  Biso   1.000  N
  H2       1.0000 0.17626  0.34801  0.30592  Biso   1.000  H
  H3       1.0000 0.17610  0.32481  0.22539  Biso   1.000  H
  O3       1.0000 0.28943  0.34910  0.15168  Biso   1.000  O
  C7       1.0000 0.42681  0.43862  0.16819  Biso   1.000  C
  C8       1.0000 0.57321  0.43862  0.33180  Biso   1.000  C
  H4       1.0000 0.40194  0.50649  0.34019  Biso   1.000  H
  N6       1.0000 0.33234  0.25982  0.41292  Biso   1.000  N
  H5       1.0000 0.31204  0.34088  0.45640  Biso   1.000  H
  H6       1.0000 0.40867  0.31522  0.48272  Biso   1.000  H
  O4       1.0000 0.54055  0.34728  0.43308  Biso   1.000  O
  C9       1.0000 0.21833  0.21570  0.25770  Biso   1.000  C
  C10      1.0000 0.24274  0.24758  0.37713  Biso   1.000  C
  H7       1.0000 0.43389  0.48228  0.17941  Biso   1.000  H
  H8       1.0000 0.38539  0.43469  0.12199  Biso   1.000  H
  N7       1.0000 0.51160  0.41382  0.15909  Biso   1.000  N
  H9       1.0000 0.56614  0.48228  0.32063  Biso   1.000  H
  H10      1.0000 0.61463  0.43469  0.37800  Biso   1.000  H
  N8       1.0000 0.61053  0.40962  0.27563  Biso   1.000  N
  C11      1.0000 0.37592  0.21040  0.43869  Biso   1.000  C
  N9       1.0000 0.22865  0.16391  0.29911  Biso   1.000  N
  O5       1.0000 0.20202  0.21588  0.19151  Biso   1.000  O
  C12      1.0000 0.23992  0.17620  0.37549  Biso   1.000  C
  O6       1.0000 0.18606  0.27448  0.41668  Biso   1.000  O
  C13      1.0000 0.52013  0.37080  0.10929  Biso   1.000  C
  C14      1.0000 0.59510  0.43131  0.20142  Biso   1.000  C
  C15      1.0000 0.67894  0.37162  0.28870  Biso   1.000  C
  N10      1.0000 0.32612  0.15939  0.41521  Biso   1.000  N
  O7       1.0000 0.45018  0.20689  0.47432  Biso   1.000  O
  C16      1.0000 0.21371  0.10349  0.26931  Biso   1.000  C
  O8       1.0000 0.17775  0.14902  0.40579  Biso   1.000  O
  H11      1.0000 0.13444  0.26461  0.39963  Biso   1.000  H
  N11      1.0000 0.60669  0.35678  0.11311  Biso   1.000  N
  O9       1.0000 0.45953  0.34728  0.06690  Biso   1.000  O
  C17      1.0000 0.66310  0.39432  0.16699  Biso   1.000  C
  O10      1.0000 0.60679  0.49338  0.20218  Biso   1.000  O
  N12      1.0000 0.70871  0.35938  0.22703  Biso   1.000  N
  O11      1.0000 0.71065  0.34910  0.34831  Biso   1.000  O
  C18      1.0000 0.34674  0.09801  0.43989  Biso   1.000  C
  H12      1.0000 0.18153  0.10678  0.21913  Biso   1.000  H
  H13      1.0000 0.17591  0.08111  0.29753  Biso   1.000  H
  N13      1.0000 0.29359  0.06851  0.26898  Biso   1.000  N
  H14      1.0000 0.12815  0.15852  0.38323  Biso   1.000  H
  C19      1.0000 0.63861  0.31992  0.05971  Biso   1.000  C
  O12      1.0000 0.72303  0.42780  0.13871  Biso   1.000  O
  H15      1.0000 0.59808  0.50649  0.15980  Biso   1.000  H
  C20      1.0000 0.78905  0.32609  0.22518  Biso   1.000  C
  H16      1.0000 0.29247  0.07810  0.44888  Biso   1.000  H
  H17      1.0000 0.38826  0.09938  0.48620  Biso   1.000  H
  N14      1.0000 0.38493  0.06138  0.38841  Biso   1.000  N
  C21      1.0000 0.33191  0.03128  0.32962  Biso   1.000  C
  C22      1.0000 0.32570  0.05659  0.20758  Biso   1.000  C
  H18      1.0000 0.68798  0.34088  0.04359  Biso   1.000  H
  H19      1.0000 0.59143  0.31522  0.01733  Biso   1.000  H
  N15      1.0000 0.66769  0.25982  0.08712  Biso   1.000  N
  H20      1.0000 0.69719  0.44798  0.10363  Biso   1.000  H
  H21      1.0000 0.82384  0.34801  0.19412  Biso   1.000  H
  H22      1.0000 0.82393  0.32481  0.27459  Biso   1.000  H
  N16      1.0000 0.77422  0.26471  0.19870  Biso   1.000  N
  C23      1.0000 0.47243  0.04942  0.39511  Biso   1.000  C
  C24      1.0000 0.40383  0.99361  0.29562  Biso   1.000  C
  O13      1.0000 0.26652  0.99639  0.34972  Biso   1.000  O
  N17      1.0000 0.39223  0.01580  0.22251  Biso   1.000  N
  O14      1.0000 0.29970  0.07851  0.14852  Biso   1.000  O
  C25      1.0000 0.62410  0.21040  0.06129  Biso   1.000  C
  C26      1.0000 0.75729  0.24758  0.12291  Biso   1.000  C
  C27      1.0000 0.78175  0.21570  0.24228  Biso   1.000  C
  N18      1.0000 0.48590  0.01201  0.34068  Biso   1.000  N
  O15      1.0000 0.53067  0.06851  0.44322  Biso   1.000  O
  O16      1.0000 0.39046  0.93282  0.29519  Biso   1.000  O
  H23      1.0000 0.28887  0.97009  0.37942  Biso   1.000  H
  C28      1.0000 0.43060  0.98721  0.16612  Biso   1.000  C
  N19      1.0000 0.67390  0.15939  0.08477  Biso   1.000  N
  O17      1.0000 0.54992  0.20689  0.02572  Biso   1.000  O
  C29      1.0000 0.76010  0.17620  0.12449  Biso   1.000  C
  O18      1.0000 0.81403  0.27448  0.08330  Biso   1.000  O
  N20      1.0000 0.77143  0.16391  0.20088  Biso   1.000  N
  O19      1.0000 0.79801  0.21588  0.30848  Biso   1.000  O
  C30      1.0000 0.56943  0.98721  0.33392  Biso   1.000  C
  H24      1.0000 0.43721  0.91519  0.31262  Biso   1.000  H
  N21      1.0000 0.51412  0.01201  0.15931  Biso   1.000  N
  H25      1.0000 0.43755  0.94341  0.17641  Biso   1.000  H
  H26      1.0000 0.39020  0.99192  0.11948  Biso   1.000  H
  C31      1.0000 0.65328  0.09801  0.06009  Biso   1.000  C
  O20      1.0000 0.82234  0.14902  0.09420  Biso   1.000  O
  H27      1.0000 0.86559  0.26461  0.10041  Biso   1.000  H
  C32      1.0000 0.78631  0.10349  0.23068  Biso   1.000  C
  N22      1.0000 0.60779  0.01580  0.27748  Biso   1.000  N
  H28      1.0000 0.56255  0.94341  0.32363  Biso   1.000  H
  H29      1.0000 0.60982  0.99192  0.38051  Biso   1.000  H
  C33      1.0000 0.52759  0.04942  0.10488  Biso   1.000  C
  C34      1.0000 0.59620  0.99361  0.20442  Biso   1.000  C
  N23      1.0000 0.61509  0.06138  0.11158  Biso   1.000  N
  H30      1.0000 0.70761  0.07810  0.05110  Biso   1.000  H
  H31      1.0000 0.61177  0.09938  0.01378  Biso   1.000  H
  H32      1.0000 0.87189  0.15852  0.11681  Biso   1.000  H
  N24      1.0000 0.70643  0.06851  0.23101  Biso   1.000  N
  H33      1.0000 0.81850  0.10678  0.28091  Biso   1.000  H
  H34      1.0000 0.82413  0.08111  0.20251  Biso   1.000  H
  C35      1.0000 0.67433  0.05659  0.29241  Biso   1.000  C
  O21      1.0000 0.46943  0.06851  0.05683  Biso   1.000  O
  C36      1.0000 0.66813  0.03128  0.17042  Biso   1.000  C
  O22      1.0000 0.60963  0.93282  0.20480  Biso   1.000  O
  O23      1.0000 0.70033  0.07851  0.35152  Biso   1.000  O
  O24      1.0000 0.73351  0.99639  0.15032  Biso   1.000  O
  H35      1.0000 0.56282  0.91519  0.18742  Biso   1.000  H
  H36      1.0000 0.71123  0.97009  0.12062  Biso   1.000  H
  O25      1.0000 0.23356  0.50361  0.65030  Biso   1.000  O
  C37      1.0000 0.16818  0.46872  0.67041  Biso   1.000  C
  H37      1.0000 0.21128  0.52991  0.62061  Biso   1.000  H
  N25      1.0000 0.11516  0.43862  0.61162  Biso   1.000  N
  N26      1.0000 0.20648  0.43149  0.73099  Biso   1.000  N
  C38      1.0000 0.09625  0.50639  0.70440  Biso   1.000  C
  C39      1.0000 0.15334  0.40199  0.56013  Biso   1.000  C
  C40      1.0000 0.02765  0.45058  0.60492  Biso   1.000  C
  C41      1.0000 0.28638  0.39651  0.73072  Biso   1.000  C
  C42      1.0000 0.17438  0.44341  0.79239  Biso   1.000  C
  N27      1.0000 0.01417  0.48799  0.65929  Biso   1.000  N
  N28      1.0000 0.10786  0.48420  0.77752  Biso   1.000  N
  O26      1.0000 0.10968  0.56718  0.70479  Biso   1.000  O
  N29      1.0000 0.17397  0.34061  0.58482  Biso   1.000  N
  H38      1.0000 0.20767  0.42190  0.55109  Biso   1.000  H
  H39      1.0000 0.11183  0.40062  0.51382  Biso   1.000  H
  O27      1.0000 0.96948  0.43149  0.55681  Biso   1.000  O
  N30      1.0000 0.27150  0.33609  0.70092  Biso   1.000  N
  H40      1.0000 0.31855  0.39322  0.78090  Biso   1.000  H
  H41      1.0000 0.32418  0.41889  0.70250  Biso   1.000  H
  O28      1.0000 0.20039  0.42149  0.85151  Biso   1.000  O
  C43      1.0000 0.93066  0.51279  0.66610  Biso   1.000  C
  C44      1.0000 0.06948  0.51279  0.83391  Biso   1.000  C
  H42      1.0000 0.06288  0.58481  0.68741  Biso   1.000  H
  C45      1.0000 0.26017  0.32380  0.62453  Biso   1.000  C
  C46      1.0000 0.12417  0.28960  0.56133  Biso   1.000  C
  C47      1.0000 0.28175  0.28430  0.74232  Biso   1.000  C
  H43      1.0000 0.93754  0.55659  0.67640  Biso   1.000  H
  H44      1.0000 0.89026  0.50808  0.61952  Biso   1.000  H
  N31      1.0000 0.89228  0.48420  0.72249  Biso   1.000  N
  H45      1.0000 0.06260  0.55659  0.82361  Biso   1.000  H
  H46      1.0000 0.10988  0.50808  0.88049  Biso   1.000  H
  N32      1.0000 0.98597  0.48799  0.84072  Biso   1.000  N
  C48      1.0000 0.25735  0.25242  0.62290  Biso   1.000  C
  O29      1.0000 0.32233  0.35098  0.59419  Biso   1.000  O
  N33      1.0000 0.16775  0.24018  0.58710  Biso   1.000  N
  O30      1.0000 0.04997  0.29311  0.52570  Biso   1.000  O
  N34      1.0000 0.27428  0.23529  0.69868  Biso   1.000  N
  O31      1.0000 0.29807  0.28412  0.80852  Biso   1.000  O
  C49      1.0000 0.90389  0.50639  0.79561  Biso   1.000  C
  C50      1.0000 0.82576  0.44341  0.70762  Biso   1.000  C
  C51      1.0000 0.97249  0.45058  0.89509  Biso   1.000  C
  O32      1.0000 0.31408  0.22552  0.58329  Biso   1.000  O
  H47      1.0000 0.37194  0.34148  0.61680  Biso   1.000  H
  C52      1.0000 0.13866  0.18008  0.55970  Biso   1.000  C
  C53      1.0000 0.28911  0.17391  0.72522  Biso   1.000  C
  C54      1.0000 0.83196  0.46872  0.82961  Biso   1.000  C
  O33      1.0000 0.89046  0.56718  0.79523  Biso   1.000  O
  N35      1.0000 0.79366  0.43149  0.76902  Biso   1.000  N
  O34      1.0000 0.79975  0.42149  0.64851  Biso   1.000  O
  O35      1.0000 0.03072  0.43149  0.94320  Biso   1.000  O
  N36      1.0000 0.88498  0.43862  0.88839  Biso   1.000  N
  H48      1.0000 0.36565  0.23539  0.60040  Biso   1.000  H
  H49      1.0000 0.18804  0.15912  0.54363  Biso   1.000  H
  H50      1.0000 0.09148  0.18478  0.51731  Biso   1.000  H
  N37      1.0000 0.10674  0.14322  0.61309  Biso   1.000  N
  H51      1.0000 0.32389  0.15199  0.69411  Biso   1.000  H
  H52      1.0000 0.32399  0.17519  0.77463  Biso   1.000  H
  N38      1.0000 0.20876  0.14062  0.72701  Biso   1.000  N
  O36      1.0000 0.76658  0.50361  0.84971  Biso   1.000  O
  H53      1.0000 0.93726  0.58481  0.81261  Biso   1.000  H
  C55      1.0000 0.71376  0.39651  0.76929  Biso   1.000  C
  C56      1.0000 0.84681  0.40199  0.93993  Biso   1.000  C
  C57      1.0000 0.02020  0.12920  0.60933  Biso   1.000  C
  C58      1.0000 0.16316  0.10568  0.66703  Biso   1.000  C
  C59      1.0000 0.17899  0.12838  0.78869  Biso   1.000  C
  H54      1.0000 0.78892  0.52991  0.87940  Biso   1.000  H
  H55      1.0000 0.68159  0.39322  0.71911  Biso   1.000  H
  H56      1.0000 0.67596  0.41889  0.79752  Biso   1.000  H
  N39      1.0000 0.72871  0.33609  0.79910  Biso   1.000  N
  H57      1.0000 0.79247  0.42190  0.94892  Biso   1.000  H
  H58      1.0000 0.88831  0.40062  0.98619  Biso   1.000  H
  N40      1.0000 0.82617  0.34061  0.91520  Biso   1.000  N
  N41      1.0000 0.01166  0.08618  0.65913  Biso   1.000  N
  O37      1.0000 0.95959  0.15272  0.56689  Biso   1.000  O
  C60      1.0000 0.09516  0.06869  0.70141  Biso   1.000  C
  O38      1.0000 0.22308  0.07220  0.63870  Biso   1.000  O
  N42      1.0000 0.11058  0.09038  0.77561  Biso   1.000  N
  O39      1.0000 0.21071  0.15090  0.84829  Biso   1.000  O
  C61      1.0000 0.71839  0.28430  0.75769  Biso   1.000  C
  C62      1.0000 0.73998  0.32380  0.87553  Biso   1.000  C
  C63      1.0000 0.87598  0.28960  0.93873  Biso   1.000  C
  C64      1.0000 0.92688  0.06138  0.66823  Biso   1.000  C
  O40      1.0000 0.10686  0.00662  0.70223  Biso   1.000  O
  H59      1.0000 0.19724  0.05202  0.60361  Biso   1.000  H
  C65      1.0000 0.07327  0.06138  0.83184  Biso   1.000  C
  N43      1.0000 0.72586  0.23529  0.80133  Biso   1.000  N
  O41      1.0000 0.70207  0.28412  0.69149  Biso   1.000  O
  C66      1.0000 0.74279  0.25242  0.87711  Biso   1.000  C
  O42      1.0000 0.67781  0.35098  0.90583  Biso   1.000  O
  N44      1.0000 0.83239  0.24018  0.91291  Biso   1.000  N
  O43      1.0000 0.95024  0.29311  0.97431  Biso   1.000  O
  H60      1.0000 0.93395  0.01772  0.67940  Biso   1.000  H
  H61      1.0000 0.88546  0.06531  0.62203  Biso   1.000  H
  N45      1.0000 0.88956  0.09038  0.72440  Biso   1.000  N
  H62      1.0000 0.09814  0.99351  0.65978  Biso   1.000  H
  H63      1.0000 0.06619  0.01772  0.82062  Biso   1.000  H
  H64      1.0000 0.11469  0.06531  0.87804  Biso   1.000  H
  N46      1.0000 0.98849  0.08618  0.84094  Biso   1.000  N
  C67      1.0000 0.71109  0.17391  0.77480  Biso   1.000  C
  O44      1.0000 0.68613  0.22552  0.91672  Biso   1.000  O
  H65      1.0000 0.62820  0.34148  0.88322  Biso   1.000  H
  C68      1.0000 0.86148  0.18008  0.94031  Biso   1.000  C
  C69      1.0000 0.90498  0.06869  0.79860  Biso   1.000  C
  C70      1.0000 0.82121  0.12838  0.71132  Biso   1.000  C
  C71      1.0000 0.98002  0.12920  0.89073  Biso   1.000  C
  N47      1.0000 0.79138  0.14062  0.77300  Biso   1.000  N
  H66      1.0000 0.67631  0.15199  0.80591  Biso   1.000  H
  H67      1.0000 0.67616  0.17519  0.72543  Biso   1.000  H
  H68      1.0000 0.63449  0.23539  0.89962  Biso   1.000  H
  N48      1.0000 0.89340  0.14322  0.88692  Biso   1.000  N
  H69      1.0000 0.81211  0.15912  0.95644  Biso   1.000  H
  H70      1.0000 0.90873  0.18478  0.98270  Biso   1.000  H
  C72      1.0000 0.83699  0.10568  0.83304  Biso   1.000  C
  O45      1.0000 0.89328  0.00662  0.79779  Biso   1.000  O
  O46      1.0000 0.78950  0.15090  0.65172  Biso   1.000  O
  O47      1.0000 0.04062  0.15272  0.93312  Biso   1.000  O
  O48      1.0000 0.77712  0.07220  0.86131  Biso   1.000  O
  H71      1.0000 0.90200  0.99351  0.84023  Biso   1.000  H
  H72      1.0000 0.80290  0.05202  0.89640  Biso   1.000  H
  O49      1.0000 0.20037  0.57851  0.35152  Biso   1.000  O
  C73      1.0000 0.17436  0.55659  0.29241  Biso   1.000  C
  N49      1.0000 0.10783  0.51580  0.27748  Biso   1.000  N
  N50      1.0000 0.20640  0.56851  0.23101  Biso   1.000  N
  C74      1.0000 0.09623  0.49361  0.20442  Biso   1.000  C
  C75      1.0000 0.06946  0.48721  0.33392  Biso   1.000  C
  C76      1.0000 0.16809  0.53128  0.17042  Biso   1.000  C
  C77      1.0000 0.28634  0.60349  0.23068  Biso   1.000  C
  O50      1.0000 0.10959  0.43282  0.20480  Biso   1.000  O
  N51      1.0000 0.01409  0.51201  0.15931  Biso   1.000  N
  H73      1.0000 0.06251  0.44341  0.32363  Biso   1.000  H
  H74      1.0000 0.10986  0.49192  0.38051  Biso   1.000  H
  N52      1.0000 0.98593  0.51201  0.34068  Biso   1.000  N
  N53      1.0000 0.11512  0.56138  0.11158  Biso   1.000  N
  O51      1.0000 0.23354  0.49639  0.15032  Biso   1.000  O
  H75      1.0000 0.31853  0.60678  0.28091  Biso   1.000  H
  H76      1.0000 0.32409  0.58111  0.20251  Biso   1.000  H
  N54      1.0000 0.27140  0.66391  0.20088  Biso   1.000  N
  H77      1.0000 0.06285  0.41519  0.18742  Biso   1.000  H
  C78      1.0000 0.02762  0.54942  0.10488  Biso   1.000  C
  C79      1.0000 0.93064  0.48721  0.16612  Biso   1.000  C
  C80      1.0000 0.90387  0.49361  0.29562  Biso   1.000  C
  C81      1.0000 0.97246  0.54942  0.39511  Biso   1.000  C
  C82      1.0000 0.15331  0.59801  0.06009  Biso   1.000  C
  H78      1.0000 0.21120  0.47009  0.12062  Biso   1.000  H
  C83      1.0000 0.26014  0.67620  0.12449  Biso   1.000  C
  C84      1.0000 0.28172  0.71570  0.24228  Biso   1.000  C
  O52      1.0000 0.96940  0.56851  0.05683  Biso   1.000  O
  H79      1.0000 0.93752  0.44341  0.17641  Biso   1.000  H
  H80      1.0000 0.89023  0.49192  0.11948  Biso   1.000  H
  N55      1.0000 0.89219  0.51580  0.22251  Biso   1.000  N
  C85      1.0000 0.83194  0.53128  0.32962  Biso   1.000  C
  O53      1.0000 0.89043  0.43282  0.29519  Biso   1.000  O
  O54      1.0000 0.03064  0.56851  0.44322  Biso   1.000  O
  N56      1.0000 0.88496  0.56138  0.38841  Biso   1.000  N
  H81      1.0000 0.20758  0.57810  0.05110  Biso   1.000  H
  H82      1.0000 0.11180  0.59938  0.01378  Biso   1.000  H
  N57      1.0000 0.17393  0.65939  0.08477  Biso   1.000  N
  C86      1.0000 0.25733  0.74758  0.12291  Biso   1.000  C
  O55      1.0000 0.32231  0.64902  0.09420  Biso   1.000  O
  N58      1.0000 0.27419  0.76471  0.19870  Biso   1.000  N
  O56      1.0000 0.29804  0.71588  0.30848  Biso   1.000  O
  C87      1.0000 0.82573  0.55659  0.20758  Biso   1.000  C
  N59      1.0000 0.79363  0.56851  0.26898  Biso   1.000  N
  O57      1.0000 0.76656  0.49639  0.34972  Biso   1.000  O
  H83      1.0000 0.93724  0.41519  0.31262  Biso   1.000  H
  C88      1.0000 0.84671  0.59801  0.43989  Biso   1.000  C
  C89      1.0000 0.12414  0.71040  0.06129  Biso   1.000  C
  N60      1.0000 0.16773  0.75982  0.08712  Biso   1.000  N
  O58      1.0000 0.31399  0.77448  0.08330  Biso   1.000  O
  H84      1.0000 0.37192  0.65852  0.11681  Biso   1.000  H
  C90      1.0000 0.28901  0.82609  0.22518  Biso   1.000  C
  O59      1.0000 0.79973  0.57851  0.14852  Biso   1.000  O
  C91      1.0000 0.71374  0.60349  0.26931  Biso   1.000  C
  H85      1.0000 0.78884  0.47009  0.37942  Biso   1.000  H
  H86      1.0000 0.79244  0.57810  0.44888  Biso   1.000  H
  H87      1.0000 0.88822  0.59938  0.48620  Biso   1.000  H
  N61      1.0000 0.82615  0.65939  0.41521  Biso   1.000  N
  O60      1.0000 0.04988  0.70689  0.02572  Biso   1.000  O
  C92      1.0000 0.13858  0.81992  0.05971  Biso   1.000  C
  H88      1.0000 0.36562  0.76461  0.10041  Biso   1.000  H
  H89      1.0000 0.32380  0.84801  0.19412  Biso   1.000  H
  H90      1.0000 0.32396  0.82481  0.27459  Biso   1.000  H
  N62      1.0000 0.20874  0.85938  0.22703  Biso   1.000  N
  H91      1.0000 0.68150  0.60678  0.21913  Biso   1.000  H
  H92      1.0000 0.67594  0.58111  0.29753  Biso   1.000  H
  N63      1.0000 0.72862  0.66391  0.29911  Biso   1.000  N
  C93      1.0000 0.73995  0.67620  0.37549  Biso   1.000  C
  C94      1.0000 0.87595  0.71040  0.43869  Biso   1.000  C
  H93      1.0000 0.18801  0.84088  0.04359  Biso   1.000  H
  H94      1.0000 0.09139  0.81522  0.01733  Biso   1.000  H
  N64      1.0000 0.10672  0.85678  0.11311  Biso   1.000  N
  C95      1.0000 0.16313  0.89432  0.16699  Biso   1.000  C
  C96      1.0000 0.17891  0.87162  0.28870  Biso   1.000  C
  C97      1.0000 0.71830  0.71570  0.25770  Biso   1.000  C
  C98      1.0000 0.74277  0.74758  0.37713  Biso   1.000  C
  O61      1.0000 0.67772  0.64902  0.40579  Biso   1.000  O
  N65      1.0000 0.83237  0.75982  0.41292  Biso   1.000  N
  O62      1.0000 0.95015  0.70689  0.47432  Biso   1.000  O
  C99      1.0000 0.02010  0.87080  0.10929  Biso   1.000  C
  C100     1.0000 0.09514  0.93131  0.20142  Biso   1.000  C
  O63      1.0000 0.22299  0.92780  0.13871  Biso   1.000  O
  N66      1.0000 0.11056  0.90962  0.27563  Biso   1.000  N
  O64      1.0000 0.21062  0.84910  0.34831  Biso   1.000  O
  N67      1.0000 0.72583  0.76471  0.30129  Biso   1.000  N
  O65      1.0000 0.70205  0.71588  0.19151  Biso   1.000  O
  O66      1.0000 0.68603  0.77448  0.41668  Biso   1.000  O
  H95      1.0000 0.62811  0.65852  0.38323  Biso   1.000  H
  C101     1.0000 0.86145  0.81992  0.44033  Biso   1.000  C
  N68      1.0000 0.01163  0.91382  0.15909  Biso   1.000  N
  O67      1.0000 0.95950  0.84728  0.06690  Biso   1.000  O
  O68      1.0000 0.10682  0.99338  0.20218  Biso   1.000  O
  H96      1.0000 0.19722  0.94798  0.10363  Biso   1.000  H
  C102     1.0000 0.07324  0.93862  0.33180  Biso   1.000  C
  C103     1.0000 0.71101  0.82609  0.27481  Biso   1.000  C
  H97      1.0000 0.63447  0.76461  0.39963  Biso   1.000  H
  H98      1.0000 0.81208  0.84088  0.45640  Biso   1.000  H
  H99      1.0000 0.90864  0.81522  0.48272  Biso   1.000  H
  N69      1.0000 0.89336  0.85678  0.38688  Biso   1.000  N
  C104     1.0000 0.92685  0.93862  0.16819  Biso   1.000  C
  H100     1.0000 0.09812  0.00649  0.15980  Biso   1.000  H
  H101     1.0000 0.06617  0.98228  0.32063  Biso   1.000  H
  H102     1.0000 0.11466  0.93469  0.37800  Biso   1.000  H
  N70      1.0000 0.98845  0.91382  0.34090  Biso   1.000  N
  H103     1.0000 0.67623  0.84801  0.30592  Biso   1.000  H
  H104     1.0000 0.67613  0.82481  0.22539  Biso   1.000  H
  N71      1.0000 0.79136  0.85938  0.27301  Biso   1.000  N
  C105     1.0000 0.83696  0.89432  0.33300  Biso   1.000  C
  C106     1.0000 0.97992  0.87080  0.39069  Biso   1.000  C
  H105     1.0000 0.93393  0.98228  0.17941  Biso   1.000  H
  H106     1.0000 0.88542  0.93469  0.12199  Biso   1.000  H
  N72      1.0000 0.88954  0.90962  0.22441  Biso   1.000  N
  C107     1.0000 0.90496  0.93131  0.29862  Biso   1.000  C
  C108     1.0000 0.82111  0.87162  0.21128  Biso   1.000  C
  O69      1.0000 0.77704  0.92780  0.36133  Biso   1.000  O
  O70      1.0000 0.04052  0.84728  0.43308  Biso   1.000  O
  O71      1.0000 0.89326  0.99338  0.29780  Biso   1.000  O
  O72      1.0000 0.78940  0.84910  0.15168  Biso   1.000  O
  H107     1.0000 0.80288  0.94798  0.39641  Biso   1.000  H
  H108     1.0000 0.90190  0.00649  0.34019  Biso   1.000  H
  C109     1.0000 0.42685  0.56138  0.66823  Biso   1.000  C
  H109     1.0000 0.43398  0.51772  0.67940  Biso   1.000  H
  H110     1.0000 0.38549  0.56531  0.62203  Biso   1.000  H
  N73      1.0000 0.51170  0.58618  0.65913  Biso   1.000  N
  N74      1.0000 0.38959  0.59038  0.72440  Biso   1.000  N
  C110     1.0000 0.52016  0.62920  0.60933  Biso   1.000  C
  C111     1.0000 0.59519  0.56869  0.70141  Biso   1.000  C
  C112     1.0000 0.40502  0.56869  0.79860  Biso   1.000  C
  C113     1.0000 0.32118  0.62838  0.71132  Biso   1.000  C
  N75      1.0000 0.60678  0.64322  0.61309  Biso   1.000  N
  O73      1.0000 0.45955  0.65272  0.56689  Biso   1.000  O
  C114     1.0000 0.66320  0.60568  0.66703  Biso   1.000  C
  N76      1.0000 0.61061  0.59038  0.77561  Biso   1.000  N
  O74      1.0000 0.60689  0.50662  0.70223  Biso   1.000  O
  C115     1.0000 0.33702  0.60568  0.83304  Biso   1.000  C
  N77      1.0000 0.48852  0.58618  0.84094  Biso   1.000  N
  O75      1.0000 0.39325  0.50662  0.79779  Biso   1.000  O
  N78      1.0000 0.29135  0.64062  0.77300  Biso   1.000  N
  O76      1.0000 0.28947  0.65090  0.65172  Biso   1.000  O
  C116     1.0000 0.63863  0.68008  0.55970  Biso   1.000  C
  N79      1.0000 0.70879  0.64062  0.72701  Biso   1.000  N
  O77      1.0000 0.72305  0.57220  0.63870  Biso   1.000  O
  C117     1.0000 0.67896  0.62838  0.78869  Biso   1.000  C
  C118     1.0000 0.57331  0.56138  0.83184  Biso   1.000  C
  H111     1.0000 0.59817  0.49351  0.65978  Biso   1.000  H
  N80      1.0000 0.39343  0.64322  0.88692  Biso   1.000  N
  O78      1.0000 0.27709  0.57220  0.86131  Biso   1.000  O
  C119     1.0000 0.47999  0.62920  0.89073  Biso   1.000  C
  H112     1.0000 0.40197  0.49351  0.84023  Biso   1.000  H
  C120     1.0000 0.21106  0.67391  0.77480  Biso   1.000  C
  H113     1.0000 0.68808  0.65912  0.54363  Biso   1.000  H
  H114     1.0000 0.59145  0.68478  0.51731  Biso   1.000  H
  N81      1.0000 0.66778  0.74018  0.58710  Biso   1.000  N
  C121     1.0000 0.78908  0.67391  0.72522  Biso   1.000  C
  H115     1.0000 0.69728  0.55202  0.60361  Biso   1.000  H
  O79      1.0000 0.71067  0.65090  0.84829  Biso   1.000  O
  H116     1.0000 0.56616  0.51772  0.82062  Biso   1.000  H
  H117     1.0000 0.61473  0.56531  0.87804  Biso   1.000  H
  C122     1.0000 0.36151  0.68008  0.94031  Biso   1.000  C
  H118     1.0000 0.30286  0.55202  0.89640  Biso   1.000  H
  O80      1.0000 0.54059  0.65272  0.93312  Biso   1.000  O
  H119     1.0000 0.17628  0.65199  0.80591  Biso   1.000  H
  H120     1.0000 0.17619  0.67519  0.72543  Biso   1.000  H
  N82      1.0000 0.22590  0.73529  0.80133  Biso   1.000  N
  C123     1.0000 0.62414  0.78960  0.56133  Biso   1.000  C
  C124     1.0000 0.75738  0.75242  0.62290  Biso   1.000  C
  H121     1.0000 0.82386  0.65199  0.69411  Biso   1.000  H
  H122     1.0000 0.82396  0.67519  0.77463  Biso   1.000  H
  N83      1.0000 0.77424  0.73529  0.69868  Biso   1.000  N
  H123     1.0000 0.31208  0.65912  0.95644  Biso   1.000  H
  H124     1.0000 0.40869  0.68478  0.98270  Biso   1.000  H
  N84      1.0000 0.33242  0.74018  0.91291  Biso   1.000  N
  C125     1.0000 0.24283  0.75242  0.87711  Biso   1.000  C
  C126     1.0000 0.21836  0.78430  0.75769  Biso   1.000  C
  N85      1.0000 0.67393  0.84061  0.58482  Biso   1.000  N
  O81      1.0000 0.54994  0.79311  0.52570  Biso   1.000  O
  C127     1.0000 0.76020  0.82380  0.62453  Biso   1.000  C
  O82      1.0000 0.81405  0.72552  0.58329  Biso   1.000  O
  C128     1.0000 0.78178  0.78430  0.74232  Biso   1.000  C
  C129     1.0000 0.37602  0.78960  0.93873  Biso   1.000  C
  C130     1.0000 0.24002  0.82380  0.87553  Biso   1.000  C
  O83      1.0000 0.18609  0.72552  0.91672  Biso   1.000  O
  N86      1.0000 0.22868  0.83609  0.79910  Biso   1.000  N
  O84      1.0000 0.20210  0.78412  0.69149  Biso   1.000  O
  C131     1.0000 0.65337  0.90199  0.56013  Biso   1.000  C
  N87      1.0000 0.77146  0.83609  0.70092  Biso   1.000  N
  O85      1.0000 0.82236  0.85098  0.59419  Biso   1.000  O
  H125     1.0000 0.86568  0.73539  0.60040  Biso   1.000  H
  O86      1.0000 0.79810  0.78412  0.80852  Biso   1.000  O
  N88      1.0000 0.32621  0.84061  0.91520  Biso   1.000  N
  O87      1.0000 0.45020  0.79311  0.97431  Biso   1.000  O
  O88      1.0000 0.17778  0.85098  0.90583  Biso   1.000  O
  H126     1.0000 0.13453  0.73539  0.89962  Biso   1.000  H
  C132     1.0000 0.21380  0.89651  0.76929  Biso   1.000  C
  H127     1.0000 0.70764  0.92190  0.55109  Biso   1.000  H
  H128     1.0000 0.61186  0.90062  0.51382  Biso   1.000  H
  N89      1.0000 0.61519  0.93862  0.61162  Biso   1.000  N
  C133     1.0000 0.78641  0.89651  0.73072  Biso   1.000  C
  H129     1.0000 0.87197  0.84148  0.61680  Biso   1.000  H
  C134     1.0000 0.34678  0.90199  0.93993  Biso   1.000  C
  H130     1.0000 0.12817  0.84148  0.88322  Biso   1.000  H
  H131     1.0000 0.18155  0.89322  0.71911  Biso   1.000  H
  H132     1.0000 0.17599  0.91889  0.79752  Biso   1.000  H
  N90      1.0000 0.29369  0.93149  0.76902  Biso   1.000  N
  C135     1.0000 0.52769  0.95058  0.60492  Biso   1.000  C
  C136     1.0000 0.66815  0.96872  0.67041  Biso   1.000  C
  H133     1.0000 0.81859  0.89322  0.78090  Biso   1.000  H
  H134     1.0000 0.82415  0.91889  0.70250  Biso   1.000  H
  N91      1.0000 0.70645  0.93149  0.73099  Biso   1.000  N
  H135     1.0000 0.29250  0.92190  0.94892  Biso   1.000  H
  H136     1.0000 0.38828  0.90062  0.98619  Biso   1.000  H
  N92      1.0000 0.38502  0.93862  0.88839  Biso   1.000  N
  C137     1.0000 0.33199  0.96872  0.82961  Biso   1.000  C
  C138     1.0000 0.32579  0.94341  0.70762  Biso   1.000  C
  N93      1.0000 0.51414  0.98799  0.65929  Biso   1.000  N
  O89      1.0000 0.46945  0.93149  0.55681  Biso   1.000  O
  C139     1.0000 0.59628  0.00639  0.70440  Biso   1.000  C
  O90      1.0000 0.73359  0.00361  0.65030  Biso   1.000  O
  C140     1.0000 0.67441  0.94341  0.79239  Biso   1.000  C
  C141     1.0000 0.47252  0.95058  0.89509  Biso   1.000  C
  C142     1.0000 0.40386  0.00639  0.79561  Biso   1.000  C
  O91      1.0000 0.26661  0.00361  0.84971  Biso   1.000  O
  N94      1.0000 0.39225  0.98420  0.72249  Biso   1.000  N
  O92      1.0000 0.29978  0.92149  0.64851  Biso   1.000  O
  C143     1.0000 0.43069  0.01279  0.66610  Biso   1.000  C
  N95      1.0000 0.60789  0.98420  0.77752  Biso   1.000  N
  O93      1.0000 0.60965  0.06718  0.70479  Biso   1.000  O
  H137     1.0000 0.71125  0.02991  0.62061  Biso   1.000  H
  O94      1.0000 0.70042  0.92149  0.85151  Biso   1.000  O
  N96      1.0000 0.48600  0.98799  0.84072  Biso   1.000  N
  O95      1.0000 0.53069  0.93149  0.94320  Biso   1.000  O
  O96      1.0000 0.39049  0.06718  0.79523  Biso   1.000  O
  H138     1.0000 0.28889  0.02991  0.87940  Biso   1.000  H
  H139     1.0000 0.43757  0.05659  0.67640  Biso   1.000  H
  H140     1.0000 0.39029  0.00808  0.61952  Biso   1.000  H
  C144     1.0000 0.56951  0.01279  0.83391  Biso   1.000  C
  H141     1.0000 0.56284  0.08481  0.68741  Biso   1.000  H
  H142     1.0000 0.43730  0.08481  0.81261  Biso   1.000  H
  H143     1.0000 0.56257  0.05659  0.82361  Biso   1.000  H
  H144     1.0000 0.60991  0.00808  0.88049  Biso   1.000  H
