data_image0
_cell_length_a       11.345
_cell_length_b       12.587
_cell_length_c       13.342
_cell_angle_alpha    61.92
_cell_angle_beta     83.1
_cell_angle_gamma    69.12

_symmetry_space_group_name_H-M    "P 1"
_symmetry_int_tables_number       1

loop_
  _symmetry_equiv_pos_as_xyz
  'x, y, z'

loop_
  _atom_site_label
  _atom_site_occupancy
  _atom_site_fract_x
  _atom_site_fract_y
  _atom_site_fract_z
  _atom_site_thermal_displace_type
  _atom_site_B_iso_or_equiv
  _atom_site_type_symbol
  O1       1.0000 0.11518  0.33381  0.27876  Biso   1.000  O
  C1       1.0000 0.01530  0.36021  0.23171  Biso   1.000  C
  N1       1.0000 0.89939  0.43121  0.24890  Biso   1.000  N
  N2       1.0000 0.00287  0.32467  0.15283  Biso   1.000  N
  N3       1.0000 0.00296  0.32467  0.15283  Biso   1.000  N
  C2       1.0000 0.88179  0.49859  0.31527  Biso   1.000  C
  C3       1.0000 0.79992  0.45060  0.17623  Biso   1.000  C
  C4       1.0000 0.80001  0.45060  0.17623  Biso   1.000  C
  C5       1.0000 0.87415  0.37672  0.10713  Biso   1.000  C
  C6       1.0000 0.87424  0.37672  0.10713  Biso   1.000  C
  C7       1.0000 0.11023  0.27219  0.09820  Biso   1.000  C
  H1       1.0000 0.96164  0.50901  0.32174  Biso   1.000  H
  N4       1.0000 0.84087  0.43567  0.42853  Biso   1.000  N
  H2       1.0000 0.81910  0.58431  0.27451  Biso   1.000  H
  H3       1.0000 0.96173  0.50901  0.32174  Biso   1.000  H
  N5       1.0000 0.84096  0.43567  0.42853  Biso   1.000  N
  N6       1.0000 0.71319  0.38226  0.23707  Biso   1.000  N
  O2       1.0000 0.74024  0.58000  0.11292  Biso   1.000  O
  O3       1.0000 0.74033  0.58000  0.11292  Biso   1.000  O
  O4       1.0000 0.87011  0.45280  0.99081  Biso   1.000  O
  O5       1.0000 0.87002  0.45280  0.99081  Biso   1.000  O
  N7       1.0000 0.81591  0.28150  0.13640  Biso   1.000  N
  H4       1.0000 0.09135  0.31817  0.01574  Biso   1.000  H
  H5       1.0000 0.09144  0.31817  0.01574  Biso   1.000  H
  H6       1.0000 0.18381  0.28710  0.11334  Biso   1.000  H
  N8       1.0000 0.14182  0.13729  0.13606  Biso   1.000  N
  C8       1.0000 0.70999  0.44736  0.45431  Biso   1.000  C
  C9       1.0000 0.92080  0.36842  0.52392  Biso   1.000  C
  C10      1.0000 0.61651  0.42195  0.30616  Biso   1.000  C
  C11      1.0000 0.61660  0.42195  0.30616  Biso   1.000  C
  C12      1.0000 0.72352  0.28610  0.21282  Biso   1.000  C
  H7       1.0000 0.70281  0.61104  0.15563  Biso   1.000  H
  H8       1.0000 0.70289  0.61104  0.15563  Biso   1.000  H
  H9       1.0000 0.91035  0.40771  0.96009  Biso   1.000  H
  C13      1.0000 0.84208  0.19821  0.08509  Biso   1.000  C
  C14      1.0000 0.84217  0.19821  0.08509  Biso   1.000  C
  C15      1.0000 0.24727  0.04596  0.20499  Biso   1.000  C
  C16      1.0000 0.07967  0.08431  0.08977  Biso   1.000  C
  C17      1.0000 0.07976  0.08431  0.08977  Biso   1.000  C
  C18      1.0000 0.24715  0.04604  0.20499  Biso   1.000  C
  C19      1.0000 0.71770  0.37049  0.58867  Biso   1.000  C
  N9       1.0000 0.66107  0.37608  0.42112  Biso   1.000  N
  O6       1.0000 0.62991  0.57302  0.40802  Biso   1.000  O
  O7       1.0000 0.63000  0.57302  0.40802  Biso   1.000  O
  N10      1.0000 0.66116  0.37608  0.42112  Biso   1.000  N
  N11      1.0000 0.85121  0.32905  0.61820  Biso   1.000  N
  N12      1.0000 0.85130  0.32905  0.61820  Biso   1.000  N
  O8       1.0000 0.03312  0.34899  0.52630  Biso   1.000  O
  H10      1.0000 0.54774  0.39090  0.30897  Biso   1.000  H
  H11      1.0000 0.54783  0.39090  0.30897  Biso   1.000  H
  H12      1.0000 0.58193  0.51583  0.26949  Biso   1.000  H
  O9       1.0000 0.65896  0.21721  0.25000  Biso   1.000  O
  H13      1.0000 0.76994  0.16942  0.09420  Biso   1.000  H
  N13      1.0000 0.95587  0.08615  0.13172  Biso   1.000  N
  H14      1.0000 0.77003  0.16942  0.09420  Biso   1.000  H
  H15      1.0000 0.84975  0.24746  0.00340  Biso   1.000  H
  N14      1.0000 0.95596  0.08615  0.13172  Biso   1.000  N
  H16      1.0000 0.84984  0.24746  0.00340  Biso   1.000  H
  N15      1.0000 0.26036  0.92976  0.21358  Biso   1.000  N
  O10      1.0000 0.31849  0.06624  0.24992  Biso   1.000  O
  O11      1.0000 0.31837  0.06632  0.24992  Biso   1.000  O
  C20      1.0000 0.16140  0.93774  0.14798  Biso   1.000  C
  C21      1.0000 0.16137  0.93783  0.14798  Biso   1.000  C
  C22      1.0000 0.16146  0.93783  0.14798  Biso   1.000  C
  O12      1.0000 0.06948  0.14533  0.97362  Biso   1.000  O
  O13      1.0000 0.06957  0.14533  0.97362  Biso   1.000  O
  N16      1.0000 0.67363  0.26808  0.60952  Biso   1.000  N
  O14      1.0000 0.64363  0.43842  0.64271  Biso   1.000  O
  O15      1.0000 0.64372  0.43842  0.64271  Biso   1.000  O
  C23      1.0000 0.63406  0.27734  0.51183  Biso   1.000  C
  H17      1.0000 0.57042  0.58175  0.37109  Biso   1.000  H
  C24      1.0000 0.90587  0.25767  0.73299  Biso   1.000  C
  C25      1.0000 0.95144  0.96643  0.19997  Biso   1.000  C
  C26      1.0000 0.36167  0.81306  0.27979  Biso   1.000  C
  N17      1.0000 0.07091  0.87840  0.21588  Biso   1.000  N
  O16      1.0000 0.21059  0.88695  0.07488  Biso   1.000  O
  H18      1.0000 0.03460  0.11220  0.95082  Biso   1.000  H
  H19      1.0000 0.03468  0.11220  0.95082  Biso   1.000  H
  C27      1.0000 0.63834  0.18693  0.72023  Biso   1.000  C
  H20      1.0000 0.56926  0.46872  0.61760  Biso   1.000  H
  H21      1.0000 0.56935  0.46872  0.61760  Biso   1.000  H
  O17      1.0000 0.58359  0.20890  0.50724  Biso   1.000  O
  O18      1.0000 0.58368  0.20890  0.50724  Biso   1.000  O
  H22      1.0000 0.84913  0.29228  0.78013  Biso   1.000  H
  N18      1.0000 0.92898  0.12167  0.78413  Biso   1.000  N
  H23      1.0000 0.98607  0.27055  0.73325  Biso   1.000  H
  N19      1.0000 0.92907  0.12167  0.78413  Biso   1.000  N
  O19      1.0000 0.85763  0.93984  0.24149  Biso   1.000  O
  H24      1.0000 0.39154  0.76430  0.23664  Biso   1.000  H
  H25      1.0000 0.43195  0.83512  0.29085  Biso   1.000  H
  N20      1.0000 0.32635  0.73199  0.39049  Biso   1.000  N
  H26      1.0000 0.39163  0.76430  0.23664  Biso   1.000  H
  C28      1.0000 0.09414  0.74231  0.26702  Biso   1.000  C
  C29      1.0000 0.09423  0.74231  0.26702  Biso   1.000  C
  H27      1.0000 0.15209  0.89355  0.03812  Biso   1.000  H
  H28      1.0000 0.56807  0.16483  0.70925  Biso   1.000  H
  N21      1.0000 0.73966  0.07022  0.78643  Biso   1.000  N
  H29      1.0000 0.60848  0.23564  0.76345  Biso   1.000  H
  C30      1.0000 0.04854  0.03364  0.80004  Biso   1.000  C
  C31      1.0000 0.83853  0.06224  0.85203  Biso   1.000  C
  C32      1.0000 0.83861  0.06224  0.85203  Biso   1.000  C
  C33      1.0000 0.36596  0.72264  0.48818  Biso   1.000  C
  C34      1.0000 0.28222  0.62949  0.41134  Biso   1.000  C
  C35      1.0000 0.28231  0.62949  0.41134  Biso   1.000  C
  H30      1.0000 0.15086  0.70779  0.21988  Biso   1.000  H
  H31      1.0000 0.01395  0.72943  0.26677  Biso   1.000  H
  N22      1.0000 0.14872  0.67094  0.38181  Biso   1.000  N
  H32      1.0000 0.01391  0.72952  0.26677  Biso   1.000  H
  N23      1.0000 0.14881  0.67094  0.38181  Biso   1.000  N
  C36      1.0000 0.75284  0.95403  0.79502  Biso   1.000  C
  C37      1.0000 0.75275  0.95403  0.79502  Biso   1.000  C
  N24      1.0000 0.04405  0.91384  0.86829  Biso   1.000  N
  O20      1.0000 0.14230  0.06015  0.75852  Biso   1.000  O
  C38      1.0000 0.92034  0.91568  0.91024  Biso   1.000  C
  C39      1.0000 0.92025  0.91568  0.91024  Biso   1.000  C
  O21      1.0000 0.78943  0.11304  0.92513  Biso   1.000  O
  O22      1.0000 0.78951  0.11304  0.92513  Biso   1.000  O
  O23      1.0000 0.41631  0.79117  0.49277  Biso   1.000  O
  O24      1.0000 0.41639  0.79117  0.49277  Biso   1.000  O
  N25      1.0000 0.33895  0.62390  0.57889  Biso   1.000  N
  O25      1.0000 0.35626  0.56165  0.35730  Biso   1.000  O
  C40      1.0000 0.29002  0.55263  0.54570  Biso   1.000  C
  C41      1.0000 0.07919  0.63165  0.47609  Biso   1.000  C
  N26      1.0000 0.85810  0.86269  0.86395  Biso   1.000  N
  O26      1.0000 0.68161  0.93375  0.75009  Biso   1.000  O
  O27      1.0000 0.68153  0.93375  0.75009  Biso   1.000  O
  C42      1.0000 0.15785  0.80177  0.91492  Biso   1.000  C
  C43      1.0000 0.15794  0.80177  0.91492  Biso   1.000  C
  O28      1.0000 0.93041  0.85474  0.02639  Biso   1.000  O
  O29      1.0000 0.93050  0.85474  0.02639  Biso   1.000  O
  H33      1.0000 0.84793  0.10644  0.96189  Biso   1.000  H
  H34      1.0000 0.84801  0.10644  0.96189  Biso   1.000  H
  C44      1.0000 0.38338  0.57812  0.69385  Biso   1.000  C
  N27      1.0000 0.15906  0.56432  0.57148  Biso   1.000  N
  O30      1.0000 0.36998  0.42705  0.59199  Biso   1.000  O
  N28      1.0000 0.15915  0.56432  0.57148  Biso   1.000  N
  H35      1.0000 0.43072  0.53135  0.38241  Biso   1.000  H
  O31      1.0000 0.96680  0.65100  0.47371  Biso   1.000  O
  C45      1.0000 0.88970  0.72780  0.90181  Biso   1.000  C
  H36      1.0000 0.22995  0.83065  0.90581  Biso   1.000  H
  H37      1.0000 0.15014  0.75261  0.99661  Biso   1.000  H
  N29      1.0000 0.18411  0.71848  0.86361  Biso   1.000  N
  H38      1.0000 0.15023  0.75261  0.99661  Biso   1.000  H
  H39      1.0000 0.96533  0.88778  0.04920  Biso   1.000  H
  N30      1.0000 0.28679  0.61781  0.76294  Biso   1.000  N
  H40      1.0000 0.45219  0.60908  0.69104  Biso   1.000  H
  H41      1.0000 0.41815  0.48424  0.73052  Biso   1.000  H
  C46      1.0000 0.11814  0.50139  0.68474  Biso   1.000  C
  C47      1.0000 0.11823  0.50139  0.68474  Biso   1.000  C
  H42      1.0000 0.42957  0.41832  0.62892  Biso   1.000  H
  H43      1.0000 0.42965  0.41832  0.62892  Biso   1.000  H
  H44      1.0000 0.81618  0.71292  0.88675  Biso   1.000  H
  H45      1.0000 0.90867  0.68177  0.98435  Biso   1.000  H
  N31      1.0000 0.99715  0.67532  0.84718  Biso   1.000  N
  H46      1.0000 0.81609  0.71292  0.88675  Biso   1.000  H
  H47      1.0000 0.90858  0.68177  0.98435  Biso   1.000  H
  N32      1.0000 0.99706  0.67532  0.84718  Biso   1.000  N
  C48      1.0000 0.12574  0.62335  0.89288  Biso   1.000  C
  C49      1.0000 0.27646  0.71397  0.78719  Biso   1.000  C
  C50      1.0000 0.12583  0.62335  0.89288  Biso   1.000  C
  C51      1.0000 0.20001  0.54939  0.82378  Biso   1.000  C
  N33      1.0000 0.10063  0.56877  0.75111  Biso   1.000  N
  H48      1.0000 0.03825  0.49106  0.67828  Biso   1.000  H
  H49      1.0000 0.18092  0.41567  0.72550  Biso   1.000  H
  H50      1.0000 0.03834  0.49106  0.67828  Biso   1.000  H
  C52      1.0000 0.98468  0.63986  0.76830  Biso   1.000  C
  C53      1.0000 0.98459  0.63986  0.76830  Biso   1.000  C
  O32      1.0000 0.12991  0.54718  0.00920  Biso   1.000  O
  O33      1.0000 0.34112  0.78286  0.75001  Biso   1.000  O
  O34      1.0000 0.25978  0.41998  0.88709  Biso   1.000  O
  O35      1.0000 0.88484  0.66618  0.72125  Biso   1.000  O
  O36      1.0000 0.88475  0.66618  0.72125  Biso   1.000  O
  H51      1.0000 0.08967  0.59227  0.03992  Biso   1.000  H
  H52      1.0000 0.08958  0.59227  0.03992  Biso   1.000  H
  H53      1.0000 0.29718  0.38903  0.84438  Biso   1.000  H
