data_image0
_cell_length_a       11.345
_cell_length_b       12.587
_cell_length_c       13.342
_cell_angle_alpha    61.92
_cell_angle_beta     83.1
_cell_angle_gamma    69.12

_symmetry_space_group_name_H-M    "P 1"
_symmetry_int_tables_number       1

loop_
  _symmetry_equiv_pos_as_xyz
  'x, y, z'

loop_
  _atom_site_label
  _atom_site_occupancy
  _atom_site_fract_x
  _atom_site_fract_y
  _atom_site_fract_z
  _atom_site_thermal_displace_type
  _atom_site_B_iso_or_equiv
  _atom_site_type_symbol
  O1       1.0000 0.96680  0.65096  0.47371  Biso   1.000  O
  C1       1.0000 0.07919  0.63161  0.47609  Biso   1.000  C
  N1       1.0000 0.14872  0.67090  0.38181  Biso   1.000  N
  N2       1.0000 0.15906  0.56428  0.57148  Biso   1.000  N
  C2       1.0000 0.09414  0.74228  0.26702  Biso   1.000  C
  C3       1.0000 0.28231  0.62946  0.41134  Biso   1.000  C
  C4       1.0000 0.29002  0.55259  0.54570  Biso   1.000  C
  C5       1.0000 0.11823  0.50136  0.68474  Biso   1.000  C
  H1       1.0000 0.15086  0.70776  0.21988  Biso   1.000  H
  H2       1.0000 0.01391  0.72948  0.26677  Biso   1.000  H
  N3       1.0000 0.07091  0.87837  0.21588  Biso   1.000  N
  N4       1.0000 0.32635  0.73195  0.39049  Biso   1.000  N
  O2       1.0000 0.35626  0.56162  0.35730  Biso   1.000  O
  N5       1.0000 0.33886  0.62387  0.57889  Biso   1.000  N
  O3       1.0000 0.36998  0.42702  0.59199  Biso   1.000  O
  H3       1.0000 0.03825  0.49103  0.67828  Biso   1.000  H
  H4       1.0000 0.18092  0.41564  0.72550  Biso   1.000  H
  N6       1.0000 0.10063  0.56874  0.75111  Biso   1.000  N
  C6       1.0000 0.95144  0.96639  0.19997  Biso   1.000  C
  C7       1.0000 0.16137  0.93780  0.14798  Biso   1.000  C
  C8       1.0000 0.36167  0.81302  0.27979  Biso   1.000  C
  C9       1.0000 0.36596  0.72261  0.48818  Biso   1.000  C
  H5       1.0000 0.43072  0.53131  0.38241  Biso   1.000  H
  C10      1.0000 0.38338  0.57809  0.69385  Biso   1.000  C
  H6       1.0000 0.42957  0.41829  0.62892  Biso   1.000  H
  C11      1.0000 0.98459  0.63982  0.76830  Biso   1.000  C
  C12      1.0000 0.20001  0.54935  0.82378  Biso   1.000  C
  O4       1.0000 0.85763  0.93980  0.24149  Biso   1.000  O
  N7       1.0000 0.95596  0.08612  0.13172  Biso   1.000  N
  N8       1.0000 0.26036  0.92973  0.21358  Biso   1.000  N
  O5       1.0000 0.21050  0.88691  0.07488  Biso   1.000  O
  C13      1.0000 0.07967  0.08427  0.08977  Biso   1.000  C
  H7       1.0000 0.39154  0.76427  0.23664  Biso   1.000  H
  H8       1.0000 0.43195  0.83508  0.29085  Biso   1.000  H
  O6       1.0000 0.41639  0.79114  0.49277  Biso   1.000  O
  H9       1.0000 0.41806  0.48420  0.73052  Biso   1.000  H
  H10      1.0000 0.45219  0.60905  0.69104  Biso   1.000  H
  N9       1.0000 0.28679  0.61778  0.76294  Biso   1.000  N
  N10      1.0000 0.99715  0.67528  0.84718  Biso   1.000  N
  O7       1.0000 0.88484  0.66614  0.72125  Biso   1.000  O
  C14      1.0000 0.12574  0.62331  0.89288  Biso   1.000  C
  O8       1.0000 0.25969  0.41995  0.88709  Biso   1.000  O
  C15      1.0000 0.84208  0.19818  0.08509  Biso   1.000  C
  C16      1.0000 0.24727  0.04593  0.20499  Biso   1.000  C
  H11      1.0000 0.15200  0.89351  0.03812  Biso   1.000  H
  O9       1.0000 0.06957  0.14530  0.97362  Biso   1.000  O
  N11      1.0000 0.14191  0.13726  0.13606  Biso   1.000  N
  C17      1.0000 0.27646  0.71393  0.78719  Biso   1.000  C
  C18      1.0000 0.88970  0.72777  0.90181  Biso   1.000  C
  N12      1.0000 0.18411  0.71845  0.86361  Biso   1.000  N
  O10      1.0000 0.13000  0.54715  0.00920  Biso   1.000  O
  H12      1.0000 0.29709  0.38900  0.84438  Biso   1.000  H
  H13      1.0000 0.77003  0.16939  0.09420  Biso   1.000  H
  H14      1.0000 0.84978  0.24734  0.00340  Biso   1.000  H
  N13      1.0000 0.81591  0.28147  0.13640  Biso   1.000  N
  O11      1.0000 0.31840  0.06620  0.24992  Biso   1.000  O
  H15      1.0000 0.03465  0.11225  0.95082  Biso   1.000  H
  C19      1.0000 0.11032  0.27215  0.09820  Biso   1.000  C
  O12      1.0000 0.34103  0.78283  0.75001  Biso   1.000  O
  H16      1.0000 0.81609  0.71289  0.88675  Biso   1.000  H
  H17      1.0000 0.90867  0.68174  0.98435  Biso   1.000  H
  N14      1.0000 0.85810  0.86266  0.86395  Biso   1.000  N
  C20      1.0000 0.15790  0.80182  0.91492  Biso   1.000  C
  H18      1.0000 0.08967  0.59224  0.03992  Biso   1.000  H
  C21      1.0000 0.87415  0.37669  0.10713  Biso   1.000  C
  C22      1.0000 0.72352  0.28607  0.21282  Biso   1.000  C
  H19      1.0000 0.18390  0.28707  0.11334  Biso   1.000  H
  H20      1.0000 0.09135  0.31814  0.01574  Biso   1.000  H
  N15      1.0000 0.00287  0.32463  0.15283  Biso   1.000  N
  C23      1.0000 0.75275  0.95399  0.79502  Biso   1.000  C
  C24      1.0000 0.92034  0.91564  0.91024  Biso   1.000  C
  H21      1.0000 0.22995  0.83062  0.90581  Biso   1.000  H
  H22      1.0000 0.15023  0.75258  0.99661  Biso   1.000  H
  N16      1.0000 0.04405  0.91380  0.86829  Biso   1.000  N
  O13      1.0000 0.86999  0.45285  0.99081  Biso   1.000  O
  C25      1.0000 0.80001  0.45057  0.17623  Biso   1.000  C
  N17      1.0000 0.71319  0.38222  0.23707  Biso   1.000  N
  O14      1.0000 0.65887  0.21717  0.25000  Biso   1.000  O
  C26      1.0000 0.01539  0.36018  0.23171  Biso   1.000  C
  O15      1.0000 0.68153  0.93371  0.75009  Biso   1.000  O
  N18      1.0000 0.73966  0.07019  0.78643  Biso   1.000  N
  O16      1.0000 0.93044  0.85462  0.02639  Biso   1.000  O
  C27      1.0000 0.83853  0.06221  0.85203  Biso   1.000  C
  C28      1.0000 0.04854  0.03361  0.80004  Biso   1.000  C
  H23      1.0000 0.91032  0.40776  0.96009  Biso   1.000  H
  N19      1.0000 0.89939  0.43118  0.24890  Biso   1.000  N
  O17      1.0000 0.74024  0.57997  0.11292  Biso   1.000  O
  C29      1.0000 0.61660  0.42192  0.30616  Biso   1.000  C
  O18      1.0000 0.11517  0.33377  0.27876  Biso   1.000  O
  C30      1.0000 0.63834  0.18689  0.72023  Biso   1.000  C
  H24      1.0000 0.96533  0.88775  0.04920  Biso   1.000  H
  N20      1.0000 0.92907  0.12164  0.78413  Biso   1.000  N
  O19      1.0000 0.78943  0.11300  0.92513  Biso   1.000  O
  O20      1.0000 0.14238  0.06011  0.75852  Biso   1.000  O
  C31      1.0000 0.88179  0.49856  0.31527  Biso   1.000  C
  H25      1.0000 0.70289  0.61100  0.15563  Biso   1.000  H
  H26      1.0000 0.58184  0.51580  0.26949  Biso   1.000  H
  H27      1.0000 0.54783  0.39087  0.30897  Biso   1.000  H
  N21      1.0000 0.66107  0.37605  0.42112  Biso   1.000  N
  H28      1.0000 0.60848  0.23561  0.76345  Biso   1.000  H
  H29      1.0000 0.56807  0.16479  0.70925  Biso   1.000  H
  N22      1.0000 0.67363  0.26805  0.60952  Biso   1.000  N
  C32      1.0000 0.90587  0.25764  0.73299  Biso   1.000  C
  H30      1.0000 0.84801  0.10640  0.96189  Biso   1.000  H
  H31      1.0000 0.96173  0.50898  0.32174  Biso   1.000  H
  H32      1.0000 0.81910  0.58428  0.27451  Biso   1.000  H
  N23      1.0000 0.84096  0.43564  0.42853  Biso   1.000  N
  C33      1.0000 0.63406  0.27731  0.51183  Biso   1.000  C
  C34      1.0000 0.70999  0.44732  0.45431  Biso   1.000  C
  C35      1.0000 0.71770  0.37046  0.58867  Biso   1.000  C
  H33      1.0000 0.84913  0.29224  0.78013  Biso   1.000  H
  H34      1.0000 0.98607  0.27052  0.73325  Biso   1.000  H
  N24      1.0000 0.85121  0.32901  0.61820  Biso   1.000  N
  C36      1.0000 0.92083  0.36830  0.52392  Biso   1.000  C
  O21      1.0000 0.58359  0.20886  0.50724  Biso   1.000  O
  O22      1.0000 0.63000  0.57299  0.40802  Biso   1.000  O
  O23      1.0000 0.64372  0.43839  0.64271  Biso   1.000  O
  O24      1.0000 0.03321  0.34896  0.52630  Biso   1.000  O
  H35      1.0000 0.57033  0.58172  0.37109  Biso   1.000  H
  H36      1.0000 0.56926  0.46869  0.61760  Biso   1.000  H
  Ne1      1.0000 0.99999  0.99997  0.50001  Biso   1.000  Ne
  He1      1.0000 0.23120  0.05434  0.51029  Biso   1.000  He
  He2      1.0000 0.74695  0.93950  0.48914  Biso   1.000  He
  Ar1      1.0000 0.99999  0.99999  0.49999  Biso   1.000  Ar
