data_image0
_cell_length_a       8.451
_cell_length_b       10.722
_cell_length_c       10.054
_cell_angle_alpha    93.05
_cell_angle_beta     102.59
_cell_angle_gamma    95.33

_symmetry_space_group_name_H-M    "P 1"
_symmetry_int_tables_number       1

loop_
  _symmetry_equiv_pos_as_xyz
  'x, y, z'

loop_
  _atom_site_label
  _atom_site_occupancy
  _atom_site_fract_x
  _atom_site_fract_y
  _atom_site_fract_z
  _atom_site_thermal_displace_type
  _atom_site_B_iso_or_equiv
  _atom_site_type_symbol
  C1       1.0000 0.14189  0.86860  0.86948  Biso   1.000  C
  C2       1.0000 0.01419  0.88363  0.74346  Biso   1.000  C
  O1       1.0000 0.27073  0.81229  0.83156  Biso   1.000  O
  C3       1.0000 0.95780  0.99099  0.70994  Biso   1.000  C
  C4       1.0000 0.96021  0.75939  0.66068  Biso   1.000  C
  C5       1.0000 0.35141  0.73619  0.92815  Biso   1.000  C
  C6       1.0000 0.01070  0.11206  0.79549  Biso   1.000  C
  C7       1.0000 0.82678  0.00431  0.58607  Biso   1.000  C
  O2       1.0000 0.92728  0.66080  0.74367  Biso   1.000  O
  C8       1.0000 0.47460  0.80699  0.04109  Biso   1.000  C
  O3       1.0000 0.05505  0.20469  0.71178  Biso   1.000  O
  O4       1.0000 0.69980  0.06690  0.62143  Biso   1.000  O
  C9       1.0000 0.78078  0.66990  0.78833  Biso   1.000  C
  O5       1.0000 0.39347  0.86889  0.12857  Biso   1.000  O
  C10      1.0000 0.00819  0.32394  0.74152  Biso   1.000  C
  C11      1.0000 0.59638  0.98975  0.68388  Biso   1.000  C
  C12      1.0000 0.78109  0.59279  0.90536  Biso   1.000  C
  C13      1.0000 0.50063  0.93178  0.24632  Biso   1.000  C
  C14      1.0000 0.12414  0.39840  0.85732  Biso   1.000  C
  C15      1.0000 0.49937  0.06822  0.75368  Biso   1.000  C
  O6       1.0000 0.88836  0.65409  0.02054  Biso   1.000  O
  C16      1.0000 0.40361  0.01016  0.31612  Biso   1.000  C
  O7       1.0000 0.11167  0.34591  0.97956  Biso   1.000  O
  O8       1.0000 0.60641  0.13111  0.87143  Biso   1.000  O
  C17      1.0000 0.87574  0.60160  0.14268  Biso   1.000  C
  O9       1.0000 0.30008  0.93310  0.37857  Biso   1.000  O
  C18      1.0000 0.21893  0.40721  0.09474  Biso   1.000  C
  C19      1.0000 0.52540  0.19301  0.95891  Biso   1.000  C
  C20      1.0000 0.99181  0.67606  0.25848  Biso   1.000  C
  C21      1.0000 0.17324  0.99570  0.41404  Biso   1.000  C
  C22      1.0000 0.21922  0.33010  0.21167  Biso   1.000  C
  C23      1.0000 0.64859  0.26381  0.07185  Biso   1.000  C
  O10      1.0000 0.94495  0.79531  0.28822  Biso   1.000  O
  C24      1.0000 0.04208  0.00901  0.29006  Biso   1.000  C
  O11      1.0000 0.07261  0.33920  0.25633  Biso   1.000  O
  O12      1.0000 0.72918  0.18772  0.16854  Biso   1.000  O
  C25      1.0000 0.98930  0.88794  0.20451  Biso   1.000  C
  C26      1.0000 0.98584  0.11637  0.25664  Biso   1.000  C
  C27      1.0000 0.03967  0.24061  0.33932  Biso   1.000  C
  C28      1.0000 0.85799  0.13140  0.13052  Biso   1.000  C
  Ne1      1.0000 0.99998  1.00000  0.00001  Biso   1.000  Ne
  He1      1.0000 0.03962  0.01671  0.01873  Biso   1.000  He
  He2      1.0000 0.95446  0.98077  0.97861  Biso   1.000  He
  He3      1.0000 0.94775  0.83470  0.98327  Biso   1.000  He
  He4      1.0000 0.03957  0.16972  0.01061  Biso   1.000  He
  Ar1      1.0000 0.99997  0.00001  0.00002  Biso   1.000  Ar
