data_image0
_cell_length_a       8.451
_cell_length_b       10.722
_cell_length_c       10.054
_cell_angle_alpha    93.05
_cell_angle_beta     102.59
_cell_angle_gamma    95.33

_symmetry_space_group_name_H-M    "P 1"
_symmetry_int_tables_number       1

loop_
  _symmetry_equiv_pos_as_xyz
  'x, y, z'

loop_
  _atom_site_label
  _atom_site_occupancy
  _atom_site_fract_x
  _atom_site_fract_y
  _atom_site_fract_z
  _atom_site_thermal_displace_type
  _atom_site_B_iso_or_equiv
  _atom_site_type_symbol
  C1       1.0000 0.14189  0.86860  0.86948  Biso   1.000  C
  C2       1.0000 0.01419  0.88363  0.74346  Biso   1.000  C
  O1       1.0000 0.27073  0.81229  0.83156  Biso   1.000  O
  H1       1.0000 0.18217  0.94812  0.91660  Biso   1.000  H
  H2       1.0000 0.09637  0.81622  0.92856  Biso   1.000  H
  C3       1.0000 0.95780  0.99099  0.70994  Biso   1.000  C
  C4       1.0000 0.96021  0.75939  0.66068  Biso   1.000  C
  C5       1.0000 0.35141  0.73619  0.92815  Biso   1.000  C
  C6       1.0000 0.01070  0.11206  0.79549  Biso   1.000  C
  C7       1.0000 0.82678  0.00431  0.58607  Biso   1.000  C
  O2       1.0000 0.92728  0.66080  0.74367  Biso   1.000  O
  H3       1.0000 0.86580  0.66790  0.59373  Biso   1.000  H
  H4       1.0000 0.04593  0.73907  0.61765  Biso   1.000  H
  C8       1.0000 0.47460  0.80699  0.04109  Biso   1.000  C
  H5       1.0000 0.27005  0.69040  0.96331  Biso   1.000  H
  H6       1.0000 0.40309  0.67945  0.87991  Biso   1.000  H
  O3       1.0000 0.05505  0.20469  0.71178  Biso   1.000  O
  H7       1.0000 0.92238  0.13568  0.83340  Biso   1.000  H
  H8       1.0000 0.10066  0.10203  0.86815  Biso   1.000  H
  H9       1.0000 0.78379  0.92379  0.54355  Biso   1.000  H
  O4       1.0000 0.69980  0.06690  0.62143  Biso   1.000  O
  H10      1.0000 0.87362  0.05196  0.52372  Biso   1.000  H
  C9       1.0000 0.78078  0.66990  0.78833  Biso   1.000  C
  O5       1.0000 0.39347  0.86889  0.12857  Biso   1.000  O
  H11      1.0000 0.53915  0.74934  0.09035  Biso   1.000  H
  H12      1.0000 0.54094  0.86617  0.00583  Biso   1.000  H
  C10      1.0000 0.00819  0.32394  0.74152  Biso   1.000  C
  C11      1.0000 0.59638  0.98975  0.68388  Biso   1.000  C
  C12      1.0000 0.78109  0.59279  0.90536  Biso   1.000  C
  H13      1.0000 0.69046  0.64008  0.71505  Biso   1.000  H
  H14      1.0000 0.77300  0.75473  0.81470  Biso   1.000  H
  C13      1.0000 0.50063  0.93178  0.24632  Biso   1.000  C
  C14      1.0000 0.12414  0.39840  0.85732  Biso   1.000  C
  H15      1.0000 0.90343  0.31260  0.76298  Biso   1.000  H
  H16      1.0000 0.99998  0.36945  0.66180  Biso   1.000  H
  C15      1.0000 0.49937  0.06822  0.75368  Biso   1.000  C
  H17      1.0000 0.52492  0.93390  0.61622  Biso   1.000  H
  H18      1.0000 0.66129  0.94310  0.74868  Biso   1.000  H
  O6       1.0000 0.88836  0.65409  0.02054  Biso   1.000  O
  H19      1.0000 0.81464  0.51263  0.88543  Biso   1.000  H
  H20      1.0000 0.67344  0.58095  0.92089  Biso   1.000  H
  C16      1.0000 0.40361  0.01016  0.31612  Biso   1.000  C
  H21      1.0000 0.54663  0.87184  0.30447  Biso   1.000  H
  H22      1.0000 0.58368  0.98292  0.21933  Biso   1.000  H
  O7       1.0000 0.11167  0.34591  0.97956  Biso   1.000  O
  H23      1.0000 0.09719  0.48244  0.86028  Biso   1.000  H
  H24      1.0000 0.23129  0.39701  0.84403  Biso   1.000  H
  O8       1.0000 0.60641  0.13111  0.87143  Biso   1.000  O
  H25      1.0000 0.45337  0.12816  0.69553  Biso   1.000  H
  H26      1.0000 0.41620  0.01708  0.78067  Biso   1.000  H
  C17      1.0000 0.87574  0.60160  0.14268  Biso   1.000  C
  O9       1.0000 0.30008  0.93310  0.37857  Biso   1.000  O
  H27      1.0000 0.47508  0.06610  0.38378  Biso   1.000  H
  H28      1.0000 0.33874  0.05690  0.25143  Biso   1.000  H
  C18      1.0000 0.21893  0.40721  0.09474  Biso   1.000  C
  C19      1.0000 0.52540  0.19301  0.95891  Biso   1.000  C
  C20      1.0000 0.99181  0.67606  0.25848  Biso   1.000  C
  H29      1.0000 0.90272  0.51757  0.13982  Biso   1.000  H
  H30      1.0000 0.76871  0.60299  0.15597  Biso   1.000  H
  C21      1.0000 0.17324  0.99570  0.41404  Biso   1.000  C
  C22      1.0000 0.21922  0.33010  0.21167  Biso   1.000  C
  H31      1.0000 0.18539  0.48738  0.11467  Biso   1.000  H
  H32      1.0000 0.32647  0.41906  0.07921  Biso   1.000  H
  C23      1.0000 0.64859  0.26381  0.07185  Biso   1.000  C
  H33      1.0000 0.46084  0.25057  0.90965  Biso   1.000  H
  H34      1.0000 0.45909  0.13383  0.99428  Biso   1.000  H
  O10      1.0000 0.94495  0.79531  0.28822  Biso   1.000  O
  H35      1.0000 0.09647  0.68741  0.23712  Biso   1.000  H
  H36      1.0000 0.00002  0.63055  0.33820  Biso   1.000  H
  C24      1.0000 0.04208  0.00901  0.29006  Biso   1.000  C
  H37      1.0000 0.21621  0.07621  0.45645  Biso   1.000  H
  H38      1.0000 0.12638  0.94804  0.47628  Biso   1.000  H
  O11      1.0000 0.07261  0.33920  0.25633  Biso   1.000  O
  H39      1.0000 0.30945  0.35993  0.28505  Biso   1.000  H
  H40      1.0000 0.22688  0.24527  0.18530  Biso   1.000  H
  O12      1.0000 0.72918  0.18772  0.16854  Biso   1.000  O
  H41      1.0000 0.72995  0.30960  0.03669  Biso   1.000  H
  H42      1.0000 0.59691  0.32055  0.12009  Biso   1.000  H
  C25      1.0000 0.98930  0.88794  0.20451  Biso   1.000  C
  C26      1.0000 0.98584  0.11637  0.25664  Biso   1.000  C
  C27      1.0000 0.03967  0.24061  0.33932  Biso   1.000  C
  C28      1.0000 0.85799  0.13140  0.13052  Biso   1.000  C
  H43      1.0000 0.89922  0.89797  0.13185  Biso   1.000  H
  H44      1.0000 0.07750  0.86432  0.16660  Biso   1.000  H
  H45      1.0000 0.13408  0.33210  0.40627  Biso   1.000  H
  H46      1.0000 0.95395  0.26093  0.38235  Biso   1.000  H
  H47      1.0000 0.81771  0.05188  0.08340  Biso   1.000  H
  H48      1.0000 0.90352  0.18378  0.07144  Biso   1.000  H
