data_image0
_cell_length_a       11.933
_cell_length_b       12.136
_cell_length_c       12.148
_cell_angle_alpha    92.36
_cell_angle_beta     103.6
_cell_angle_gamma    90.21

_symmetry_space_group_name_H-M    "P 1"
_symmetry_int_tables_number       1

loop_
  _symmetry_equiv_pos_as_xyz
  'x, y, z'

loop_
  _atom_site_label
  _atom_site_occupancy
  _atom_site_fract_x
  _atom_site_fract_y
  _atom_site_fract_z
  _atom_site_thermal_displace_type
  _atom_site_B_iso_or_equiv
  _atom_site_type_symbol
  N1       1.0000 0.69606  0.73560  0.42335  Biso   1.000  N
  C1       1.0000 0.80450  0.70778  0.40631  Biso   1.000  C
  C2       1.0000 0.64240  0.83391  0.39792  Biso   1.000  C
  H1       1.0000 0.65944  0.68576  0.45285  Biso   1.000  H
  C3       1.0000 0.83027  0.58845  0.42759  Biso   1.000  C
  O1       1.0000 0.86149  0.77269  0.38046  Biso   1.000  O
  H2       1.0000 0.86428  0.75444  0.45785  Biso   1.000  H
  H3       1.0000 0.80705  0.72267  0.32747  Biso   1.000  H
  H4       1.0000 0.68964  0.89418  0.44378  Biso   1.000  H
  H5       1.0000 0.63654  0.84764  0.31688  Biso   1.000  H
  C4       1.0000 0.52437  0.83517  0.42013  Biso   1.000  C
  O2       1.0000 0.67065  0.88845  0.32536  Biso   1.000  O
  C5       1.0000 0.85848  0.55259  0.54076  Biso   1.000  C
  C6       1.0000 0.82094  0.51307  0.33799  Biso   1.000  C
  C7       1.0000 0.42738  0.80114  0.33197  Biso   1.000  C
  C8       1.0000 0.50958  0.86276  0.52737  Biso   1.000  C
  C9       1.0000 0.87284  0.43850  0.56119  Biso   1.000  C
  C10      1.0000 0.87551  0.62806  0.63452  Biso   1.000  C
  C11      1.0000 0.84147  0.40119  0.35791  Biso   1.000  C
  O3       1.0000 0.79449  0.55436  0.23245  Biso   1.000  O
  C12      1.0000 0.31647  0.79060  0.35579  Biso   1.000  C
  C13      1.0000 0.43735  0.77690  0.21998  Biso   1.000  C
  C14      1.0000 0.39882  0.86162  0.54746  Biso   1.000  C
  O4       1.0000 0.60660  0.89214  0.60875  Biso   1.000  O
  C15      1.0000 0.89448  0.40185  0.67529  Biso   1.000  C
  C16      1.0000 0.86664  0.36495  0.46608  Biso   1.000  C
  C17      1.0000 0.90503  0.59370  0.74226  Biso   1.000  C
  H6       1.0000 0.86611  0.70466  0.62206  Biso   1.000  H
  H7       1.0000 0.83778  0.35012  0.29569  Biso   1.000  H
  C18      1.0000 0.75763  0.48048  0.13530  Biso   1.000  C
  C19      1.0000 0.22069  0.74777  0.27000  Biso   1.000  C
  C20      1.0000 0.30669  0.82608  0.46455  Biso   1.000  C
  C21      1.0000 0.34419  0.74296  0.13801  Biso   1.000  C
  H8       1.0000 0.51020  0.78437  0.20176  Biso   1.000  H
  H9       1.0000 0.38794  0.88592  0.61960  Biso   1.000  H
  C22      1.0000 0.59592  0.91234  0.72277  Biso   1.000  C
  C23      1.0000 0.89611  0.28241  0.70742  Biso   1.000  C
  C24      1.0000 0.91386  0.48098  0.76202  Biso   1.000  C
  H10      1.0000 0.88036  0.28881  0.47769  Biso   1.000  H
  H11      1.0000 0.91951  0.64608  0.80440  Biso   1.000  H
  H12      1.0000 0.69527  0.43099  0.14581  Biso   1.000  H
  H13      1.0000 0.82288  0.43492  0.12360  Biso   1.000  H
  C25      1.0000 0.71493  0.55060  0.03527  Biso   1.000  C
  C26      1.0000 0.10407  0.71758  0.29263  Biso   1.000  C
  C27      1.0000 0.23731  0.72728  0.16293  Biso   1.000  C
  H14      1.0000 0.23267  0.82520  0.48091  Biso   1.000  H
  H15      1.0000 0.35188  0.72981  0.06248  Biso   1.000  H
  H16      1.0000 0.53763  0.96976  0.72446  Biso   1.000  H
  H17      1.0000 0.56962  0.84392  0.75150  Biso   1.000  H
  C28      1.0000 0.71004  0.94953  0.79771  Biso   1.000  C
  C29      1.0000 0.77947  0.25213  0.72997  Biso   1.000  C
  C30      1.0000 0.98867  0.27268  0.81695  Biso   1.000  C
  H18      1.0000 0.91327  0.23285  0.64579  Biso   1.000  H
  O5       1.0000 0.94212  0.45806  0.87519  Biso   1.000  O
  H19      1.0000 0.77990  0.59618  0.02382  Biso   1.000  H
  C31      1.0000 0.61800  0.62541  0.04891  Biso   1.000  C
  H20      1.0000 0.68819  0.50190  0.96668  Biso   1.000  H
  C32      1.0000 0.10568  0.59804  0.32468  Biso   1.000  C
  C33      1.0000 0.01149  0.72730  0.18302  Biso   1.000  C
  H21      1.0000 0.08689  0.76705  0.35418  Biso   1.000  H
  O6       1.0000 0.15106  0.68996  0.07104  Biso   1.000  O
  H22      1.0000 0.70036  0.96606  0.87536  Biso   1.000  H
  C34      1.0000 0.79771  0.86813  0.80186  Biso   1.000  C
  H23      1.0000 0.73524  0.01845  0.76922  Biso   1.000  H
  C35      1.0000 0.68369  0.20938  0.64418  Biso   1.000  C
  C36      1.0000 0.76285  0.27270  0.83704  Biso   1.000  C
  C37      1.0000 0.95329  0.34629  0.90571  Biso   1.000  C
  H24      1.0000 0.99427  0.19523  0.84052  Biso   1.000  H
  H25      1.0000 0.06470  0.29645  0.80618  Biso   1.000  H
  H26      1.0000 0.55190  0.57891  0.05603  Biso   1.000  H
  H27      1.0000 0.64358  0.66980  0.12080  Biso   1.000  H
  C38      1.0000 0.57718  0.70169  0.95634  Biso   1.000  C
  C39      1.0000 0.12724  0.56148  0.43878  Biso   1.000  C
  C40      1.0000 0.08622  0.51900  0.23796  Biso   1.000  C
  C41      1.0000 0.04687  0.65369  0.09427  Biso   1.000  C
  H28      1.0000 0.00589  0.80467  0.15946  Biso   1.000  H
  H29      1.0000 0.93546  0.70345  0.19379  Biso   1.000  H
  H30      1.0000 0.77272  0.79973  0.83119  Biso   1.000  H
  H31      1.0000 0.80622  0.85092  0.72387  Biso   1.000  H
  C42      1.0000 0.91710  0.90542  0.87748  Biso   1.000  C
  C43      1.0000 0.57278  0.19876  0.66800  Biso   1.000  C
  C44      1.0000 0.69347  0.17390  0.53542  Biso   1.000  C
  C45      1.0000 0.65597  0.25694  0.86196  Biso   1.000  C
  O7       1.0000 0.84904  0.31003  0.92902  Biso   1.000  O
  H32      1.0000 0.01498  0.34329  0.97725  Biso   1.000  H
  H33      1.0000 0.52200  0.75319  0.97779  Biso   1.000  H
  H34      1.0000 0.53947  0.65939  0.88700  Biso   1.000  H
  H35      1.0000 0.64297  0.74315  0.94278  Biso   1.000  H
  C46      1.0000 0.14168  0.44739  0.45921  Biso   1.000  C
  C47      1.0000 0.13344  0.63495  0.53389  Biso   1.000  C
  C48      1.0000 0.09513  0.40628  0.25771  Biso   1.000  C
  O8       1.0000 0.05804  0.54184  0.12478  Biso   1.000  O
  H36      1.0000 0.98518  0.65670  0.02272  Biso   1.000  H
  H37      1.0000 0.94333  0.97241  0.84806  Biso   1.000  H
  H38      1.0000 0.91000  0.92057  0.95538  Biso   1.000  H
  H39      1.0000 0.97312  0.84671  0.87646  Biso   1.000  H
  C49      1.0000 0.47573  0.16481  0.57993  Biso   1.000  C
  C50      1.0000 0.56281  0.22309  0.77999  Biso   1.000  C
  C51      1.0000 0.60134  0.13828  0.45251  Biso   1.000  C
  H40      1.0000 0.76741  0.17478  0.51906  Biso   1.000  H
  H41      1.0000 0.64828  0.27017  0.93749  Biso   1.000  H
  C52      1.0000 0.16989  0.41145  0.57238  Biso   1.000  C
  C53      1.0000 0.12465  0.37184  0.36545  Biso   1.000  C
  C54      1.0000 0.15869  0.59879  0.64206  Biso   1.000  C
  H42      1.0000 0.11980  0.71117  0.52228  Biso   1.000  H
  H43      1.0000 0.08065  0.35390  0.19557  Biso   1.000  H
  C55      1.0000 0.49058  0.13714  0.47260  Biso   1.000  C
  C56      1.0000 0.35776  0.16607  0.60205  Biso   1.000  C
  H44      1.0000 0.48996  0.21553  0.79821  Biso   1.000  H
  H45      1.0000 0.61222  0.11398  0.38037  Biso   1.000  H
  C57      1.0000 0.19566  0.29221  0.59366  Biso   1.000  C
  C58      1.0000 0.17914  0.48683  0.66199  Biso   1.000  C
  H46      1.0000 0.13405  0.29524  0.37791  Biso   1.000  H
  H47      1.0000 0.16238  0.64986  0.70429  Biso   1.000  H
  O9       1.0000 0.39356  0.10776  0.39122  Biso   1.000  O
  H48      1.0000 0.31052  0.10581  0.55619  Biso   1.000  H
  N2       1.0000 0.30410  0.26438  0.57662  Biso   1.000  N
  H49      1.0000 0.36353  0.15226  0.68309  Biso   1.000  H
  O10      1.0000 0.32942  0.11145  0.67462  Biso   1.000  O
  O11      1.0000 0.13867  0.22729  0.61951  Biso   1.000  O
  H50      1.0000 0.13588  0.24546  0.54212  Biso   1.000  H
  H51      1.0000 0.19302  0.27723  0.67250  Biso   1.000  H
  O12      1.0000 0.20567  0.44562  0.76753  Biso   1.000  O
  C59      1.0000 0.40423  0.08756  0.27720  Biso   1.000  C
  H52      1.0000 0.34064  0.31414  0.54712  Biso   1.000  H
  C60      1.0000 0.24253  0.51942  0.86468  Biso   1.000  C
  C61      1.0000 0.29012  0.05037  0.20227  Biso   1.000  C
  H53      1.0000 0.46253  0.03022  0.27551  Biso   1.000  H
  H54      1.0000 0.43054  0.15597  0.24847  Biso   1.000  H
  H55      1.0000 0.30489  0.56899  0.85416  Biso   1.000  H
  H56      1.0000 0.17728  0.56506  0.87637  Biso   1.000  H
  C62      1.0000 0.28523  0.44938  0.96471  Biso   1.000  C
  C63      1.0000 0.20244  0.13177  0.19811  Biso   1.000  C
  H57      1.0000 0.29980  0.03392  0.12462  Biso   1.000  H
  H58      1.0000 0.26494  0.98153  0.23083  Biso   1.000  H
  H59      1.0000 0.22026  0.40372  0.97615  Biso   1.000  H
  C64      1.0000 0.38216  0.37457  0.95106  Biso   1.000  C
  H60      1.0000 0.31189  0.49808  0.03329  Biso   1.000  H
  H61      1.0000 0.22744  0.20017  0.16878  Biso   1.000  H
  H62      1.0000 0.19394  0.14898  0.27610  Biso   1.000  H
  C65      1.0000 0.08297  0.09448  0.12250  Biso   1.000  C
  H63      1.0000 0.44826  0.42107  0.94394  Biso   1.000  H
  H64      1.0000 0.35658  0.33018  0.87917  Biso   1.000  H
  C66      1.0000 0.42300  0.29829  0.04371  Biso   1.000  C
  H65      1.0000 0.05683  0.02749  0.15191  Biso   1.000  H
  H66      1.0000 0.09008  0.07941  0.04459  Biso   1.000  H
  H67      1.0000 0.02704  0.15319  0.12351  Biso   1.000  H
  H68      1.0000 0.47807  0.24679  0.02218  Biso   1.000  H
  H69      1.0000 0.46069  0.34059  0.11297  Biso   1.000  H
  H70      1.0000 0.35719  0.25675  0.05719  Biso   1.000  H
  Ne1      1.0000 0.50007  0.49997  0.49999  Biso   1.000  Ne
  He1      1.0000 0.45707  0.54049  0.50573  Biso   1.000  He
  He2      1.0000 0.45566  0.53370  0.48934  Biso   1.000  He
  Ar1      1.0000 0.50005  0.49995  0.50000  Biso   1.000  Ar
