data_image0
_cell_length_a       11.889
_cell_length_b       12.086
_cell_length_c       12.258
_cell_angle_alpha    91.89
_cell_angle_beta     90.47
_cell_angle_gamma    103.74

_symmetry_space_group_name_H-M    "P 1"
_symmetry_int_tables_number       1

loop_
  _symmetry_equiv_pos_as_xyz
  'x, y, z'

loop_
  _atom_site_label
  _atom_site_occupancy
  _atom_site_fract_x
  _atom_site_fract_y
  _atom_site_fract_z
  _atom_site_thermal_displace_type
  _atom_site_B_iso_or_equiv
  _atom_site_type_symbol
  N1       1.0000 0.69816  0.41584  0.73292  Biso   1.000  N
  C1       1.0000 0.80709  0.40082  0.70484  Biso   1.000  C
  C2       1.0000 0.64874  0.39641  0.83472  Biso   1.000  C
  H1       1.0000 0.65760  0.43949  0.68206  Biso   1.000  H
  C3       1.0000 0.83096  0.42405  0.58630  Biso   1.000  C
  O1       1.0000 0.86974  0.38105  0.77047  Biso   1.000  O
  H2       1.0000 0.86702  0.45306  0.75080  Biso   1.000  H
  H3       1.0000 0.81109  0.32180  0.71920  Biso   1.000  H
  H4       1.0000 0.64434  0.31655  0.85382  Biso   1.000  H
  H5       1.0000 0.69843  0.44696  0.89031  Biso   1.000  H
  C4       1.0000 0.52982  0.41802  0.83619  Biso   1.000  C
  O2       1.0000 0.68768  0.34195  0.89733  Biso   1.000  O
  C5       1.0000 0.85744  0.53812  0.55046  Biso   1.000  C
  C6       1.0000 0.82180  0.33477  0.51112  Biso   1.000  C
  C7       1.0000 0.43266  0.32999  0.80125  Biso   1.000  C
  C8       1.0000 0.51499  0.52527  0.86386  Biso   1.000  C
  C9       1.0000 0.86990  0.55993  0.43707  Biso   1.000  C
  C10      1.0000 0.87285  0.63168  0.62630  Biso   1.000  C
  C11      1.0000 0.84062  0.35600  0.40034  Biso   1.000  C
  O3       1.0000 0.79588  0.22737  0.55210  Biso   1.000  O
  C12      1.0000 0.32127  0.35401  0.78974  Biso   1.000  C
  C13      1.0000 0.44300  0.21731  0.77635  Biso   1.000  C
  C14      1.0000 0.40410  0.54647  0.86133  Biso   1.000  C
  O4       1.0000 0.61308  0.60652  0.89300  Biso   1.000  O
  C15      1.0000 0.89101  0.67504  0.40173  Biso   1.000  C
  C16      1.0000 0.86386  0.46498  0.36499  Biso   1.000  C
  C17      1.0000 0.90123  0.74068  0.59136  Biso   1.000  C
  H6       1.0000 0.86322  0.61843  0.70198  Biso   1.000  H
  H7       1.0000 0.83715  0.29429  0.34940  Biso   1.000  H
  C18      1.0000 0.76035  0.13124  0.47814  Biso   1.000  C
  C19      1.0000 0.22505  0.26773  0.74671  Biso   1.000  C
  C20      1.0000 0.31129  0.46367  0.82484  Biso   1.000  C
  C21      1.0000 0.34913  0.13453  0.74271  Biso   1.000  C
  H8       1.0000 0.51621  0.19942  0.78321  Biso   1.000  H
  H9       1.0000 0.39359  0.61883  0.88509  Biso   1.000  H
  C22      1.0000 0.60153  0.72093  0.91611  Biso   1.000  C
  C23      1.0000 0.89185  0.70882  0.28286  Biso   1.000  C
  C24      1.0000 0.90948  0.76136  0.47985  Biso   1.000  C
  H10      1.0000 0.87638  0.47730  0.28940  Biso   1.000  H
  H11      1.0000 0.91541  0.80284  0.64312  Biso   1.000  H
  H12      1.0000 0.69822  0.14214  0.42826  Biso   1.000  H
  H13      1.0000 0.82657  0.12072  0.43381  Biso   1.000  H
  C25      1.0000 0.71662  0.02888  0.54687  Biso   1.000  C
  C26      1.0000 0.10807  0.29115  0.71716  Biso   1.000  C
  C27      1.0000 0.24120  0.16009  0.72712  Biso   1.000  C
  H14      1.0000 0.23717  0.48038  0.82296  Biso   1.000  H
  H15      1.0000 0.35678  0.05866  0.72982  Biso   1.000  H
  H16      1.0000 0.54506  0.72118  0.97488  Biso   1.000  H
  H17      1.0000 0.57368  0.75209  0.85006  Biso   1.000  H
  C28      1.0000 0.71868  0.79277  0.95121  Biso   1.000  C
  C29      1.0000 0.77496  0.73224  0.25331  Biso   1.000  C
  C30      1.0000 0.98479  0.81956  0.27389  Biso   1.000  C
  H18      1.0000 0.90903  0.64760  0.23339  Biso   1.000  H
  O5       1.0000 0.93729  0.87627  0.45732  Biso   1.000  O
  H19      1.0000 0.78166  0.01626  0.59185  Biso   1.000  H
  C31      1.0000 0.61933  0.04103  0.62100  Biso   1.000  C
  H20      1.0000 0.68958  0.96077  0.49789  Biso   1.000  H
  C32      1.0000 0.10890  0.32484  0.59830  Biso   1.000  C
  C33      1.0000 0.01513  0.18041  0.72614  Biso   1.000  C
  H21      1.0000 0.09097  0.35237  0.76655  Biso   1.000  H
  O6       1.0000 0.15473  0.06764  0.68998  Biso   1.000  O
  H22      1.0000 0.71085  0.87039  0.97219  Biso   1.000  H
  C34      1.0000 0.80684  0.80134  0.86639  Biso   1.000  C
  H23      1.0000 0.74553  0.75988  0.01660  Biso   1.000  H
  C35      1.0000 0.67873  0.64596  0.21021  Biso   1.000  C
  C36      1.0000 0.75872  0.83988  0.27282  Biso   1.000  C
  C37      1.0000 0.94973  0.90833  0.34687  Biso   1.000  C
  H24      1.0000 0.99039  0.84403  0.19739  Biso   1.000  H
  H25      1.0000 0.06116  0.80860  0.29748  Biso   1.000  H
  H26      1.0000 0.64783  0.10676  0.67251  Biso   1.000  H
  H27      1.0000 0.55606  0.05784  0.57642  Biso   1.000  H
  C38      1.0000 0.57102  0.93656  0.68573  Biso   1.000  C
  C39      1.0000 0.13002  0.44004  0.56295  Biso   1.000  C
  C40      1.0000 0.09044  0.23860  0.52010  Biso   1.000  C
  C41      1.0000 0.05019  0.09164  0.65316  Biso   1.000  C
  H28      1.0000 0.00953  0.15594  0.80255  Biso   1.000  H
  H29      1.0000 0.93885  0.19136  0.70247  Biso   1.000  H
  H30      1.0000 0.77856  0.83113  0.79986  Biso   1.000  H
  H31      1.0000 0.81704  0.72407  0.84770  Biso   1.000  H
  C42      1.0000 0.92529  0.87895  0.90076  Biso   1.000  C
  C43      1.0000 0.68863  0.53630  0.17511  Biso   1.000  C
  C44      1.0000 0.56735  0.66997  0.19870  Biso   1.000  C
  C45      1.0000 0.65079  0.86544  0.25723  Biso   1.000  C
  O7       1.0000 0.84519  0.93232  0.30997  Biso   1.000  O
  H32      1.0000 0.01207  0.98021  0.34442  Biso   1.000  H
  H33      1.0000 0.63343  0.91799  0.72875  Biso   1.000  H
  H34      1.0000 0.51131  0.95161  0.73471  Biso   1.000  H
  H35      1.0000 0.53715  0.87224  0.63553  Biso   1.000  H
  C46      1.0000 0.14257  0.46184  0.44948  Biso   1.000  C
  C47      1.0000 0.13606  0.53499  0.63504  Biso   1.000  C
  C48      1.0000 0.09878  0.25929  0.40866  Biso   1.000  C
  O8       1.0000 0.06272  0.12370  0.54271  Biso   1.000  O
  H36      1.0000 0.98794  0.01976  0.65561  Biso   1.000  H
  H37      1.0000 0.97986  0.88097  0.84108  Biso   1.000  H
  H38      1.0000 0.95478  0.84902  0.96566  Biso   1.000  H
  H39      1.0000 0.91625  0.95624  0.91758  Biso   1.000  H
  C49      1.0000 0.59591  0.45350  0.13870  Biso   1.000  C
  H40      1.0000 0.76283  0.51959  0.17698  Biso   1.000  H
  C50      1.0000 0.47018  0.58195  0.16376  Biso   1.000  C
  C51      1.0000 0.55700  0.78266  0.22368  Biso   1.000  C
  H41      1.0000 0.64323  0.94131  0.27021  Biso   1.000  H
  C52      1.0000 0.16897  0.57592  0.41373  Biso   1.000  C
  C53      1.0000 0.12716  0.36828  0.37364  Biso   1.000  C
  C54      1.0000 0.15938  0.64397  0.59969  Biso   1.000  C
  H42      1.0000 0.12363  0.52267  0.71063  Biso   1.000  H
  H43      1.0000 0.08458  0.19704  0.35691  Biso   1.000  H
  C55      1.0000 0.48500  0.47461  0.13617  Biso   1.000  C
  H44      1.0000 0.60639  0.38105  0.11486  Biso   1.000  H
  C56      1.0000 0.35127  0.60356  0.16523  Biso   1.000  C
  H45      1.0000 0.48369  0.80046  0.21682  Biso   1.000  H
  C57      1.0000 0.19292  0.59915  0.29511  Biso   1.000  C
  C58      1.0000 0.17821  0.66520  0.48891  Biso   1.000  C
  H46      1.0000 0.13668  0.38146  0.29797  Biso   1.000  H
  H47      1.0000 0.16277  0.70568  0.65063  Biso   1.000  H
  O9       1.0000 0.38693  0.39345  0.10702  Biso   1.000  O
  H48      1.0000 0.35567  0.68342  0.14621  Biso   1.000  H
  H49      1.0000 0.30150  0.55301  0.10972  Biso   1.000  H
  N2       1.0000 0.30176  0.58412  0.26703  Biso   1.000  N
  O10      1.0000 0.31233  0.65802  0.10270  Biso   1.000  O
  O11      1.0000 0.13027  0.61891  0.22948  Biso   1.000  O
  H50      1.0000 0.13290  0.54691  0.24923  Biso   1.000  H
  H51      1.0000 0.18891  0.67817  0.28082  Biso   1.000  H
  O12      1.0000 0.20413  0.77260  0.44785  Biso   1.000  O
  C59      1.0000 0.39837  0.27896  0.08392  Biso   1.000  C
  H52      1.0000 0.34241  0.56048  0.31789  Biso   1.000  H
  C60      1.0000 0.23966  0.86873  0.52189  Biso   1.000  C
  C61      1.0000 0.28133  0.20720  0.04882  Biso   1.000  C
  H53      1.0000 0.45486  0.27879  0.02506  Biso   1.000  H
  H54      1.0000 0.42633  0.24787  0.14988  Biso   1.000  H
  H55      1.0000 0.30168  0.85774  0.57169  Biso   1.000  H
  H56      1.0000 0.17343  0.87925  0.56622  Biso   1.000  H
  C62      1.0000 0.28330  0.97109  0.45316  Biso   1.000  C
  C63      1.0000 0.19309  0.19863  0.13364  Biso   1.000  C
  H57      1.0000 0.28907  0.12958  0.02784  Biso   1.000  H
  H58      1.0000 0.25448  0.24009  0.98335  Biso   1.000  H
  H59      1.0000 0.21834  0.98371  0.40809  Biso   1.000  H
  C64      1.0000 0.38066  0.95885  0.37903  Biso   1.000  C
  H60      1.0000 0.31042  0.03919  0.50205  Biso   1.000  H
  H61      1.0000 0.22134  0.16875  0.20009  Biso   1.000  H
  H62      1.0000 0.18289  0.27590  0.15233  Biso   1.000  H
  C65      1.0000 0.07472  0.12101  0.09919  Biso   1.000  C
  H63      1.0000 0.35217  0.89321  0.32752  Biso   1.000  H
  H64      1.0000 0.44393  0.94204  0.42360  Biso   1.000  H
  C66      1.0000 0.42890  0.06341  0.31429  Biso   1.000  C
  H65      1.0000 0.02007  0.11900  0.15886  Biso   1.000  H
  H66      1.0000 0.04521  0.15086  0.03429  Biso   1.000  H
  H67      1.0000 0.08367  0.04372  0.08237  Biso   1.000  H
  H68      1.0000 0.36657  0.08197  0.27119  Biso   1.000  H
  H69      1.0000 0.48861  0.04836  0.26531  Biso   1.000  H
  H70      1.0000 0.46284  0.12764  0.36450  Biso   1.000  H
  Ne1      1.0000 0.49999  0.49998  0.50000  Biso   1.000  Ne
  He1      1.0000 0.61311  0.84071  0.58622  Biso   1.000  He
  He2      1.0000 0.45649  0.48934  0.53233  Biso   1.000  He
  Ar1      1.0000 0.49998  0.49998  0.49999  Biso   1.000  Ar
