data_image0
_cell_length_a       13.286
_cell_length_b       20.911
_cell_length_c       12.852
_cell_angle_alpha    90
_cell_angle_beta     75.33
_cell_angle_gamma    90

_symmetry_space_group_name_H-M    "P 1"
_symmetry_int_tables_number       1

loop_
  _symmetry_equiv_pos_as_xyz
  'x, y, z'

loop_
  _atom_site_label
  _atom_site_occupancy
  _atom_site_fract_x
  _atom_site_fract_y
  _atom_site_fract_z
  _atom_site_thermal_displace_type
  _atom_site_B_iso_or_equiv
  _atom_site_type_symbol
  O1       1.0000 0.53971  0.48008  0.65302  Biso   1.000  O
  C1       1.0000 0.56038  0.53297  0.68077  Biso   1.000  C
  C2       1.0000 0.48090  0.57879  0.74559  Biso   1.000  C
  N1       1.0000 0.65587  0.55727  0.64892  Biso   1.000  N
  C3       1.0000 0.48086  0.59304  0.85024  Biso   1.000  C
  C4       1.0000 0.40951  0.60896  0.69629  Biso   1.000  C
  C5       1.0000 0.74350  0.52437  0.57942  Biso   1.000  C
  H1       1.0000 0.66652  0.59581  0.67152  Biso   1.000  H
  C6       1.0000 0.40851  0.63799  0.90927  Biso   1.000  C
  O2       1.0000 0.55070  0.56066  0.89174  Biso   1.000  O
  C7       1.0000 0.34049  0.65726  0.75404  Biso   1.000  C
  C8       1.0000 0.40439  0.59399  0.59028  Biso   1.000  C
  H2       1.0000 0.78253  0.50079  0.62350  Biso   1.000  H
  H3       1.0000 0.71818  0.49299  0.53406  Biso   1.000  H
  C9       1.0000 0.81473  0.57233  0.50832  Biso   1.000  C
  C10      1.0000 0.34212  0.66860  0.86077  Biso   1.000  C
  H4       1.0000 0.40641  0.64660  0.98238  Biso   1.000  H
  C11      1.0000 0.57203  0.58491  0.98962  Biso   1.000  C
  C12      1.0000 0.27243  0.69050  0.70128  Biso   1.000  C
  H5       1.0000 0.45109  0.56339  0.54991  Biso   1.000  H
  C13      1.0000 0.33444  0.62245  0.54556  Biso   1.000  C
  C14      1.0000 0.78241  0.60523  0.42459  Biso   1.000  C
  C15      1.0000 0.90940  0.58591  0.52562  Biso   1.000  C
  H6       1.0000 0.29493  0.69901  0.90131  Biso   1.000  H
  H7       1.0000 0.53262  0.61628  0.03619  Biso   1.000  H
  C16      1.0000 0.66213  0.55339  0.00313  Biso   1.000  C
  C17      1.0000 0.20948  0.74999  0.74809  Biso   1.000  C
  C18      1.0000 0.26856  0.67041  0.60122  Biso   1.000  C
  H8       1.0000 0.32958  0.60992  0.47599  Biso   1.000  H
  C19      1.0000 0.68967  0.58806  0.39572  Biso   1.000  C
  C20      1.0000 0.84482  0.65583  0.36459  Biso   1.000  C
  C21      1.0000 0.97524  0.63254  0.46240  Biso   1.000  C
  O3       1.0000 0.93704  0.55105  0.60540  Biso   1.000  O
  C22      1.0000 0.76040  0.56009  0.90983  Biso   1.000  C
  H9       1.0000 0.66198  0.52948  0.06611  Biso   1.000  H
  C23      1.0000 0.11131  0.74999  0.70731  Biso   1.000  C
  H10      1.0000 0.19226  0.74999  0.82852  Biso   1.000  H
  C24      1.0000 0.27243  0.80948  0.70128  Biso   1.000  C
  O4       1.0000 0.19987  0.69509  0.54580  Biso   1.000  O
  H11      1.0000 0.64644  0.55540  0.43457  Biso   1.000  H
  C25      1.0000 0.66223  0.61771  0.31328  Biso   1.000  C
  C26      1.0000 0.80960  0.69031  0.28473  Biso   1.000  C
  C27      1.0000 0.94250  0.66687  0.38679  Biso   1.000  C
  H12      1.0000 0.04250  0.63990  0.47293  Biso   1.000  H
  C28      1.0000 0.03242  0.56415  0.63178  Biso   1.000  C
  H13      1.0000 0.74489  0.54278  0.84380  Biso   1.000  H
  H14      1.0000 0.81592  0.53321  0.92592  Biso   1.000  H
  C29      1.0000 0.80126  0.62618  0.88683  Biso   1.000  C
  C30      1.0000 0.14139  0.74999  0.58883  Biso   1.000  C
  H15      1.0000 0.06902  0.71159  0.73401  Biso   1.000  H
  H16      1.0000 0.06902  0.78839  0.73401  Biso   1.000  H
  C31      1.0000 0.34049  0.84276  0.75404  Biso   1.000  C
  C32      1.0000 0.26856  0.82961  0.60122  Biso   1.000  C
  H17      1.0000 0.60241  0.60341  0.29229  Biso   1.000  H
  C33      1.0000 0.72112  0.66970  0.25754  Biso   1.000  C
  C34      1.0000 0.86244  0.74999  0.22907  Biso   1.000  C
  H18      1.0000 0.98661  0.69920  0.34778  Biso   1.000  H
  H19      1.0000 0.09148  0.55569  0.56889  Biso   1.000  H
  H20      1.0000 0.03490  0.60958  0.65238  Biso   1.000  H
  C35      1.0000 0.03942  0.52188  0.72364  Biso   1.000  C
  H21      1.0000 0.83099  0.64072  0.94522  Biso   1.000  H
  H22      1.0000 0.85539  0.62661  0.81887  Biso   1.000  H
  H23      1.0000 0.74461  0.65482  0.88120  Biso   1.000  H
  H24      1.0000 0.07620  0.74999  0.56334  Biso   1.000  H
  O5       1.0000 0.19987  0.80494  0.54580  Biso   1.000  O
  C36      1.0000 0.34212  0.83138  0.86077  Biso   1.000  C
  C37      1.0000 0.40951  0.89101  0.69629  Biso   1.000  C
  C38      1.0000 0.33444  0.87758  0.54556  Biso   1.000  C
  O6       1.0000 0.68257  0.69514  0.17799  Biso   1.000  O
  C39      1.0000 0.80960  0.80972  0.28473  Biso   1.000  C
  H25      1.0000 0.93807  0.74999  0.22762  Biso   1.000  H
  C40      1.0000 0.84791  0.74999  0.11357  Biso   1.000  C
  H26      1.0000 0.97603  0.52738  0.78299  Biso   1.000  H
  H27      1.0000 0.04228  0.47669  0.69999  Biso   1.000  H
  C41      1.0000 0.13411  0.53651  0.76450  Biso   1.000  C
  H28      1.0000 0.29493  0.80101  0.90131  Biso   1.000  H
  C42      1.0000 0.40851  0.86203  0.90927  Biso   1.000  C
  C43      1.0000 0.48090  0.92124  0.74559  Biso   1.000  C
  C44      1.0000 0.40439  0.90598  0.59028  Biso   1.000  C
  H29      1.0000 0.32958  0.89011  0.47599  Biso   1.000  H
  C45      1.0000 0.73252  0.74999  0.12467  Biso   1.000  C
  C46      1.0000 0.72112  0.83028  0.25754  Biso   1.000  C
  C47      1.0000 0.84482  0.84420  0.36459  Biso   1.000  C
  H30      1.0000 0.88041  0.78848  0.07400  Biso   1.000  H
  H31      1.0000 0.88041  0.71149  0.07400  Biso   1.000  H
  H32      1.0000 0.13012  0.58142  0.78967  Biso   1.000  H
  H33      1.0000 0.19720  0.53221  0.70449  Biso   1.000  H
  C48      1.0000 0.14407  0.49309  0.85530  Biso   1.000  C
  H34      1.0000 0.40641  0.85338  0.98238  Biso   1.000  H
  C49      1.0000 0.48086  0.90694  0.85024  Biso   1.000  C
  C50      1.0000 0.56038  0.96705  0.68077  Biso   1.000  C
  H35      1.0000 0.45109  0.93659  0.54991  Biso   1.000  H
  H36      1.0000 0.72171  0.74999  0.05051  Biso   1.000  H
  O7       1.0000 0.68257  0.80484  0.17799  Biso   1.000  O
  C51      1.0000 0.66223  0.88231  0.31328  Biso   1.000  C
  C52      1.0000 0.78241  0.89474  0.42459  Biso   1.000  C
  C53      1.0000 0.94250  0.83315  0.38679  Biso   1.000  C
  H37      1.0000 0.08481  0.49988  0.91748  Biso   1.000  H
  H38      1.0000 0.14512  0.44852  0.83198  Biso   1.000  H
  H39      1.0000 0.20887  0.50280  0.87533  Biso   1.000  H
  O8       1.0000 0.55070  0.93936  0.89174  Biso   1.000  O
  N2       1.0000 0.65587  0.94276  0.64892  Biso   1.000  N
  O9       1.0000 0.53971  0.01989  0.65302  Biso   1.000  O
  C54      1.0000 0.68967  0.91191  0.39572  Biso   1.000  C
  H40      1.0000 0.60241  0.89661  0.29229  Biso   1.000  H
  C55      1.0000 0.81473  0.92769  0.50832  Biso   1.000  C
  H41      1.0000 0.98661  0.80082  0.34778  Biso   1.000  H
  C56      1.0000 0.97524  0.86744  0.46240  Biso   1.000  C
  C57      1.0000 0.57203  0.91512  0.98962  Biso   1.000  C
  C58      1.0000 0.74350  0.97566  0.57942  Biso   1.000  C
  H42      1.0000 0.66652  0.90421  0.67152  Biso   1.000  H
  H43      1.0000 0.64644  0.94462  0.43457  Biso   1.000  H
  C59      1.0000 0.90940  0.91411  0.52562  Biso   1.000  C
  H44      1.0000 0.04250  0.86012  0.47293  Biso   1.000  H
  H45      1.0000 0.53262  0.88370  0.03619  Biso   1.000  H
  C60      1.0000 0.66213  0.94658  0.00313  Biso   1.000  C
  H46      1.0000 0.78253  0.99919  0.62350  Biso   1.000  H
  H47      1.0000 0.71818  0.00698  0.53406  Biso   1.000  H
  O10      1.0000 0.93704  0.94897  0.60540  Biso   1.000  O
  C61      1.0000 0.76040  0.93989  0.90983  Biso   1.000  C
  H48      1.0000 0.66198  0.97049  0.06611  Biso   1.000  H
  C62      1.0000 0.03242  0.93582  0.63178  Biso   1.000  C
  H49      1.0000 0.74489  0.95720  0.84380  Biso   1.000  H
  H50      1.0000 0.81592  0.96681  0.92592  Biso   1.000  H
  C63      1.0000 0.80126  0.87380  0.88683  Biso   1.000  C
  H51      1.0000 0.09148  0.94429  0.56889  Biso   1.000  H
  H52      1.0000 0.03490  0.89039  0.65238  Biso   1.000  H
  C64      1.0000 0.03942  0.97815  0.72364  Biso   1.000  C
  H53      1.0000 0.83099  0.85931  0.94522  Biso   1.000  H
  H54      1.0000 0.85539  0.87342  0.81887  Biso   1.000  H
  H55      1.0000 0.74461  0.84520  0.88120  Biso   1.000  H
  H56      1.0000 0.97603  0.97260  0.78299  Biso   1.000  H
  C65      1.0000 0.13411  0.96351  0.76450  Biso   1.000  C
  H57      1.0000 0.04228  0.02329  0.69999  Biso   1.000  H
  H58      1.0000 0.13012  0.91861  0.78967  Biso   1.000  H
  H59      1.0000 0.19720  0.96782  0.70449  Biso   1.000  H
  C66      1.0000 0.14407  0.00689  0.85530  Biso   1.000  C
  H60      1.0000 0.20887  0.99718  0.87533  Biso   1.000  H
  H61      1.0000 0.08481  0.00010  0.91748  Biso   1.000  H
  H62      1.0000 0.14512  0.05150  0.83198  Biso   1.000  H
  O11      1.0000 0.46031  0.51992  0.34698  Biso   1.000  O
  C67      1.0000 0.43956  0.46703  0.31923  Biso   1.000  C
  C68      1.0000 0.51912  0.42121  0.25440  Biso   1.000  C
  N3       1.0000 0.34407  0.44273  0.35108  Biso   1.000  N
  C69      1.0000 0.59051  0.39104  0.30371  Biso   1.000  C
  C70      1.0000 0.51908  0.40696  0.14976  Biso   1.000  C
  C71      1.0000 0.25652  0.47563  0.42057  Biso   1.000  C
  H63      1.0000 0.33350  0.40419  0.32848  Biso   1.000  H
  C72      1.0000 0.65951  0.34274  0.24604  Biso   1.000  C
  C73      1.0000 0.59562  0.40601  0.40972  Biso   1.000  C
  C74      1.0000 0.59150  0.36201  0.09073  Biso   1.000  C
  O12      1.0000 0.44932  0.43934  0.10826  Biso   1.000  O
  H64      1.0000 0.21749  0.49921  0.37650  Biso   1.000  H
  H65      1.0000 0.28176  0.50701  0.46594  Biso   1.000  H
  C75      1.0000 0.18529  0.42767  0.49167  Biso   1.000  C
  C76      1.0000 0.72759  0.30950  0.29872  Biso   1.000  C
  C77      1.0000 0.65790  0.33140  0.13923  Biso   1.000  C
  C78      1.0000 0.66558  0.37755  0.45443  Biso   1.000  C
  H66      1.0000 0.54893  0.43661  0.45009  Biso   1.000  H
  H67      1.0000 0.59361  0.35340  0.01761  Biso   1.000  H
  C79      1.0000 0.42799  0.41509  0.01038  Biso   1.000  C
  C80      1.0000 0.21761  0.39477  0.57540  Biso   1.000  C
  C81      1.0000 0.09062  0.41409  0.47438  Biso   1.000  C
  C82      1.0000 0.79046  0.25001  0.25191  Biso   1.000  C
  C83      1.0000 0.73138  0.32959  0.39878  Biso   1.000  C
  H68      1.0000 0.70509  0.30099  0.09869  Biso   1.000  H
  H69      1.0000 0.67036  0.39008  0.52401  Biso   1.000  H
  H70      1.0000 0.46739  0.38372  0.96381  Biso   1.000  H
  C84      1.0000 0.33789  0.44661  0.99686  Biso   1.000  C
  C85      1.0000 0.15519  0.34417  0.63540  Biso   1.000  C
  C86      1.0000 0.31034  0.41194  0.60428  Biso   1.000  C
  C87      1.0000 0.02478  0.36746  0.53760  Biso   1.000  C
  O13      1.0000 0.06290  0.44895  0.39459  Biso   1.000  O
  C88      1.0000 0.72759  0.19052  0.29872  Biso   1.000  C
  C89      1.0000 0.88871  0.25001  0.29269  Biso   1.000  C
  H71      1.0000 0.80768  0.25001  0.17148  Biso   1.000  H
  O14      1.0000 0.80007  0.30491  0.45419  Biso   1.000  O
  C90      1.0000 0.23962  0.43991  0.09016  Biso   1.000  C
  H72      1.0000 0.33796  0.47052  0.93389  Biso   1.000  H
  C91      1.0000 0.19042  0.30969  0.71527  Biso   1.000  C
  C92      1.0000 0.05752  0.33313  0.61321  Biso   1.000  C
  C93      1.0000 0.33779  0.38229  0.68672  Biso   1.000  C
  H73      1.0000 0.35358  0.44460  0.56543  Biso   1.000  H
  H74      1.0000 0.95751  0.36010  0.52706  Biso   1.000  H
  C94      1.0000 0.96760  0.43585  0.36821  Biso   1.000  C
  C95      1.0000 0.65951  0.15724  0.24604  Biso   1.000  C
  C96      1.0000 0.73138  0.17039  0.39878  Biso   1.000  C
  C97      1.0000 0.85863  0.25001  0.41116  Biso   1.000  C
  H75      1.0000 0.93100  0.21161  0.26599  Biso   1.000  H
  H76      1.0000 0.93100  0.28841  0.26599  Biso   1.000  H
  H77      1.0000 0.25513  0.45722  0.15620  Biso   1.000  H
  H78      1.0000 0.18410  0.46679  0.07408  Biso   1.000  H
  C98      1.0000 0.19868  0.37382  0.11317  Biso   1.000  C
  C99      1.0000 0.13757  0.25001  0.77093  Biso   1.000  C
  C100     1.0000 0.27888  0.33030  0.74254  Biso   1.000  C
  H79      1.0000 0.01341  0.30080  0.65221  Biso   1.000  H
  H80      1.0000 0.39760  0.39659  0.70771  Biso   1.000  H
  H81      1.0000 0.90846  0.44431  0.43111  Biso   1.000  H
  H82      1.0000 0.96512  0.39042  0.34762  Biso   1.000  H
  C101     1.0000 0.96060  0.47812  0.27636  Biso   1.000  C
  C102     1.0000 0.65790  0.16862  0.13923  Biso   1.000  C
  C103     1.0000 0.59051  0.10899  0.30371  Biso   1.000  C
  C104     1.0000 0.66558  0.12242  0.45443  Biso   1.000  C
  O15      1.0000 0.80007  0.19506  0.45419  Biso   1.000  O
  H83      1.0000 0.92379  0.25001  0.43674  Biso   1.000  H
  H84      1.0000 0.16903  0.35928  0.05477  Biso   1.000  H
  H85      1.0000 0.14462  0.37339  0.18113  Biso   1.000  H
  H86      1.0000 0.25541  0.34518  0.11880  Biso   1.000  H
  C105     1.0000 0.19042  0.19028  0.71527  Biso   1.000  C
  H87      1.0000 0.06188  0.25001  0.77238  Biso   1.000  H
  C106     1.0000 0.15210  0.25001  0.88643  Biso   1.000  C
  O16      1.0000 0.31737  0.30486  0.82200  Biso   1.000  O
  H88      1.0000 0.02399  0.47262  0.21700  Biso   1.000  H
  H89      1.0000 0.95767  0.52331  0.30001  Biso   1.000  H
  C107     1.0000 0.86591  0.46349  0.23550  Biso   1.000  C
  C108     1.0000 0.59150  0.13797  0.09073  Biso   1.000  C
  H90      1.0000 0.70509  0.19899  0.09869  Biso   1.000  H
  C109     1.0000 0.51912  0.07876  0.25440  Biso   1.000  C
  C110     1.0000 0.59562  0.09402  0.40972  Biso   1.000  C
  H91      1.0000 0.67036  0.10989  0.52401  Biso   1.000  H
  C111     1.0000 0.15519  0.15580  0.63540  Biso   1.000  C
  C112     1.0000 0.27888  0.16972  0.74254  Biso   1.000  C
  C113     1.0000 0.26750  0.25001  0.87533  Biso   1.000  C
  H92      1.0000 0.11960  0.28851  0.92600  Biso   1.000  H
  H93      1.0000 0.11960  0.21152  0.92600  Biso   1.000  H
  H94      1.0000 0.86990  0.41858  0.21033  Biso   1.000  H
  H95      1.0000 0.80281  0.46779  0.29550  Biso   1.000  H
  C114     1.0000 0.85587  0.50691  0.14470  Biso   1.000  C
  C115     1.0000 0.51908  0.09306  0.14976  Biso   1.000  C
  H96      1.0000 0.59361  0.14662  0.01761  Biso   1.000  H
  C116     1.0000 0.43956  0.03295  0.31923  Biso   1.000  C
  H97      1.0000 0.54893  0.06341  0.45009  Biso   1.000  H
  C117     1.0000 0.21761  0.10526  0.57540  Biso   1.000  C
  C118     1.0000 0.05752  0.16685  0.61321  Biso   1.000  C
  C119     1.0000 0.33779  0.11769  0.68672  Biso   1.000  C
  O17      1.0000 0.31737  0.19516  0.82200  Biso   1.000  O
  H98      1.0000 0.27831  0.25001  0.94949  Biso   1.000  H
  H99      1.0000 0.91520  0.50012  0.08252  Biso   1.000  H
  H100     1.0000 0.85489  0.55148  0.16802  Biso   1.000  H
  H101     1.0000 0.79108  0.49720  0.12467  Biso   1.000  H
  O18      1.0000 0.44932  0.06064  0.10826  Biso   1.000  O
  N4       1.0000 0.34407  0.05724  0.35108  Biso   1.000  N
  O19      1.0000 0.46031  0.98011  0.34698  Biso   1.000  O
  C120     1.0000 0.18529  0.07231  0.49167  Biso   1.000  C
  C121     1.0000 0.31034  0.08809  0.60428  Biso   1.000  C
  C122     1.0000 0.02478  0.13256  0.53760  Biso   1.000  C
  H102     1.0000 0.01341  0.19918  0.65221  Biso   1.000  H
  H103     1.0000 0.39760  0.10339  0.70771  Biso   1.000  H
  C123     1.0000 0.42799  0.08488  0.01038  Biso   1.000  C
  C124     1.0000 0.25652  0.02434  0.42057  Biso   1.000  C
  H104     1.0000 0.33350  0.09579  0.32848  Biso   1.000  H
  C125     1.0000 0.09062  0.08589  0.47438  Biso   1.000  C
  H105     1.0000 0.35358  0.05538  0.56543  Biso   1.000  H
  H106     1.0000 0.95751  0.13988  0.52706  Biso   1.000  H
  C126     1.0000 0.33789  0.05342  0.99686  Biso   1.000  C
  H107     1.0000 0.46739  0.11630  0.96381  Biso   1.000  H
  H108     1.0000 0.21749  0.00081  0.37650  Biso   1.000  H
  H109     1.0000 0.28176  0.99302  0.46594  Biso   1.000  H
  O20      1.0000 0.06290  0.05103  0.39459  Biso   1.000  O
  C127     1.0000 0.23962  0.06011  0.09016  Biso   1.000  C
  H110     1.0000 0.33796  0.02951  0.93389  Biso   1.000  H
  C128     1.0000 0.96760  0.06418  0.36821  Biso   1.000  C
  C129     1.0000 0.19868  0.12620  0.11317  Biso   1.000  C
  H111     1.0000 0.25513  0.04280  0.15620  Biso   1.000  H
  H112     1.0000 0.18410  0.03319  0.07408  Biso   1.000  H
  H113     1.0000 0.90846  0.05571  0.43111  Biso   1.000  H
  H114     1.0000 0.96512  0.10961  0.34762  Biso   1.000  H
  C130     1.0000 0.96060  0.02185  0.27636  Biso   1.000  C
  H115     1.0000 0.16903  0.14069  0.05477  Biso   1.000  H
  H116     1.0000 0.14462  0.12658  0.18113  Biso   1.000  H
  H117     1.0000 0.25541  0.15480  0.11880  Biso   1.000  H
  H118     1.0000 0.02399  0.02740  0.21700  Biso   1.000  H
  H119     1.0000 0.95767  0.97671  0.30001  Biso   1.000  H
  C131     1.0000 0.86591  0.03649  0.23550  Biso   1.000  C
  C132     1.0000 0.85587  0.99311  0.14470  Biso   1.000  C
  H120     1.0000 0.86990  0.08139  0.21033  Biso   1.000  H
  H121     1.0000 0.80281  0.03218  0.29550  Biso   1.000  H
  H122     1.0000 0.91520  0.99990  0.08252  Biso   1.000  H
  H123     1.0000 0.85489  0.94850  0.16802  Biso   1.000  H
  H124     1.0000 0.79108  0.00282  0.12467  Biso   1.000  H
