data_image0
_cell_length_a       11.551
_cell_length_b       16.73
_cell_length_c       17.912
_cell_angle_alpha    90
_cell_angle_beta     94.9
_cell_angle_gamma    90

_symmetry_space_group_name_H-M    "P 1"
_symmetry_int_tables_number       1

loop_
  _symmetry_equiv_pos_as_xyz
  'x, y, z'

loop_
  _atom_site_label
  _atom_site_occupancy
  _atom_site_fract_x
  _atom_site_fract_y
  _atom_site_fract_z
  _atom_site_thermal_displace_type
  _atom_site_B_iso_or_equiv
  _atom_site_type_symbol
  C1       1.0000 0.51532  0.60478  0.45785  Biso   1.000  C
  C2       1.0000 0.53473  0.54513  0.40501  Biso   1.000  C
  C3       1.0000 0.41405  0.64632  0.45342  Biso   1.000  C
  H1       1.0000 0.57368  0.61602  0.49713  Biso   1.000  H
  C4       1.0000 0.44681  0.52606  0.35038  Biso   1.000  C
  O1       1.0000 0.63614  0.50359  0.40394  Biso   1.000  O
  C5       1.0000 0.32265  0.63156  0.39733  Biso   1.000  C
  H2       1.0000 0.40417  0.68697  0.48928  Biso   1.000  H
  C6       1.0000 0.46945  0.46677  0.28992  Biso   1.000  C
  C7       1.0000 0.33911  0.56683  0.34707  Biso   1.000  C
  C8       1.0000 0.72591  0.51871  0.46272  Biso   1.000  C
  C9       1.0000 0.21596  0.67496  0.39190  Biso   1.000  C
  O2       1.0000 0.42404  0.40102  0.28375  Biso   1.000  O
  N1       1.0000 0.53400  0.49552  0.24005  Biso   1.000  N
  C10      1.0000 0.24483  0.54573  0.29479  Biso   1.000  C
  H3       1.0000 0.69567  0.51088  0.51220  Biso   1.000  H
  H4       1.0000 0.75408  0.57442  0.45970  Biso   1.000  H
  C11      1.0000 0.82350  0.46121  0.45309  Biso   1.000  C
  C12      1.0000 0.19450  0.74997  0.43773  Biso   1.000  C
  C13      1.0000 0.12705  0.64842  0.34281  Biso   1.000  C
  C14      1.0000 0.56074  0.45589  0.17129  Biso   1.000  C
  H5       1.0000 0.56423  0.54328  0.24868  Biso   1.000  H
  H6       1.0000 0.25440  0.50400  0.25988  Biso   1.000  H
  C15      1.0000 0.14116  0.58416  0.29378  Biso   1.000  C
  H7       1.0000 0.79062  0.40658  0.44799  Biso   1.000  H
  H8       1.0000 0.87705  0.46210  0.49920  Biso   1.000  H
  C16      1.0000 0.89335  0.47687  0.38702  Biso   1.000  C
  C17      1.0000 0.06708  0.74997  0.45280  Biso   1.000  C
  H9       1.0000 0.24520  0.74997  0.48581  Biso   1.000  H
  C18      1.0000 0.21596  0.82499  0.39190  Biso   1.000  C
  O3       1.0000 0.01639  0.68129  0.33553  Biso   1.000  O
  H10      1.0000 0.49552  0.42080  0.15280  Biso   1.000  H
  H11      1.0000 0.63133  0.42259  0.18071  Biso   1.000  H
  C19      1.0000 0.58031  0.51943  0.11386  Biso   1.000  C
  H12      1.0000 0.07788  0.56760  0.25988  Biso   1.000  H
  H13      1.0000 0.92554  0.53168  0.39078  Biso   1.000  H
  H14      1.0000 0.84144  0.47358  0.34018  Biso   1.000  H
  C20      1.0000 0.99321  0.41680  0.38338  Biso   1.000  C
  H15      1.0000 0.04913  0.70197  0.48200  Biso   1.000  H
  H16      1.0000 0.04913  0.79797  0.48200  Biso   1.000  H
  C21      1.0000 0.99580  0.74997  0.37873  Biso   1.000  C
  C22      1.0000 0.32265  0.86844  0.39733  Biso   1.000  C
  C23      1.0000 0.12705  0.85152  0.34281  Biso   1.000  C
  C24      1.0000 0.48535  0.56342  0.07923  Biso   1.000  C
  C25      1.0000 0.69056  0.53921  0.09980  Biso   1.000  C
  H17      1.0000 0.96120  0.36312  0.37441  Biso   1.000  H
  H18      1.0000 0.04035  0.43150  0.34253  Biso   1.000  H
  H19      1.0000 0.04185  0.41739  0.43101  Biso   1.000  H
  O4       1.0000 0.01639  0.81871  0.33553  Biso   1.000  O
  H20      1.0000 0.91193  0.74997  0.38870  Biso   1.000  H
  C26      1.0000 0.41405  0.85368  0.45342  Biso   1.000  C
  C27      1.0000 0.33911  0.93317  0.34707  Biso   1.000  C
  C28      1.0000 0.14116  0.91578  0.29378  Biso   1.000  C
  C29      1.0000 0.36958  0.54387  0.09150  Biso   1.000  C
  C30      1.0000 0.50513  0.62959  0.03059  Biso   1.000  C
  C31      1.0000 0.71124  0.60167  0.04937  Biso   1.000  C
  O5       1.0000 0.77853  0.49629  0.13711  Biso   1.000  O
  H21      1.0000 0.40417  0.81297  0.48928  Biso   1.000  H
  C32      1.0000 0.51532  0.89522  0.45785  Biso   1.000  C
  C33      1.0000 0.44681  0.97394  0.35038  Biso   1.000  C
  C34      1.0000 0.24483  0.95427  0.29479  Biso   1.000  C
  H22      1.0000 0.07788  0.93240  0.25988  Biso   1.000  H
  C35      1.0000 0.27869  0.58416  0.05631  Biso   1.000  C
  H23      1.0000 0.35514  0.50167  0.12501  Biso   1.000  H
  C36      1.0000 0.62086  0.64471  0.01670  Biso   1.000  C
  C37      1.0000 0.40858  0.67454  0.99770  Biso   1.000  C
  H24      1.0000 0.78830  0.61357  0.03833  Biso   1.000  H
  C38      1.0000 0.89230  0.49994  0.11308  Biso   1.000  C
  H25      1.0000 0.57368  0.88398  0.49713  Biso   1.000  H
  C39      1.0000 0.53473  0.95487  0.40501  Biso   1.000  C
  C40      1.0000 0.46945  0.03317  0.28992  Biso   1.000  C
  H26      1.0000 0.25440  0.99600  0.25988  Biso   1.000  H
  C41      1.0000 0.29943  0.64848  0.00897  Biso   1.000  C
  H27      1.0000 0.20132  0.56892  0.06371  Biso   1.000  H
  H28      1.0000 0.63677  0.68661  0.98319  Biso   1.000  H
  C42      1.0000 0.41990  0.74997  0.95047  Biso   1.000  C
  H29      1.0000 0.92699  0.55308  0.12462  Biso   1.000  H
  H30      1.0000 0.88981  0.49121  0.05827  Biso   1.000  H
  C43      1.0000 0.96360  0.43574  0.15398  Biso   1.000  C
  O6       1.0000 0.63614  0.99635  0.40394  Biso   1.000  O
  N2       1.0000 0.53400  0.00448  0.24005  Biso   1.000  N
  O7       1.0000 0.42404  0.09898  0.28375  Biso   1.000  O
  O8       1.0000 0.19799  0.68153  0.97512  Biso   1.000  O
  C44      1.0000 0.31705  0.74997  0.89102  Biso   1.000  C
  H31      1.0000 0.49508  0.74997  0.92660  Biso   1.000  H
  C45      1.0000 0.40858  0.82546  0.99770  Biso   1.000  C
  H32      1.0000 0.96925  0.44722  0.20839  Biso   1.000  H
  H33      1.0000 0.92382  0.38368  0.14580  Biso   1.000  H
  C46      1.0000 0.08352  0.42989  0.12860  Biso   1.000  C
  C47      1.0000 0.72591  0.98129  0.46272  Biso   1.000  C
  H34      1.0000 0.56423  0.95666  0.24868  Biso   1.000  H
  C48      1.0000 0.56074  0.04405  0.17129  Biso   1.000  C
  C49      1.0000 0.20836  0.74997  0.92929  Biso   1.000  C
  H35      1.0000 0.32007  0.79797  0.85891  Biso   1.000  H
  H36      1.0000 0.32007  0.70197  0.85891  Biso   1.000  H
  C50      1.0000 0.29943  0.85146  0.00897  Biso   1.000  C
  C51      1.0000 0.50513  0.87035  0.03059  Biso   1.000  C
  H37      1.0000 0.12516  0.48069  0.14031  Biso   1.000  H
  H38      1.0000 0.07771  0.42271  0.07363  Biso   1.000  H
  C52      1.0000 0.15309  0.36198  0.16491  Biso   1.000  C
  H39      1.0000 0.69567  0.98906  0.51220  Biso   1.000  H
  H40      1.0000 0.75408  0.92558  0.45970  Biso   1.000  H
  C53      1.0000 0.82350  0.03879  0.45309  Biso   1.000  C
  C54      1.0000 0.58031  0.98051  0.11386  Biso   1.000  C
  H41      1.0000 0.49552  0.07920  0.15280  Biso   1.000  H
  H42      1.0000 0.63133  0.07741  0.18071  Biso   1.000  H
  H43      1.0000 0.14152  0.74997  0.89001  Biso   1.000  H
  O9       1.0000 0.19799  0.81847  0.97512  Biso   1.000  O
  C55      1.0000 0.27869  0.91578  0.05631  Biso   1.000  C
  C56      1.0000 0.48535  0.93658  0.07923  Biso   1.000  C
  C57      1.0000 0.62086  0.85529  0.01670  Biso   1.000  C
  H44      1.0000 0.11728  0.31100  0.14882  Biso   1.000  H
  H45      1.0000 0.15460  0.36671  0.21948  Biso   1.000  H
  H46      1.0000 0.23274  0.36408  0.14989  Biso   1.000  H
  H47      1.0000 0.79062  0.09337  0.44799  Biso   1.000  H
  H48      1.0000 0.87705  0.03790  0.49920  Biso   1.000  H
  C58      1.0000 0.89335  0.02307  0.38702  Biso   1.000  C
  C59      1.0000 0.69056  0.96079  0.09980  Biso   1.000  C
  H49      1.0000 0.20132  0.93108  0.06371  Biso   1.000  H
  C60      1.0000 0.36958  0.95613  0.09150  Biso   1.000  C
  C61      1.0000 0.71124  0.89827  0.04937  Biso   1.000  C
  H50      1.0000 0.63677  0.81339  0.98319  Biso   1.000  H
  H51      1.0000 0.92554  0.96826  0.39078  Biso   1.000  H
  H52      1.0000 0.84144  0.02636  0.34018  Biso   1.000  H
  C62      1.0000 0.99321  0.08320  0.38338  Biso   1.000  C
  O10      1.0000 0.77853  0.00371  0.13711  Biso   1.000  O
  H53      1.0000 0.35514  0.99827  0.12501  Biso   1.000  H
  H54      1.0000 0.78830  0.88637  0.03833  Biso   1.000  H
  H55      1.0000 0.96120  0.13688  0.37441  Biso   1.000  H
  H56      1.0000 0.04035  0.06850  0.34253  Biso   1.000  H
  H57      1.0000 0.04185  0.08261  0.43101  Biso   1.000  H
  C63      1.0000 0.89230  0.00006  0.11308  Biso   1.000  C
  H58      1.0000 0.92699  0.94686  0.12462  Biso   1.000  H
  H59      1.0000 0.88981  0.00879  0.05827  Biso   1.000  H
  C64      1.0000 0.96360  0.06426  0.15398  Biso   1.000  C
  H60      1.0000 0.96925  0.05278  0.20839  Biso   1.000  H
  H61      1.0000 0.92382  0.11626  0.14580  Biso   1.000  H
  C65      1.0000 0.08352  0.07011  0.12860  Biso   1.000  C
  H62      1.0000 0.12516  0.01931  0.14031  Biso   1.000  H
  H63      1.0000 0.07771  0.07729  0.07363  Biso   1.000  H
  C66      1.0000 0.15309  0.13802  0.16491  Biso   1.000  C
  H64      1.0000 0.11728  0.18900  0.14882  Biso   1.000  H
  H65      1.0000 0.15460  0.13329  0.21948  Biso   1.000  H
  H66      1.0000 0.23274  0.13586  0.14989  Biso   1.000  H
  C67      1.0000 0.48476  0.39522  0.54212  Biso   1.000  C
  C68      1.0000 0.58604  0.35368  0.54660  Biso   1.000  C
  H67      1.0000 0.42641  0.38398  0.50290  Biso   1.000  H
  C69      1.0000 0.46536  0.45487  0.59502  Biso   1.000  C
  C70      1.0000 0.67744  0.36844  0.60269  Biso   1.000  C
  H68      1.0000 0.59591  0.31297  0.51069  Biso   1.000  H
  C71      1.0000 0.55328  0.47394  0.64965  Biso   1.000  C
  O11      1.0000 0.36395  0.49635  0.59608  Biso   1.000  O
  C72      1.0000 0.78412  0.32504  0.60807  Biso   1.000  C
  C73      1.0000 0.66098  0.43317  0.65290  Biso   1.000  C
  C74      1.0000 0.53064  0.53317  0.71011  Biso   1.000  C
  C75      1.0000 0.27418  0.48129  0.53730  Biso   1.000  C
  C76      1.0000 0.80558  0.24997  0.56229  Biso   1.000  C
  C77      1.0000 0.87304  0.35152  0.65721  Biso   1.000  C
  C78      1.0000 0.75526  0.45427  0.70523  Biso   1.000  C
  N3       1.0000 0.46609  0.50448  0.75998  Biso   1.000  N
  O12      1.0000 0.57604  0.59898  0.71627  Biso   1.000  O
  H69      1.0000 0.30442  0.48912  0.48783  Biso   1.000  H
  H70      1.0000 0.24601  0.42558  0.54033  Biso   1.000  H
  C79      1.0000 0.17651  0.53879  0.54694  Biso   1.000  C
  C80      1.0000 0.93301  0.24997  0.54722  Biso   1.000  C
  H71      1.0000 0.75480  0.24997  0.51422  Biso   1.000  H
  C81      1.0000 0.78412  0.17496  0.60807  Biso   1.000  C
  C82      1.0000 0.85893  0.41578  0.70624  Biso   1.000  C
  O13      1.0000 0.98369  0.31871  0.66444  Biso   1.000  O
  H72      1.0000 0.74568  0.49600  0.74009  Biso   1.000  H
  C83      1.0000 0.43935  0.54405  0.82873  Biso   1.000  C
  H73      1.0000 0.43585  0.45666  0.75129  Biso   1.000  H
  H74      1.0000 0.20946  0.59337  0.55198  Biso   1.000  H
  H75      1.0000 0.12304  0.53790  0.50083  Biso   1.000  H
  C84      1.0000 0.10673  0.52307  0.61300  Biso   1.000  C
  H76      1.0000 0.95096  0.20197  0.51803  Biso   1.000  H
  H77      1.0000 0.95096  0.29797  0.51803  Biso   1.000  H
  C85      1.0000 0.00429  0.24997  0.62130  Biso   1.000  C
  C86      1.0000 0.67744  0.13156  0.60269  Biso   1.000  C
  C87      1.0000 0.87304  0.14848  0.65721  Biso   1.000  C
  H78      1.0000 0.92220  0.43240  0.74009  Biso   1.000  H
  H79      1.0000 0.50457  0.57920  0.84722  Biso   1.000  H
  H80      1.0000 0.36876  0.57741  0.81932  Biso   1.000  H
  C88      1.0000 0.41977  0.48057  0.88611  Biso   1.000  C
  H81      1.0000 0.07454  0.46832  0.60919  Biso   1.000  H
  H82      1.0000 0.15864  0.52642  0.65979  Biso   1.000  H
  C89      1.0000 0.00687  0.58320  0.61659  Biso   1.000  C
  O14      1.0000 0.98369  0.18129  0.66444  Biso   1.000  O
  H83      1.0000 0.08816  0.24997  0.61132  Biso   1.000  H
  C90      1.0000 0.58604  0.14632  0.54660  Biso   1.000  C
  C91      1.0000 0.66098  0.06683  0.65290  Biso   1.000  C
  C92      1.0000 0.85893  0.08416  0.70624  Biso   1.000  C
  C93      1.0000 0.51474  0.43658  0.92079  Biso   1.000  C
  C94      1.0000 0.30943  0.46079  0.90017  Biso   1.000  C
  H84      1.0000 0.03889  0.63688  0.62561  Biso   1.000  H
  H85      1.0000 0.95974  0.56850  0.65749  Biso   1.000  H
  H86      1.0000 0.95824  0.58261  0.56902  Biso   1.000  H
  H87      1.0000 0.59591  0.18697  0.51069  Biso   1.000  H
  C95      1.0000 0.48476  0.10478  0.54212  Biso   1.000  C
  C96      1.0000 0.55328  0.02606  0.64965  Biso   1.000  C
  C97      1.0000 0.75526  0.04573  0.70523  Biso   1.000  C
  H88      1.0000 0.92220  0.06760  0.74009  Biso   1.000  H
  C98      1.0000 0.63051  0.45613  0.90852  Biso   1.000  C
  C99      1.0000 0.49495  0.37035  0.96938  Biso   1.000  C
  C100     1.0000 0.28885  0.39827  0.95066  Biso   1.000  C
  O15      1.0000 0.22156  0.50371  0.86291  Biso   1.000  O
  H89      1.0000 0.42641  0.11602  0.50290  Biso   1.000  H
  C101     1.0000 0.46536  0.04513  0.59502  Biso   1.000  C
  C102     1.0000 0.53064  0.96677  0.71011  Biso   1.000  C
  H90      1.0000 0.74568  0.00400  0.74009  Biso   1.000  H
  C103     1.0000 0.72140  0.41578  0.94371  Biso   1.000  C
  H91      1.0000 0.64495  0.49827  0.87502  Biso   1.000  H
  C104     1.0000 0.37914  0.35529  0.98327  Biso   1.000  C
  C105     1.0000 0.59151  0.32546  0.00232  Biso   1.000  C
  H92      1.0000 0.21179  0.38637  0.96170  Biso   1.000  H
  C106     1.0000 0.10778  0.50006  0.88689  Biso   1.000  C
  O16      1.0000 0.36395  0.00365  0.59608  Biso   1.000  O
  N4       1.0000 0.46609  0.99552  0.75998  Biso   1.000  N
  O17      1.0000 0.57604  0.90102  0.71627  Biso   1.000  O
  C107     1.0000 0.70066  0.35146  0.99106  Biso   1.000  C
  H93      1.0000 0.79877  0.43108  0.93632  Biso   1.000  H
  H94      1.0000 0.36332  0.31339  0.01684  Biso   1.000  H
  C108     1.0000 0.58019  0.24997  0.04950  Biso   1.000  C
  H95      1.0000 0.07310  0.44692  0.87541  Biso   1.000  H
  H96      1.0000 0.11027  0.50879  0.94170  Biso   1.000  H
  C109     1.0000 0.03649  0.56426  0.84605  Biso   1.000  C
  C110     1.0000 0.27418  0.01871  0.53730  Biso   1.000  C
  H97      1.0000 0.43585  0.04328  0.75129  Biso   1.000  H
  C111     1.0000 0.43935  0.95595  0.82873  Biso   1.000  C
  O18      1.0000 0.80210  0.31847  0.02490  Biso   1.000  O
  C112     1.0000 0.68304  0.24997  0.10901  Biso   1.000  C
  H98      1.0000 0.50501  0.24997  0.07343  Biso   1.000  H
  C113     1.0000 0.59151  0.17454  0.00232  Biso   1.000  C
  H99      1.0000 0.03083  0.55278  0.79158  Biso   1.000  H
  H100     1.0000 0.07627  0.61632  0.85423  Biso   1.000  H
  C114     1.0000 0.91657  0.57011  0.87143  Biso   1.000  C
  H101     1.0000 0.30442  0.01088  0.48783  Biso   1.000  H
  H102     1.0000 0.24601  0.07442  0.54033  Biso   1.000  H
  C115     1.0000 0.17651  0.96121  0.54694  Biso   1.000  C
  C116     1.0000 0.41977  0.01943  0.88611  Biso   1.000  C
  H103     1.0000 0.50457  0.92080  0.84722  Biso   1.000  H
  H104     1.0000 0.36876  0.92259  0.81932  Biso   1.000  H
  C117     1.0000 0.79172  0.24997  0.07068  Biso   1.000  C
  H105     1.0000 0.68002  0.29797  0.14112  Biso   1.000  H
  H106     1.0000 0.68002  0.20197  0.14112  Biso   1.000  H
  C118     1.0000 0.70066  0.14854  0.99106  Biso   1.000  C
  C119     1.0000 0.49495  0.12965  0.96938  Biso   1.000  C
  H107     1.0000 0.87493  0.51931  0.85972  Biso   1.000  H
  H108     1.0000 0.92238  0.57729  0.92640  Biso   1.000  H
  C120     1.0000 0.84700  0.63802  0.83512  Biso   1.000  C
  H109     1.0000 0.20946  0.90658  0.55198  Biso   1.000  H
  H110     1.0000 0.12304  0.96210  0.50083  Biso   1.000  H
  C121     1.0000 0.10673  0.97693  0.61300  Biso   1.000  C
  C122     1.0000 0.51474  0.06342  0.92079  Biso   1.000  C
  C123     1.0000 0.30943  0.03921  0.90017  Biso   1.000  C
  H111     1.0000 0.85857  0.24997  0.11002  Biso   1.000  H
  O19      1.0000 0.80210  0.18153  0.02490  Biso   1.000  O
  C124     1.0000 0.72140  0.08416  0.94371  Biso   1.000  C
  C125     1.0000 0.37914  0.14471  0.98327  Biso   1.000  C
  H112     1.0000 0.88281  0.68900  0.85120  Biso   1.000  H
  H113     1.0000 0.84548  0.63329  0.78049  Biso   1.000  H
  H114     1.0000 0.76735  0.63586  0.85008  Biso   1.000  H
  H115     1.0000 0.07454  0.03168  0.60919  Biso   1.000  H
  H116     1.0000 0.15864  0.97358  0.65979  Biso   1.000  H
  C126     1.0000 0.00687  0.91680  0.61659  Biso   1.000  C
  C127     1.0000 0.63051  0.04387  0.90852  Biso   1.000  C
  C128     1.0000 0.28885  0.10167  0.95066  Biso   1.000  C
  O20      1.0000 0.22156  0.99629  0.86291  Biso   1.000  O
  H117     1.0000 0.79877  0.06892  0.93632  Biso   1.000  H
  H118     1.0000 0.36332  0.18661  0.01684  Biso   1.000  H
  H119     1.0000 0.95974  0.93150  0.65749  Biso   1.000  H
  H120     1.0000 0.95824  0.91739  0.56902  Biso   1.000  H
  H121     1.0000 0.03889  0.86312  0.62561  Biso   1.000  H
  H122     1.0000 0.64495  0.00167  0.87502  Biso   1.000  H
  H123     1.0000 0.21179  0.11363  0.96170  Biso   1.000  H
  C129     1.0000 0.10778  0.99994  0.88689  Biso   1.000  C
  H124     1.0000 0.07310  0.05308  0.87541  Biso   1.000  H
  H125     1.0000 0.11027  0.99121  0.94170  Biso   1.000  H
  C130     1.0000 0.03649  0.93574  0.84605  Biso   1.000  C
  C131     1.0000 0.91657  0.92989  0.87143  Biso   1.000  C
  H126     1.0000 0.03083  0.94722  0.79158  Biso   1.000  H
  H127     1.0000 0.07627  0.88368  0.85423  Biso   1.000  H
  H128     1.0000 0.87493  0.98069  0.85972  Biso   1.000  H
  H129     1.0000 0.92238  0.92271  0.92640  Biso   1.000  H
  C132     1.0000 0.84700  0.86198  0.83512  Biso   1.000  C
  H130     1.0000 0.88281  0.81100  0.85120  Biso   1.000  H
  H131     1.0000 0.84548  0.86671  0.78049  Biso   1.000  H
  H132     1.0000 0.76735  0.86408  0.85008  Biso   1.000  H
  Ne1      1.0000 0.52085  0.74999  0.22880  Biso   1.000  Ne
  He1      1.0000 0.56957  0.74997  0.27904  Biso   1.000  He
  He2      1.0000 0.17299  0.74997  0.16446  Biso   1.000  He
  Ar1      1.0000 0.49474  0.75000  0.23410  Biso   1.000  Ar
  Ne2      1.0000 0.47923  0.24999  0.77121  Biso   1.000  Ne
  He3      1.0000 0.44538  0.24997  0.72565  Biso   1.000  He
  He4      1.0000 0.83320  0.24997  0.83732  Biso   1.000  He
  Ar2      1.0000 0.51330  0.24997  0.76842  Biso   1.000  Ar
