data_image0
_cell_length_a       12.189
_cell_length_b       20.515
_cell_length_c       20.968
_cell_angle_alpha    113.12
_cell_angle_beta     96.69
_cell_angle_gamma    97.99

_symmetry_space_group_name_H-M    "P 1"
_symmetry_int_tables_number       1

loop_
  _symmetry_equiv_pos_as_xyz
  'x, y, z'

loop_
  _atom_site_label
  _atom_site_occupancy
  _atom_site_fract_x
  _atom_site_fract_y
  _atom_site_fract_z
  _atom_site_thermal_displace_type
  _atom_site_B_iso_or_equiv
  _atom_site_type_symbol
  C1       1.0000 0.38147  0.50702  0.45600  Biso   1.000  C
  C2       1.0000 0.30586  0.48101  0.49718  Biso   1.000  C
  C3       1.0000 0.40671  0.57946  0.46751  Biso   1.000  C
  C4       1.0000 0.42115  0.45663  0.40210  Biso   1.000  C
  C5       1.0000 0.18892  0.44979  0.45199  Biso   1.000  C
  H1       1.0000 0.30312  0.52182  0.54190  Biso   1.000  H
  H2       1.0000 0.33540  0.44351  0.50864  Biso   1.000  H
  O1       1.0000 0.36598  0.62703  0.52231  Biso   1.000  O
  C6       1.0000 0.47251  0.60058  0.42607  Biso   1.000  C
  C7       1.0000 0.48466  0.47708  0.35986  Biso   1.000  C
  H3       1.0000 0.40441  0.40712  0.39402  Biso   1.000  H
  C8       1.0000 0.15392  0.37642  0.40886  Biso   1.000  C
  C9       1.0000 0.11739  0.49631  0.44935  Biso   1.000  C
  C10      1.0000 0.34693  0.69278  0.51999  Biso   1.000  C
  H4       1.0000 0.49049  0.65027  0.43488  Biso   1.000  H
  C11      1.0000 0.51223  0.55008  0.37211  Biso   1.000  C
  O2       1.0000 0.52541  0.42912  0.30564  Biso   1.000  O
  O3       1.0000 0.22926  0.33342  0.41456  Biso   1.000  O
  C12      1.0000 0.04858  0.35000  0.36440  Biso   1.000  C
  C13      1.0000 0.01316  0.47073  0.40410  Biso   1.000  C
  H5       1.0000 0.14017  0.54651  0.47902  Biso   1.000  H
  H6       1.0000 0.30544  0.68350  0.47279  Biso   1.000  H
  H7       1.0000 0.41955  0.72650  0.52981  Biso   1.000  H
  C14      1.0000 0.27798  0.72476  0.57585  Biso   1.000  C
  C15      1.0000 0.58814  0.57294  0.32919  Biso   1.000  C
  C16      1.0000 0.50369  0.35488  0.29534  Biso   1.000  C
  C17      1.0000 0.21362  0.26238  0.36092  Biso   1.000  C
  H8       1.0000 0.02514  0.29959  0.33573  Biso   1.000  H
  C18      1.0000 0.97689  0.39678  0.36144  Biso   1.000  C
  O4       1.0000 0.94100  0.51498  0.39845  Biso   1.000  O
  H9       1.0000 0.31895  0.73083  0.62210  Biso   1.000  H
  H10      1.0000 0.20553  0.69043  0.56471  Biso   1.000  H
  C19      1.0000 0.25361  0.79741  0.58187  Biso   1.000  C
  H11      1.0000 0.64677  0.54319  0.32037  Biso   1.000  H
  H12      1.0000 0.62669  0.62407  0.35701  Biso   1.000  H
  C20      1.0000 0.52527  0.56524  0.25902  Biso   1.000  C
  H13      1.0000 0.42142  0.33603  0.28552  Biso   1.000  H
  H14      1.0000 0.53734  0.35062  0.33848  Biso   1.000  H
  C21      1.0000 0.55481  0.31186  0.23389  Biso   1.000  C
  H15      1.0000 0.20578  0.26355  0.31387  Biso   1.000  H
  H16      1.0000 0.14447  0.23170  0.36239  Biso   1.000  H
  C22      1.0000 0.31623  0.23218  0.37438  Biso   1.000  C
  C23      1.0000 0.86249  0.36835  0.31298  Biso   1.000  C
  C24      1.0000 0.97829  0.59068  0.44175  Biso   1.000  C
  H17      1.0000 0.32486  0.82923  0.58504  Biso   1.000  H
  H18      1.0000 0.20168  0.79002  0.53852  Biso   1.000  H
  C25      1.0000 0.20156  0.83466  0.64549  Biso   1.000  C
  C26      1.0000 0.47271  0.62017  0.25522  Biso   1.000  C
  C27      1.0000 0.51869  0.50370  0.19730  Biso   1.000  C
  H19      1.0000 0.63665  0.33217  0.24355  Biso   1.000  H
  H20      1.0000 0.52000  0.31595  0.19091  Biso   1.000  H
  C28      1.0000 0.53716  0.23234  0.22101  Biso   1.000  C
  H21      1.0000 0.32513  0.23385  0.42253  Biso   1.000  H
  H22      1.0000 0.38432  0.26299  0.37195  Biso   1.000  H
  C29      1.0000 0.30727  0.15479  0.32132  Biso   1.000  C
  H23      1.0000 0.80782  0.39612  0.33689  Biso   1.000  H
  H24      1.0000 0.83631  0.31708  0.30400  Biso   1.000  H
  C30      1.0000 0.86435  0.37365  0.24281  Biso   1.000  C
  H25      1.0000 0.04983  0.60897  0.43061  Biso   1.000  H
  H26      1.0000 0.99176  0.59941  0.49217  Biso   1.000  H
  C31      1.0000 0.88833  0.62959  0.42760  Biso   1.000  C
  H27      1.0000 0.25196  0.83969  0.68847  Biso   1.000  H
  H28      1.0000 0.12877  0.80361  0.64111  Biso   1.000  H
  C32      1.0000 0.18133  0.90904  0.65462  Biso   1.000  C
  O5       1.0000 0.48406  0.68041  0.31768  Biso   1.000  O
  C33      1.0000 0.41322  0.61249  0.19086  Biso   1.000  C
  C34      1.0000 0.45901  0.49591  0.13294  Biso   1.000  C
  H29      1.0000 0.55543  0.46639  0.19904  Biso   1.000  H
  H30      1.0000 0.56145  0.22910  0.26620  Biso   1.000  H
  H31      1.0000 0.45557  0.21081  0.20501  Biso   1.000  H
  C35      1.0000 0.60063  0.18825  0.16673  Biso   1.000  C
  H32      1.0000 0.30390  0.15394  0.27359  Biso   1.000  H
  H33      1.0000 0.23587  0.12504  0.32116  Biso   1.000  H
  C36      1.0000 0.40502  0.12069  0.33637  Biso   1.000  C
  C37      1.0000 0.83554  0.43270  0.23273  Biso   1.000  C
  C38      1.0000 0.89526  0.31927  0.18706  Biso   1.000  C
  H34      1.0000 0.81752  0.61156  0.43958  Biso   1.000  H
  H35      1.0000 0.87355  0.61913  0.37670  Biso   1.000  H
  C39      1.0000 0.92434  0.71107  0.47084  Biso   1.000  C
  H36      1.0000 0.25011  0.93701  0.64955  Biso   1.000  H
  H37      1.0000 0.11936  0.90323  0.61661  Biso   1.000  H
  C40      1.0000 0.15141  0.95124  0.72500  Biso   1.000  C
  C41      1.0000 0.42655  0.73585  0.31599  Biso   1.000  C
  H38      1.0000 0.37805  0.65039  0.18891  Biso   1.000  H
  C42      1.0000 0.40459  0.55056  0.12962  Biso   1.000  C
  O6       1.0000 0.44836  0.43612  0.07059  Biso   1.000  O
  H39      1.0000 0.68219  0.20984  0.18252  Biso   1.000  H
  H40      1.0000 0.57592  0.19095  0.12133  Biso   1.000  H
  C43      1.0000 0.58276  0.10874  0.15480  Biso   1.000  C
  H41      1.0000 0.47645  0.15015  0.33621  Biso   1.000  H
  H42      1.0000 0.40866  0.12160  0.38415  Biso   1.000  H
  C44      1.0000 0.39477  0.04315  0.28320  Biso   1.000  C
  C45      1.0000 0.83726  0.43788  0.16853  Biso   1.000  C
  H43      1.0000 0.81431  0.47006  0.27026  Biso   1.000  H
  O7       1.0000 0.92085  0.26148  0.19962  Biso   1.000  O
  C46      1.0000 0.89696  0.32433  0.12291  Biso   1.000  C
  H44      1.0000 0.94556  0.72101  0.52131  Biso   1.000  H
  H45      1.0000 0.99187  0.72938  0.45606  Biso   1.000  H
  C47      1.0000 0.83218  0.75169  0.46255  Biso   1.000  C
  H46      1.0000 0.08271  0.92418  0.73023  Biso   1.000  H
  H47      1.0000 0.13855  0.99822  0.72759  Biso   1.000  H
  H48      1.0000 0.21343  0.95870  0.76296  Biso   1.000  H
  H49      1.0000 0.34565  0.71509  0.29555  Biso   1.000  H
  H50      1.0000 0.45877  0.75808  0.28626  Biso   1.000  H
  C48      1.0000 0.43984  0.79252  0.39064  Biso   1.000  C
  C49      1.0000 0.33137  0.54047  0.06135  Biso   1.000  C
  C50      1.0000 0.51709  0.38466  0.06916  Biso   1.000  C
  H51      1.0000 0.60759  0.10591  0.20015  Biso   1.000  H
  H52      1.0000 0.50124  0.08702  0.13896  Biso   1.000  H
  C51      1.0000 0.64673  0.06514  0.10042  Biso   1.000  C
  H53      1.0000 0.32224  0.01404  0.28236  Biso   1.000  H
  H54      1.0000 0.39328  0.04247  0.23563  Biso   1.000  H
  C52      1.0000 0.48990  0.00809  0.29899  Biso   1.000  C
  O8       1.0000 0.80657  0.49404  0.15454  Biso   1.000  O
  C53      1.0000 0.86864  0.38357  0.11304  Biso   1.000  C
  C54      1.0000 0.97223  0.21150  0.14957  Biso   1.000  C
  H55      1.0000 0.91773  0.28680  0.08532  Biso   1.000  H
  H56      1.0000 0.76469  0.73304  0.47712  Biso   1.000  H
  H57      1.0000 0.81118  0.74165  0.41208  Biso   1.000  H
  C55      1.0000 0.86608  0.83374  0.50563  Biso   1.000  C
  H58      1.0000 0.52071  0.81438  0.41007  Biso   1.000  H
  H59      1.0000 0.41116  0.76946  0.42063  Biso   1.000  H
  C56      1.0000 0.37507  0.85146  0.39207  Biso   1.000  C
  C57      1.0000 0.21298  0.50178  0.05533  Biso   1.000  C
  H60      1.0000 0.32935  0.58824  0.06061  Biso   1.000  H
  H61      1.0000 0.36384  0.51180  0.02064  Biso   1.000  H
  H62      1.0000 0.49501  0.36074  0.09989  Biso   1.000  H
  H63      1.0000 0.59744  0.40922  0.08648  Biso   1.000  H
  C58      1.0000 0.50034  0.32947  0.99393  Biso   1.000  C
  H64      1.0000 0.61856  0.06471  0.05449  Biso   1.000  H
  H65      1.0000 0.63566  0.01543  0.09662  Biso   1.000  H
  H66      1.0000 0.72729  0.08724  0.11510  Biso   1.000  H
  H67      1.0000 0.49318  0.00951  0.34645  Biso   1.000  H
  H68      1.0000 0.56162  0.03449  0.29650  Biso   1.000  H
  H69      1.0000 0.47665  0.95769  0.26425  Biso   1.000  H
  C59      1.0000 0.81000  0.56068  0.21298  Biso   1.000  C
  C60      1.0000 0.87756  0.39060  0.04451  Biso   1.000  C
  H70      1.0000 0.04331  0.23699  0.14413  Biso   1.000  H
  H71      1.0000 0.92108  0.18777  0.10301  Biso   1.000  H
  C61      1.0000 0.99602  0.15584  0.17687  Biso   1.000  C
  H72      1.0000 0.79791  0.85491  0.50553  Biso   1.000  H
  H73      1.0000 0.89655  0.84372  0.55515  Biso   1.000  H
  C62      1.0000 0.95299  0.87070  0.47823  Biso   1.000  C
  H74      1.0000 0.40877  0.87701  0.36540  Biso   1.000  H
  H75      1.0000 0.29605  0.82843  0.36773  Biso   1.000  H
  C63      1.0000 0.37485  0.90665  0.46614  Biso   1.000  C
  C64      1.0000 0.13269  0.54036  0.08616  Biso   1.000  C
  C65      1.0000 0.18284  0.42665  0.02170  Biso   1.000  C
  H76      1.0000 0.51991  0.35431  0.96352  Biso   1.000  H
  H77      1.0000 0.41986  0.30505  0.97740  Biso   1.000  H
  C66      1.0000 0.57310  0.27259  0.98659  Biso   1.000  C
  H78      1.0000 0.88800  0.58113  0.24017  Biso   1.000  H
  H79      1.0000 0.76098  0.55257  0.24476  Biso   1.000  H
  C67      1.0000 0.76939  0.61278  0.18532  Biso   1.000  C
  H80      1.0000 0.82176  0.41822  0.03553  Biso   1.000  H
  H81      1.0000 0.86020  0.34185  0.00496  Biso   1.000  H
  C68      1.0000 0.99512  0.42892  0.04804  Biso   1.000  C
  H82      1.0000 0.03302  0.18112  0.22718  Biso   1.000  H
  C69      1.0000 0.07103  0.10731  0.13621  Biso   1.000  C
  H83      1.0000 0.92366  0.12534  0.17402  Biso   1.000  H
  H84      1.0000 0.02202  0.85148  0.47992  Biso   1.000  H
  H85      1.0000 0.92326  0.86158  0.42934  Biso   1.000  H
  H86      1.0000 0.97002  0.92288  0.50758  Biso   1.000  H
  H87      1.0000 0.45367  0.93029  0.49043  Biso   1.000  H
  H88      1.0000 0.34157  0.88125  0.49307  Biso   1.000  H
  C70      1.0000 0.30873  0.96451  0.46619  Biso   1.000  C
  C71      1.0000 0.02522  0.50408  0.08189  Biso   1.000  C
  O9       1.0000 0.16682  0.61480  0.11842  Biso   1.000  O
  C72      1.0000 0.07590  0.39024  0.01895  Biso   1.000  C
  H89      1.0000 0.23616  0.39975  0.00026  Biso   1.000  H
  H90      1.0000 0.65027  0.29738  0.01357  Biso   1.000  H
  H91      1.0000 0.54146  0.24030  0.00760  Biso   1.000  H
  C73      1.0000 0.57941  0.22752  0.91062  Biso   1.000  C
  H92      1.0000 0.69202  0.59151  0.15733  Biso   1.000  H
  H93      1.0000 0.81906  0.62091  0.15390  Biso   1.000  H
  C74      1.0000 0.76988  0.68482  0.24614  Biso   1.000  C
  H94      1.0000 0.04037  0.08781  0.08500  Biso   1.000  H
  H95      1.0000 0.14758  0.13649  0.14519  Biso   1.000  H
  C75      1.0000 0.07902  0.04476  0.15702  Biso   1.000  C
  H96      1.0000 0.34379  0.99100  0.44069  Biso   1.000  H
  H97      1.0000 0.23077  0.94066  0.44027  Biso   1.000  H
  C76      1.0000 0.30440  0.01824  0.53984  Biso   1.000  C
  H98      1.0000 0.97131  0.53102  0.10237  Biso   1.000  H
  C77      1.0000 0.08947  0.65569  0.15385  Biso   1.000  C
  O10      1.0000 0.04246  0.31576  0.98775  Biso   1.000  O
  H99      1.0000 0.61440  0.26008  0.89082  Biso   1.000  H
  H100     1.0000 0.50172  0.20559  0.88343  Biso   1.000  H
  C78      1.0000 0.64585  0.16707  0.89963  Biso   1.000  C
  H101     1.0000 0.84886  0.70838  0.27011  Biso   1.000  H
  H102     1.0000 0.72940  0.67526  0.28088  Biso   1.000  H
  C79      1.0000 0.71563  0.73699  0.22359  Biso   1.000  C
  H103     1.0000 0.00313  0.01356  0.14387  Biso   1.000  H
  H104     1.0000 0.10163  0.06463  0.20897  Biso   1.000  H
  C80      1.0000 0.16158  0.99795  0.12375  Biso   1.000  C
  H105     1.0000 0.26554  0.99284  0.56434  Biso   1.000  H
  H106     1.0000 0.26382  0.05516  0.53662  Biso   1.000  H
  H107     1.0000 0.38137  0.04140  0.56614  Biso   1.000  H
  H108     1.0000 0.07122  0.64192  0.19223  Biso   1.000  H
  H109     1.0000 0.01858  0.64586  0.12027  Biso   1.000  H
  C81      1.0000 0.14414  0.73497  0.18384  Biso   1.000  C
  C82      1.0000 0.12247  0.27464  0.95687  Biso   1.000  C
  H110     1.0000 0.66073  0.14869  0.85085  Biso   1.000  H
  H111     1.0000 0.71959  0.18734  0.93242  Biso   1.000  H
  C83      1.0000 0.58567  0.10556  0.91146  Biso   1.000  C
  H112     1.0000 0.75541  0.74632  0.18854  Biso   1.000  H
  H113     1.0000 0.63617  0.71395  0.20036  Biso   1.000  H
  C84      1.0000 0.71873  0.80870  0.28515  Biso   1.000  C
  H114     1.0000 0.23685  0.02915  0.13505  Biso   1.000  H
  H115     1.0000 0.16746  0.96284  0.14498  Biso   1.000  H
  C85      1.0000 0.12773  0.95706  0.04477  Biso   1.000  C
  H116     1.0000 0.15457  0.74928  0.14466  Biso   1.000  H
  H117     1.0000 0.21954  0.74293  0.21224  Biso   1.000  H
  C86      1.0000 0.07286  0.78236  0.23014  Biso   1.000  C
  H118     1.0000 0.19128  0.28606  0.99256  Biso   1.000  H
  H119     1.0000 0.14389  0.28608  0.91774  Biso   1.000  H
  C87      1.0000 0.06745  0.19583  0.92946  Biso   1.000  C
  H120     1.0000 0.50970  0.08826  0.88253  Biso   1.000  H
  H121     1.0000 0.58022  0.12184  0.96146  Biso   1.000  H
  H122     1.0000 0.62738  0.06617  0.89826  Biso   1.000  H
  H123     1.0000 0.79838  0.83233  0.30743  Biso   1.000  H
  H124     1.0000 0.68116  0.79913  0.32090  Biso   1.000  H
  C88      1.0000 0.66156  0.86049  0.26367  Biso   1.000  C
  H125     1.0000 0.12902  0.99145  0.02291  Biso   1.000  H
  H126     1.0000 0.05147  0.92778  0.03289  Biso   1.000  H
  H127     1.0000 0.18068  0.92535  0.02708  Biso   1.000  H
  H128     1.0000 0.06702  0.76988  0.27085  Biso   1.000  H
  C89      1.0000 0.12000  0.86317  0.25759  Biso   1.000  C
  H129     1.0000 0.99580  0.77121  0.20247  Biso   1.000  H
  H130     1.0000 0.99434  0.18676  0.89826  Biso   1.000  H
  H131     1.0000 0.05204  0.18454  0.96975  Biso   1.000  H
  C90      1.0000 0.14078  0.14539  0.88839  Biso   1.000  C
  H132     1.0000 0.69640  0.86892  0.22708  Biso   1.000  H
  H133     1.0000 0.67035  0.90656  0.30490  Biso   1.000  H
  H134     1.0000 0.58113  0.83927  0.24529  Biso   1.000  H
  H135     1.0000 0.19764  0.87432  0.28447  Biso   1.000  H
  H136     1.0000 0.12414  0.87604  0.21699  Biso   1.000  H
  C91      1.0000 0.04908  0.90919  0.30485  Biso   1.000  C
  H137     1.0000 0.09542  0.09547  0.86526  Biso   1.000  H
  H138     1.0000 0.16093  0.15973  0.85064  Biso   1.000  H
  C92      1.0000 0.24857  0.14508  0.93247  Biso   1.000  C
  H139     1.0000 0.04601  0.89675  0.34576  Biso   1.000  H
  C93      1.0000 0.09404  0.98995  0.33172  Biso   1.000  C
  H140     1.0000 0.97114  0.89729  0.27818  Biso   1.000  H
  H141     1.0000 0.29548  0.11747  0.90037  Biso   1.000  H
  H142     1.0000 0.29142  0.19547  0.95855  Biso   1.000  H
  C94      1.0000 0.22978  0.11275  0.98458  Biso   1.000  C
  H143     1.0000 0.09511  0.00300  0.29154  Biso   1.000  H
  H144     1.0000 0.17051  0.00237  0.35902  Biso   1.000  H
  H145     1.0000 0.04493  0.01653  0.36187  Biso   1.000  H
  H146     1.0000 0.17667  0.13718  0.01362  Biso   1.000  H
  C95      1.0000 0.33691  0.11910  0.03358  Biso   1.000  C
  H147     1.0000 0.19385  0.06096  0.95824  Biso   1.000  H
  H148     1.0000 0.39080  0.09614  0.00544  Biso   1.000  H
  H149     1.0000 0.31879  0.09496  0.06425  Biso   1.000  H
  H150     1.0000 0.37022  0.17031  0.06262  Biso   1.000  H
