data_image0
_cell_length_a       7.16
_cell_length_b       8.723
_cell_length_c       9.277
_cell_angle_alpha    90.88
_cell_angle_beta     100.91
_cell_angle_gamma    114.13

_symmetry_space_group_name_H-M    "P 1"
_symmetry_int_tables_number       1

loop_
  _symmetry_equiv_pos_as_xyz
  'x, y, z'

loop_
  _atom_site_label
  _atom_site_occupancy
  _atom_site_fract_x
  _atom_site_fract_y
  _atom_site_fract_z
  _atom_site_thermal_displace_type
  _atom_site_B_iso_or_equiv
  _atom_site_type_symbol
  C1       1.0000 0.83447  0.92694  0.73771  Biso   1.000  C
  C2       1.0000 0.83461  0.92694  0.73771  Biso   1.000  C
  C3       1.0000 0.92009  0.73899  0.60063  Biso   1.000  C
  C4       1.0000 0.92023  0.73899  0.60063  Biso   1.000  C
  F1       1.0000 0.16121  0.91507  0.80824  Biso   1.000  F
  F2       1.0000 0.16135  0.91507  0.80824  Biso   1.000  F
  O1       1.0000 0.88308  0.04356  0.85802  Biso   1.000  O
  C5       1.0000 0.64386  0.87432  0.63915  Biso   1.000  C
  C6       1.0000 0.97269  0.85905  0.71707  Biso   1.000  C
  C7       1.0000 0.64400  0.87432  0.63915  Biso   1.000  C
  C8       1.0000 0.97276  0.85893  0.71707  Biso   1.000  C
  C9       1.0000 0.73150  0.68910  0.50075  Biso   1.000  C
  F3       1.0000 0.05461  0.67406  0.58165  Biso   1.000  F
  F4       1.0000 0.05454  0.67394  0.58165  Biso   1.000  F
  F5       1.0000 0.05468  0.67394  0.58165  Biso   1.000  F
  C10      1.0000 0.02846  0.20192  0.85129  Biso   1.000  C
  C11      1.0000 0.02860  0.20192  0.85129  Biso   1.000  C
  F6       1.0000 0.50947  0.93950  0.65814  Biso   1.000  F
  C12      1.0000 0.59350  0.75692  0.52073  Biso   1.000  C
  F7       1.0000 0.50961  0.93950  0.65814  Biso   1.000  F
  C13      1.0000 0.59364  0.75692  0.52073  Biso   1.000  C
  O2       1.0000 0.67173  0.56385  0.38497  Biso   1.000  O
  N1       1.0000 0.09851  0.23253  0.72679  Biso   1.000  N
  N2       1.0000 0.08216  0.30568  0.97115  Biso   1.000  N
  N3       1.0000 0.08209  0.30555  0.97115  Biso   1.000  N
  N4       1.0000 0.08202  0.30568  0.97115  Biso   1.000  N
  F8       1.0000 0.40928  0.70789  0.42493  Biso   1.000  F
  C14      1.0000 0.76211  0.60997  0.26743  Biso   1.000  C
  C15      1.0000 0.76225  0.60997  0.26743  Biso   1.000  C
  C16      1.0000 0.23769  0.38998  0.73253  Biso   1.000  C
  C17      1.0000 0.21987  0.46189  0.95691  Biso   1.000  C
  N5       1.0000 0.90119  0.76744  0.27328  Biso   1.000  N
  N6       1.0000 0.90133  0.76744  0.27328  Biso   1.000  N
  N7       1.0000 0.69418  0.48680  0.15971  Biso   1.000  N
  N8       1.0000 0.69432  0.48680  0.15971  Biso   1.000  N
  O3       1.0000 0.32827  0.43623  0.61498  Biso   1.000  O
  N9       1.0000 0.30576  0.51315  0.84025  Biso   1.000  N
  O4       1.0000 0.32841  0.43623  0.61498  Biso   1.000  O
  O5       1.0000 0.27405  0.57089  0.07434  Biso   1.000  O
  C18      1.0000 0.97137  0.79804  0.14878  Biso   1.000  C
  C19      1.0000 0.97151  0.79804  0.14878  Biso   1.000  C
  C20      1.0000 0.77993  0.53806  0.04304  Biso   1.000  C
  C21      1.0000 0.26844  0.31085  0.49920  Biso   1.000  C
  C22      1.0000 0.26858  0.31085  0.49920  Biso   1.000  C
  C23      1.0000 0.41185  0.74460  0.06364  Biso   1.000  C
  O6       1.0000 0.11686  0.95639  0.14194  Biso   1.000  O
  O7       1.0000 0.11700  0.95639  0.14194  Biso   1.000  O
  N10      1.0000 0.91771  0.69440  0.02881  Biso   1.000  N
  N11      1.0000 0.91785  0.69440  0.02881  Biso   1.000  N
  O8       1.0000 0.72575  0.42906  0.92561  Biso   1.000  O
  C24      1.0000 0.07988  0.26097  0.39943  Biso   1.000  C
  C25      1.0000 0.40644  0.24303  0.47923  Biso   1.000  C
  H1       1.0000 0.33948  0.79214  0.98980  Biso   1.000  H
  H2       1.0000 0.45145  0.81049  0.15966  Biso   1.000  H
  H3       1.0000 0.53800  0.74863  0.03395  Biso   1.000  H
  H4       1.0000 0.45131  0.81049  0.15966  Biso   1.000  H
  C26      1.0000 0.16543  0.07315  0.26235  Biso   1.000  C
  C27      1.0000 0.16529  0.07315  0.26235  Biso   1.000  C
  C28      1.0000 0.58812  0.25536  0.93643  Biso   1.000  C
  C29      1.0000 0.58798  0.25536  0.93643  Biso   1.000  C
  C30      1.0000 0.35594  0.12563  0.36080  Biso   1.000  C
  F9       1.0000 0.59080  0.29206  0.57503  Biso   1.000  F
  C31      1.0000 0.35614  0.12575  0.36080  Biso   1.000  C
  F10      1.0000 0.94543  0.32602  0.41841  Biso   1.000  F
  F11      1.0000 0.94529  0.32602  0.41841  Biso   1.000  F
  C32      1.0000 0.02721  0.14104  0.28299  Biso   1.000  C
  C33      1.0000 0.02735  0.14104  0.28299  Biso   1.000  C
  H5       1.0000 0.46194  0.25132  0.96601  Biso   1.000  H
  H6       1.0000 0.54849  0.18946  0.84029  Biso   1.000  H
  H7       1.0000 0.66060  0.20781  0.01015  Biso   1.000  H
  H8       1.0000 0.66046  0.20781  0.01015  Biso   1.000  H
  F12      1.0000 0.49036  0.06046  0.34193  Biso   1.000  F
  F13      1.0000 0.49050  0.06046  0.34193  Biso   1.000  F
  F14      1.0000 0.83862  0.08489  0.19182  Biso   1.000  F
