data_image0
_cell_length_a       8.704
_cell_length_b       12.92
_cell_length_c       14.031
_cell_angle_alpha    113.25
_cell_angle_beta     102.62
_cell_angle_gamma    100.34

_symmetry_space_group_name_H-M    "P 1"
_symmetry_int_tables_number       1

loop_
  _symmetry_equiv_pos_as_xyz
  'x, y, z'

loop_
  _atom_site_label
  _atom_site_occupancy
  _atom_site_fract_x
  _atom_site_fract_y
  _atom_site_fract_z
  _atom_site_thermal_displace_type
  _atom_site_B_iso_or_equiv
  _atom_site_type_symbol
  C1       1.0000 0.90904  0.26444  0.39310  Biso   1.000  C
  N1       1.0000 0.84302  0.25249  0.29231  Biso   1.000  N
  N2       1.0000 0.86507  0.19094  0.43346  Biso   1.000  N
  O1       1.0000 0.03412  0.36434  0.45705  Biso   1.000  O
  C2       1.0000 0.71796  0.15279  0.22959  Biso   1.000  C
  C3       1.0000 0.73836  0.09629  0.36092  Biso   1.000  C
  C4       1.0000 0.11933  0.38033  0.56259  Biso   1.000  C
  O2       1.0000 0.63797  0.13093  0.12798  Biso   1.000  O
  N3       1.0000 0.65969  0.07021  0.25808  Biso   1.000  N
  O3       1.0000 0.68116  0.01392  0.39162  Biso   1.000  O
  C5       1.0000 0.25244  0.33710  0.57462  Biso   1.000  C
  C6       1.0000 0.07056  0.44306  0.65003  Biso   1.000  C
  C7       1.0000 0.69510  0.21949  0.09334  Biso   1.000  C
  C8       1.0000 0.73011  0.04203  0.50314  Biso   1.000  C
  C9       1.0000 0.34033  0.35682  0.67877  Biso   1.000  C
  H1       1.0000 0.28284  0.29563  0.51420  Biso   1.000  H
  H2       1.0000 0.98125  0.47226  0.64054  Biso   1.000  H
  C10      1.0000 0.16027  0.46032  0.75238  Biso   1.000  C
  C11      1.0000 0.57405  0.19121  0.98567  Biso   1.000  C
  H3       1.0000 0.70385  0.29734  0.14771  Biso   1.000  H
  H4       1.0000 0.80312  0.21920  0.08548  Biso   1.000  H
  C12      1.0000 0.67982  0.12790  0.57528  Biso   1.000  C
  C13      1.0000 0.81417  0.97403  0.53589  Biso   1.000  C
  C14      1.0000 0.29636  0.42027  0.76982  Biso   1.000  C
  H5       1.0000 0.42963  0.32753  0.68794  Biso   1.000  H
  O4       1.0000 0.11994  0.52871  0.84548  Biso   1.000  O
  O5       1.0000 0.43202  0.22348  0.00557  Biso   1.000  O
  H6       1.0000 0.54363  0.10749  0.93687  Biso   1.000  H
  H7       1.0000 0.62297  0.23454  0.95153  Biso   1.000  H
  H8       1.0000 0.62263  0.17275  0.55252  Biso   1.000  H
  C15      1.0000 0.71809  0.14453  0.68278  Biso   1.000  C
  C16      1.0000 0.84723  0.99200  0.64356  Biso   1.000  C
  H9       1.0000 0.84792  0.91745  0.48660  Biso   1.000  H
  H10      1.0000 0.35606  0.43493  0.83983  Biso   1.000  H
  C17      1.0000 0.97287  0.48585  0.85375  Biso   1.000  C
  C18      1.0000 0.32242  0.21751  0.91059  Biso   1.000  C
  O6       1.0000 0.65932  0.22692  0.75664  Biso   1.000  O
  C19      1.0000 0.79947  0.07741  0.71799  Biso   1.000  C
  H11      1.0000 0.90231  0.94624  0.66625  Biso   1.000  H
  N4       1.0000 0.92706  0.56653  0.92621  Biso   1.000  N
  N5       1.0000 0.89397  0.37125  0.79308  Biso   1.000  N
  C20      1.0000 0.19914  0.28028  0.94531  Biso   1.000  C
  H12      1.0000 0.38349  0.25482  0.87669  Biso   1.000  H
  H13      1.0000 0.26595  0.13578  0.85778  Biso   1.000  H
  C21      1.0000 0.75180  0.34013  0.81092  Biso   1.000  C
  H14      1.0000 0.82163  0.08906  0.79005  Biso   1.000  H
  C22      1.0000 0.77948  0.52238  0.93104  Biso   1.000  C
  O7       1.0000 0.28817  0.40573  0.00532  Biso   1.000  O
  H15      1.0000 0.10976  0.26480  0.88169  Biso   1.000  H
  H16      1.0000 0.15328  0.25356  0.99157  Biso   1.000  H
  N6       1.0000 0.68491  0.40996  0.87708  Biso   1.000  N
  O8       1.0000 0.71168  0.59435  0.99466  Biso   1.000  O
  C23      1.0000 0.22053  0.47774  0.06902  Biso   1.000  C
  C24      1.0000 0.80069  0.71972  0.05468  Biso   1.000  C
  N7       1.0000 0.31494  0.59013  0.12290  Biso   1.000  N
  N8       1.0000 0.07277  0.43348  0.07377  Biso   1.000  N
  C25      1.0000 0.67743  0.78258  0.08939  Biso   1.000  C
  H17      1.0000 0.89007  0.73520  0.11830  Biso   1.000  H
  H18      1.0000 0.84655  0.74645  0.00842  Biso   1.000  H
  C26      1.0000 0.24807  0.65992  0.18914  Biso   1.000  C
  C27      1.0000 0.02700  0.51420  0.14632  Biso   1.000  C
  O9       1.0000 0.56785  0.77657  0.99450  Biso   1.000  O
  H19      1.0000 0.61636  0.74527  0.12329  Biso   1.000  H
  H20      1.0000 0.73387  0.86423  0.14221  Biso   1.000  H
  O10      1.0000 0.34051  0.77309  0.24334  Biso   1.000  O
  N9       1.0000 0.10597  0.62876  0.20691  Biso   1.000  N
  O11      1.0000 0.87995  0.47142  0.15459  Biso   1.000  O
  C28      1.0000 0.42580  0.80888  0.01431  Biso   1.000  C
  C29      1.0000 0.28174  0.85548  0.31720  Biso   1.000  C
  C30      1.0000 0.83956  0.53969  0.24760  Biso   1.000  C
  C31      1.0000 0.30477  0.78056  0.90672  Biso   1.000  C
  H21      1.0000 0.45620  0.89251  0.06311  Biso   1.000  H
  H22      1.0000 0.37692  0.76559  0.04854  Biso   1.000  H
  C32      1.0000 0.32001  0.87211  0.42470  Biso   1.000  C
  C33      1.0000 0.20036  0.92259  0.28199  Biso   1.000  C
  C34      1.0000 0.70353  0.57986  0.23024  Biso   1.000  C
  C35      1.0000 0.92931  0.55699  0.35003  Biso   1.000  C
  O12      1.0000 0.36187  0.86916  0.87201  Biso   1.000  O
  H23      1.0000 0.29600  0.70275  0.85227  Biso   1.000  H
  H24      1.0000 0.19682  0.78081  0.91450  Biso   1.000  H
  C36      1.0000 0.26976  0.95802  0.49692  Biso   1.000  C
  H25      1.0000 0.37722  0.82733  0.44747  Biso   1.000  H
  H26      1.0000 0.17824  0.91099  0.21002  Biso   1.000  H
  C37      1.0000 0.15260  0.00801  0.35642  Biso   1.000  C
  H27      1.0000 0.64381  0.56512  0.16024  Biso   1.000  H
  C38      1.0000 0.65950  0.64319  0.32121  Biso   1.000  C
  H28      1.0000 0.01862  0.52779  0.35953  Biso   1.000  H
  C39      1.0000 0.88050  0.61968  0.43739  Biso   1.000  C
  C40      1.0000 0.28187  0.84722  0.77039  Biso   1.000  C
  O13      1.0000 0.31867  0.98609  0.60836  Biso   1.000  O
  C41      1.0000 0.18565  0.02598  0.46409  Biso   1.000  C
  H29      1.0000 0.09756  0.05381  0.33382  Biso   1.000  H
  H30      1.0000 0.57024  0.67252  0.31212  Biso   1.000  H
  C42      1.0000 0.74743  0.66295  0.42544  Biso   1.000  C
  O14      1.0000 0.96573  0.63575  0.54294  Biso   1.000  O
  N10      1.0000 0.34014  0.92980  0.74190  Biso   1.000  N
  N11      1.0000 0.15681  0.74752  0.70768  Biso   1.000  N
  C43      1.0000 0.26150  0.90376  0.63914  Biso   1.000  C
  H31      1.0000 0.15205  0.08264  0.51338  Biso   1.000  H
  H32      1.0000 0.71699  0.70437  0.48579  Biso   1.000  H
  C44      1.0000 0.09081  0.73565  0.60688  Biso   1.000  C
  N12      1.0000 0.13478  0.80915  0.56652  Biso   1.000  N
  Ne1      1.0000 0.49993  0.50002  0.50000  Biso   1.000  Ne
  He1      1.0000 0.57804  0.54558  0.45832  Biso   1.000  He
  He2      1.0000 0.40786  0.44753  0.54328  Biso   1.000  He
  Ar1      1.0000 0.49994  0.50002  0.50001  Biso   1.000  Ar
