data_image0
_cell_length_a       12.475
_cell_length_b       14.775
_cell_length_c       19.732
_cell_angle_alpha    72.71
_cell_angle_beta     88.5
_cell_angle_gamma    65.98

_symmetry_space_group_name_H-M    "P 1"
_symmetry_int_tables_number       1

loop_
  _symmetry_equiv_pos_as_xyz
  'x, y, z'

loop_
  _atom_site_label
  _atom_site_occupancy
  _atom_site_fract_x
  _atom_site_fract_y
  _atom_site_fract_z
  _atom_site_thermal_displace_type
  _atom_site_B_iso_or_equiv
  _atom_site_type_symbol
  C1       1.0000 0.36942  0.07006  0.76497  Biso   1.000  C
  O1       1.0000 0.33157  0.17248  0.73038  Biso   1.000  O
  N1       1.0000 0.48659  0.01683  0.76973  Biso   1.000  N
  N2       1.0000 0.29159  0.03324  0.79098  Biso   1.000  N
  C2       1.0000 0.22336  0.24128  0.75211  Biso   1.000  C
  C3       1.0000 0.52204  0.91662  0.80726  Biso   1.000  C
  C4       1.0000 0.34172  0.93303  0.82819  Biso   1.000  C
  H1       1.0000 0.22680  0.22113  0.80475  Biso   1.000  H
  H2       1.0000 0.15364  0.23654  0.73321  Biso   1.000  H
  C5       1.0000 0.21526  0.34947  0.72189  Biso   1.000  C
  O2       1.0000 0.64037  0.86179  0.81244  Biso   1.000  O
  N3       1.0000 0.45576  0.86915  0.83903  Biso   1.000  N
  O3       1.0000 0.26483  0.89402  0.85703  Biso   1.000  O
  O4       1.0000 0.32124  0.35516  0.74244  Biso   1.000  O
  H3       1.0000 0.14726  0.39775  0.73908  Biso   1.000  H
  H4       1.0000 0.20162  0.37164  0.66919  Biso   1.000  H
  C6       1.0000 0.69070  0.75624  0.85676  Biso   1.000  C
  C7       1.0000 0.30913  0.79272  0.90647  Biso   1.000  C
  C8       1.0000 0.33846  0.35781  0.80870  Biso   1.000  C
  C9       1.0000 0.71497  0.73630  0.92868  Biso   1.000  C
  C10      1.0000 0.72251  0.67891  0.82616  Biso   1.000  C
  C11      1.0000 0.30059  0.71396  0.88757  Biso   1.000  C
  C12      1.0000 0.35155  0.77802  0.97471  Biso   1.000  C
  N4       1.0000 0.44976  0.34157  0.82472  Biso   1.000  N
  N5       1.0000 0.25088  0.37575  0.84875  Biso   1.000  N
  C13      1.0000 0.77063  0.63341  0.97027  Biso   1.000  C
  H5       1.0000 0.69399  0.79140  0.94876  Biso   1.000  H
  H6       1.0000 0.70655  0.69505  0.77613  Biso   1.000  H
  C14      1.0000 0.77890  0.57601  0.86957  Biso   1.000  C
  H7       1.0000 0.27258  0.72526  0.84015  Biso   1.000  H
  C15      1.0000 0.33340  0.61775  0.93851  Biso   1.000  C
  H8       1.0000 0.35653  0.83362  0.98725  Biso   1.000  H
  C16      1.0000 0.38612  0.68151  0.02340  Biso   1.000  C
  C17      1.0000 0.46665  0.34506  0.88917  Biso   1.000  C
  C18      1.0000 0.28440  0.37252  0.91330  Biso   1.000  C
  C19      1.0000 0.80311  0.55283  0.94208  Biso   1.000  C
  O5       1.0000 0.80218  0.60952  0.04401  Biso   1.000  O
  H9       1.0000 0.80100  0.52112  0.84918  Biso   1.000  H
  H10      1.0000 0.32638  0.56270  0.92622  Biso   1.000  H
  C20      1.0000 0.37673  0.59992  0.00760  Biso   1.000  C
  O6       1.0000 0.42335  0.66549  0.09484  Biso   1.000  O
  O7       1.0000 0.57672  0.33453  0.90519  Biso   1.000  O
  N6       1.0000 0.39063  0.35839  0.93781  Biso   1.000  N
  O8       1.0000 0.19776  0.39059  0.95596  Biso   1.000  O
  H11      1.0000 0.84160  0.48240  0.97188  Biso   1.000  H
  C21      1.0000 0.71559  0.62749  0.08673  Biso   1.000  C
  H12      1.0000 0.39917  0.53371  0.04289  Biso   1.000  H
  C22      1.0000 0.53333  0.65498  0.11081  Biso   1.000  C
  C23      1.0000 0.61382  0.31860  0.97657  Biso   1.000  C
  C24      1.0000 0.22947  0.36655  0.02970  Biso   1.000  C
  N7       1.0000 0.60931  0.64172  0.06217  Biso   1.000  N
  N8       1.0000 0.74907  0.62434  0.15128  Biso   1.000  N
  N9       1.0000 0.55020  0.65851  0.17531  Biso   1.000  N
  C25      1.0000 0.62329  0.40020  0.99238  Biso   1.000  C
  C26      1.0000 0.64852  0.22199  0.02532  Biso   1.000  C
  C27      1.0000 0.28520  0.26367  0.07130  Biso   1.000  C
  C28      1.0000 0.19699  0.44713  0.05789  Biso   1.000  C
  C29      1.0000 0.66153  0.64220  0.19133  Biso   1.000  C
  H13      1.0000 0.60080  0.46633  0.95709  Biso   1.000  H
  C30      1.0000 0.66667  0.38226  0.06152  Biso   1.000  C
  C31      1.0000 0.69096  0.20724  0.09351  Biso   1.000  C
  H14      1.0000 0.64361  0.16642  0.01272  Biso   1.000  H
  H15      1.0000 0.30611  0.20856  0.05122  Biso   1.000  H
  C32      1.0000 0.30936  0.24379  0.14322  Biso   1.000  C
  C33      1.0000 0.22119  0.42395  0.13040  Biso   1.000  C
  H16      1.0000 0.15858  0.51756  0.02810  Biso   1.000  H
  O9       1.0000 0.67870  0.64495  0.25753  Biso   1.000  O
  C34      1.0000 0.69947  0.28608  0.11241  Biso   1.000  C
  H17      1.0000 0.67371  0.43727  0.07375  Biso   1.000  H
  O10      1.0000 0.73524  0.10599  0.14300  Biso   1.000  O
  O11      1.0000 0.35973  0.13818  0.18753  Biso   1.000  O
  C35      1.0000 0.27758  0.32105  0.17381  Biso   1.000  C
  H18      1.0000 0.19910  0.47884  0.15080  Biso   1.000  H
  C36      1.0000 0.78469  0.65064  0.27809  Biso   1.000  C
  H19      1.0000 0.72753  0.27468  0.15988  Biso   1.000  H
  C37      1.0000 0.65835  0.06698  0.17184  Biso   1.000  C
  C38      1.0000 0.47802  0.08341  0.19271  Biso   1.000  C
  H20      1.0000 0.29363  0.30492  0.22384  Biso   1.000  H
  C39      1.0000 0.77659  0.75881  0.24792  Biso   1.000  C
  H21      1.0000 0.85276  0.60236  0.26090  Biso   1.000  H
  H22      1.0000 0.79837  0.62837  0.33084  Biso   1.000  H
  N10      1.0000 0.70847  0.96680  0.20900  Biso   1.000  N
  N11      1.0000 0.54438  0.13089  0.16094  Biso   1.000  N
  N12      1.0000 0.51348  0.98318  0.23030  Biso   1.000  N
  O12      1.0000 0.66846  0.82760  0.26965  Biso   1.000  O
  H23      1.0000 0.77314  0.77898  0.19522  Biso   1.000  H
  H24      1.0000 0.84634  0.76350  0.26677  Biso   1.000  H
  C40      1.0000 0.63056  0.92997  0.23500  Biso   1.000  C
  N13      1.0000 0.21373  0.04096  0.62989  Biso   1.000  N
  C41      1.0000 0.10896  0.10395  0.64377  Biso   1.000  C
  C42      1.0000 0.23828  0.94041  0.66187  Biso   1.000  C
  O13      1.0000 0.07284  0.20689  0.61579  Biso   1.000  O
  N14      1.0000 0.03387  0.07627  0.68488  Biso   1.000  N
  O14      1.0000 0.34639  0.87598  0.65178  Biso   1.000  O
  N15      1.0000 0.17242  0.89991  0.70266  Biso   1.000  N
  C43      1.0000 0.13609  0.24334  0.55909  Biso   1.000  C
  C44      1.0000 0.07164  0.97390  0.71099  Biso   1.000  C
  C45      1.0000 0.37857  0.76706  0.67810  Biso   1.000  C
  C46      1.0000 0.07871  0.36036  0.53789  Biso   1.000  C
  H25      1.0000 0.22054  0.21634  0.57628  Biso   1.000  H
  H26      1.0000 0.13013  0.21950  0.51803  Biso   1.000  H
  O15      1.0000 0.99475  0.94553  0.75136  Biso   1.000  O
  C47      1.0000 0.45728  0.70972  0.73817  Biso   1.000  C
  C48      1.0000 0.33712  0.72250  0.63971  Biso   1.000  C
  O16      1.0000 0.95341  0.40345  0.51648  Biso   1.000  O
  H27      1.0000 0.09130  0.38228  0.57863  Biso   1.000  H
  H28      1.0000 0.11716  0.38896  0.49785  Biso   1.000  H
  C49      1.0000 0.00866  0.84091  0.77218  Biso   1.000  C
  C50      1.0000 0.49661  0.60241  0.76081  Biso   1.000  C
  H29      1.0000 0.48430  0.74292  0.76385  Biso   1.000  H
  C51      1.0000 0.37795  0.61532  0.66337  Biso   1.000  C
  H30      1.0000 0.28234  0.76386  0.59817  Biso   1.000  H
  C52      1.0000 0.91741  0.40069  0.45401  Biso   1.000  C
  C53      1.0000 0.99755  0.79741  0.72210  Biso   1.000  C
  C54      1.0000 0.01844  0.78998  0.84426  Biso   1.000  C
  C55      1.0000 0.45780  0.55482  0.72290  Biso   1.000  C
  H31      1.0000 0.55065  0.56138  0.80262  Biso   1.000  H
  O17      1.0000 0.34514  0.56638  0.62193  Biso   1.000  O
  N16      1.0000 0.99623  0.37355  0.40932  Biso   1.000  N
  N17      1.0000 0.80255  0.42531  0.44589  Biso   1.000  N
  C56      1.0000 0.99956  0.69994  0.74559  Biso   1.000  C
  H32      1.0000 0.98877  0.83385  0.67255  Biso   1.000  H
  H33      1.0000 0.02277  0.82228  0.87854  Biso   1.000  H
  C57      1.0000 0.02164  0.69144  0.86509  Biso   1.000  C
  H34      1.0000 0.48609  0.48105  0.73785  Biso   1.000  H
  C58      1.0000 0.22883  0.58830  0.61259  Biso   1.000  C
  C59      1.0000 0.94919  0.36606  0.35277  Biso   1.000  C
  C60      1.0000 0.77121  0.41169  0.38737  Biso   1.000  C
  O18      1.0000 0.97396  0.65827  0.69508  Biso   1.000  O
  C61      1.0000 0.01296  0.64462  0.81629  Biso   1.000  C
  H35      1.0000 0.03003  0.65481  0.91458  Biso   1.000  H
  N18      1.0000 0.19758  0.57468  0.55407  Biso   1.000  N
  N19      1.0000 0.16141  0.61882  0.66187  Biso   1.000  N
  O19      1.0000 0.02608  0.34172  0.30488  Biso   1.000  O
  N20      1.0000 0.83859  0.38125  0.33809  Biso   1.000  N
  O20      1.0000 0.65490  0.43362  0.37803  Biso   1.000  O
  C62      1.0000 0.05081  0.63400  0.64719  Biso   1.000  C
  H36      1.0000 0.01612  0.57611  0.83108  Biso   1.000  H
  C63      1.0000 0.08265  0.59928  0.54601  Biso   1.000  C
  C64      1.0000 0.00054  0.30010  0.25442  Biso   1.000  C
  C65      1.0000 0.62206  0.38475  0.33660  Biso   1.000  C
  N21      1.0000 0.00387  0.62650  0.59070  Biso   1.000  N
  O21      1.0000 0.04669  0.59659  0.48354  Biso   1.000  O
  C66      1.0000 0.00247  0.20263  0.27792  Biso   1.000  C
  C67      1.0000 0.98712  0.35545  0.18368  Biso   1.000  C
  C68      1.0000 0.54222  0.44523  0.27711  Biso   1.000  C
  C69      1.0000 0.66290  0.27754  0.36030  Biso   1.000  C
  C70      1.0000 0.92138  0.63971  0.46207  Biso   1.000  C
  H37      1.0000 0.01128  0.16612  0.32746  Biso   1.000  H
  C71      1.0000 0.99139  0.15909  0.22778  Biso   1.000  C
  C72      1.0000 0.97837  0.30863  0.13487  Biso   1.000  C
  H38      1.0000 0.98392  0.42388  0.16889  Biso   1.000  H
  H39      1.0000 0.51401  0.51900  0.26216  Biso   1.000  H
  C73      1.0000 0.50341  0.39763  0.23920  Biso   1.000  C
  C74      1.0000 0.62148  0.23291  0.32191  Biso   1.000  C
  H40      1.0000 0.71770  0.23614  0.40179  Biso   1.000  H
  C75      1.0000 0.86392  0.75672  0.44087  Biso   1.000  C
  H41      1.0000 0.90883  0.61769  0.42138  Biso   1.000  H
  H42      1.0000 0.88293  0.61111  0.50212  Biso   1.000  H
  O22      1.0000 0.00526  0.05454  0.24860  Biso   1.000  O
  C76      1.0000 0.98161  0.21001  0.15570  Biso   1.000  C
  H43      1.0000 0.97002  0.34516  0.08543  Biso   1.000  H
  H44      1.0000 0.44943  0.43869  0.19734  Biso   1.000  H
  C77      1.0000 0.54281  0.29035  0.26179  Biso   1.000  C
  O23      1.0000 0.65374  0.12399  0.34824  Biso   1.000  O
  O24      1.0000 0.92717  0.79318  0.38417  Biso   1.000  O
  H45      1.0000 0.77959  0.78363  0.42373  Biso   1.000  H
  H46      1.0000 0.87001  0.78047  0.48199  Biso   1.000  H
  C78      1.0000 0.92837  0.02615  0.28902  Biso   1.000  C
  H47      1.0000 0.97723  0.17779  0.12142  Biso   1.000  H
  H48      1.0000 0.51582  0.25708  0.23611  Biso   1.000  H
  C79      1.0000 0.76173  0.05966  0.33809  Biso   1.000  C
  C80      1.0000 0.89108  0.89604  0.35619  Biso   1.000  C
  N22      1.0000 0.96622  0.92379  0.31508  Biso   1.000  N
  N23      1.0000 0.82758  0.10015  0.29730  Biso   1.000  N
  N24      1.0000 0.78628  0.95911  0.37007  Biso   1.000  N
  Ne1      1.0000 0.00002  0.00002  0.49999  Biso   1.000  Ne
  He1      1.0000 0.88304  0.04363  0.53676  Biso   1.000  He
  He2      1.0000 0.13106  0.95172  0.45773  Biso   1.000  He
  He3      1.0000 0.82115  0.23737  0.30415  Biso   1.000  He
  Ar1      1.0000 0.00001  0.00002  0.49998  Biso   1.000  Ar
  Ne2      1.0000 0.50002  0.00002  1.00000  Biso   1.000  Ne
  He4      1.0000 0.19568  0.08810  0.97026  Biso   1.000  He
  He5      1.0000 0.64764  0.94928  0.03183  Biso   1.000  He
  He6      1.0000 0.46146  0.24787  0.03708  Biso   1.000  He
  He7      1.0000 0.53827  0.75442  0.96353  Biso   1.000  He
  Ar2      1.0000 0.50005  0.99998  0.99999  Biso   1.000  Ar
