data_image0
_cell_length_a       12.875
_cell_length_b       15.034
_cell_length_c       22.438
_cell_angle_alpha    72.37
_cell_angle_beta     76.92
_cell_angle_gamma    83.45

_symmetry_space_group_name_H-M    "P 1"
_symmetry_int_tables_number       1

loop_
  _symmetry_equiv_pos_as_xyz
  'x, y, z'

loop_
  _atom_site_label
  _atom_site_occupancy
  _atom_site_fract_x
  _atom_site_fract_y
  _atom_site_fract_z
  _atom_site_thermal_displace_type
  _atom_site_B_iso_or_equiv
  _atom_site_type_symbol
  O1       1.0000 0.60667  0.40626  0.76969  Biso   1.000  O
  C1       1.0000 0.58575  0.31893  0.77757  Biso   1.000  C
  C2       1.0000 0.70858  0.44043  0.73015  Biso   1.000  C
  N1       1.0000 0.65497  0.26746  0.74667  Biso   1.000  N
  N2       1.0000 0.49355  0.29326  0.81758  Biso   1.000  N
  H1       1.0000 0.76771  0.40396  0.74753  Biso   1.000  H
  H2       1.0000 0.71510  0.43755  0.68684  Biso   1.000  H
  C3       1.0000 0.70678  0.53968  0.73153  Biso   1.000  C
  C4       1.0000 0.62319  0.18147  0.75999  Biso   1.000  C
  C5       1.0000 0.47274  0.20564  0.82489  Biso   1.000  C
  O2       1.0000 0.62598  0.59144  0.69954  Biso   1.000  O
  H3       1.0000 0.77569  0.56586  0.71043  Biso   1.000  H
  H4       1.0000 0.69181  0.54222  0.77532  Biso   1.000  H
  O3       1.0000 0.68755  0.12123  0.73215  Biso   1.000  O
  N3       1.0000 0.53452  0.14461  0.79796  Biso   1.000  N
  O4       1.0000 0.38255  0.17026  0.86348  Biso   1.000  O
  C6       1.0000 0.58467  0.67272  0.71874  Biso   1.000  C
  C7       1.0000 0.78143  0.15638  0.68884  Biso   1.000  C
  C8       1.0000 0.30607  0.22844  0.89160  Biso   1.000  C
  C9       1.0000 0.46883  0.68584  0.71635  Biso   1.000  C
  H5       1.0000 0.59404  0.66522  0.76171  Biso   1.000  H
  H6       1.0000 0.62240  0.72697  0.69023  Biso   1.000  H
  C10      1.0000 0.77508  0.21608  0.62944  Biso   1.000  C
  C11      1.0000 0.87789  0.12541  0.70699  Biso   1.000  C
  C12      1.0000 0.26007  0.30686  0.85416  Biso   1.000  C
  C13      1.0000 0.27392  0.19914  0.95722  Biso   1.000  C
  O5       1.0000 0.41875  0.60452  0.76405  Biso   1.000  O
  H7       1.0000 0.45862  0.68895  0.67423  Biso   1.000  H
  H8       1.0000 0.43861  0.74294  0.72642  Biso   1.000  H
  C14      1.0000 0.86940  0.24648  0.58837  Biso   1.000  C
  H9       1.0000 0.70961  0.23508  0.61750  Biso   1.000  H
  C15      1.0000 0.97017  0.15576  0.66363  Biso   1.000  C
  H10      1.0000 0.88046  0.08521  0.74734  Biso   1.000  H
  C16      1.0000 0.18023  0.35613  0.88535  Biso   1.000  C
  H11      1.0000 0.28186  0.32552  0.80994  Biso   1.000  H
  C17      1.0000 0.19275  0.24942  0.98615  Biso   1.000  C
  H12      1.0000 0.30643  0.14642  0.98143  Biso   1.000  H
  C18      1.0000 0.31879  0.59114  0.76386  Biso   1.000  C
  O6       1.0000 0.86487  0.30574  0.52667  Biso   1.000  O
  C19      1.0000 0.96768  0.21769  0.60355  Biso   1.000  C
  H13      1.0000 0.03578  0.13425  0.67471  Biso   1.000  H
  O7       1.0000 0.12429  0.43253  0.85015  Biso   1.000  O
  C20      1.0000 0.14476  0.32914  0.95072  Biso   1.000  C
  H14      1.0000 0.16962  0.22970  0.03018  Biso   1.000  H
  N4       1.0000 0.27040  0.65198  0.72045  Biso   1.000  N
  N5       1.0000 0.27786  0.51561  0.80846  Biso   1.000  N
  C21      1.0000 0.86822  0.39834  0.51626  Biso   1.000  C
  H15      1.0000 0.03019  0.23877  0.57481  Biso   1.000  H
  C22      1.0000 0.17819  0.50537  0.80703  Biso   1.000  C
  H16      1.0000 0.09043  0.36319  0.97044  Biso   1.000  H
  C23      1.0000 0.17025  0.63167  0.72642  Biso   1.000  C
  N6       1.0000 0.87695  0.44607  0.45475  Biso   1.000  N
  N7       1.0000 0.86308  0.43178  0.56526  Biso   1.000  N
  N8       1.0000 0.11741  0.55997  0.76763  Biso   1.000  N
  O8       1.0000 0.11242  0.68945  0.68536  Biso   1.000  O
  C24      1.0000 0.88172  0.53734  0.44434  Biso   1.000  C
  C25      1.0000 0.86542  0.52509  0.54692  Biso   1.000  C
  C26      1.0000 0.16379  0.76765  0.64075  Biso   1.000  C
  O9       1.0000 0.89497  0.59472  0.38585  Biso   1.000  O
  N9       1.0000 0.87484  0.58167  0.48876  Biso   1.000  N
  O10      1.0000 0.85819  0.56152  0.59548  Biso   1.000  O
  C27      1.0000 0.22598  0.75665  0.58407  Biso   1.000  C
  C28      1.0000 0.14669  0.85243  0.65350  Biso   1.000  C
  C29      1.0000 0.91196  0.55660  0.33203  Biso   1.000  C
  C30      1.0000 0.84520  0.66004  0.58135  Biso   1.000  C
  C31      1.0000 0.27412  0.83456  0.54066  Biso   1.000  C
  H17      1.0000 0.23489  0.69906  0.57562  Biso   1.000  H
  C32      1.0000 0.19469  0.92966  0.60852  Biso   1.000  C
  H18      1.0000 0.10378  0.85798  0.69171  Biso   1.000  H
  C33      1.0000 0.91132  0.64027  0.27487  Biso   1.000  C
  H19      1.0000 0.97974  0.52115  0.32811  Biso   1.000  H
  H20      1.0000 0.85525  0.51600  0.33690  Biso   1.000  H
  C34      1.0000 0.75019  0.70308  0.56588  Biso   1.000  C
  C35      1.0000 0.92543  0.70805  0.58741  Biso   1.000  C
  O11      1.0000 0.33401  0.82364  0.48250  Biso   1.000  O
  C36      1.0000 0.25879  0.92127  0.55184  Biso   1.000  C
  H21      1.0000 0.18374  0.98765  0.61650  Biso   1.000  H
  O12      1.0000 0.80663  0.68244  0.27635  Biso   1.000  O
  H22      1.0000 0.93543  0.62130  0.23609  Biso   1.000  H
  H23      1.0000 0.96006  0.68495  0.27482  Biso   1.000  H
  C37      1.0000 0.73789  0.79844  0.55561  Biso   1.000  C
  H24      1.0000 0.69694  0.66906  0.56253  Biso   1.000  H
  C38      1.0000 0.90851  0.80408  0.57681  Biso   1.000  C
  H25      1.0000 0.98839  0.67748  0.59821  Biso   1.000  H
  C39      1.0000 0.44094  0.82120  0.47314  Biso   1.000  C
  H26      1.0000 0.29107  0.97310  0.52161  Biso   1.000  H
  C40      1.0000 0.79609  0.77882  0.27210  Biso   1.000  C
  O13      1.0000 0.63897  0.84417  0.54601  Biso   1.000  O
  C41      1.0000 0.81553  0.85005  0.56091  Biso   1.000  C
  H27      1.0000 0.96133  0.83817  0.58063  Biso   1.000  H
  N10      1.0000 0.48955  0.80310  0.41904  Biso   1.000  N
  N11      1.0000 0.48584  0.83597  0.51717  Biso   1.000  N
  C42      1.0000 0.75955  0.79770  0.33652  Biso   1.000  C
  H28      1.0000 0.86429  0.80646  0.25152  Biso   1.000  H
  H29      1.0000 0.74504  0.80902  0.24540  Biso   1.000  H
  C43      1.0000 0.59162  0.82868  0.50213  Biso   1.000  C
  H30      1.0000 0.80538  0.91438  0.55389  Biso   1.000  H
  C44      1.0000 0.59646  0.79998  0.41034  Biso   1.000  C
  O14      1.0000 0.64552  0.78619  0.35519  Biso   1.000  O
  H31      1.0000 0.77538  0.86066  0.33341  Biso   1.000  H
  H32      1.0000 0.79582  0.75406  0.36780  Biso   1.000  H
  N12      1.0000 0.65273  0.81125  0.45055  Biso   1.000  N
  O15      1.0000 0.38516  0.74414  0.85111  Biso   1.000  O
  C45      1.0000 0.42098  0.78823  0.88602  Biso   1.000  C
  C46      1.0000 0.27896  0.71523  0.87217  Biso   1.000  C
  C47      1.0000 0.27898  0.71525  0.87212  Biso   1.000  C
  N13      1.0000 0.52742  0.78929  0.87374  Biso   1.000  N
  N14      1.0000 0.52742  0.78935  0.87374  Biso   1.000  N
  N15      1.0000 0.35179  0.82379  0.92675  Biso   1.000  N
  N16      1.0000 0.35178  0.82385  0.92675  Biso   1.000  N
  C48      1.0000 0.20698  0.75409  0.83358  Biso   1.000  C
  C49      1.0000 0.25481  0.64342  0.92770  Biso   1.000  C
  C50      1.0000 0.20697  0.75416  0.83358  Biso   1.000  C
  C51      1.0000 0.25474  0.64342  0.92770  Biso   1.000  C
  C52      1.0000 0.56064  0.83321  0.90841  Biso   1.000  C
  C53      1.0000 0.56058  0.83323  0.90836  Biso   1.000  C
  C54      1.0000 0.39880  0.86249  0.95951  Biso   1.000  C
  C55      1.0000 0.39879  0.86255  0.95951  Biso   1.000  C
  H33      1.0000 0.22591  0.80182  0.79605  Biso   1.000  H
  C56      1.0000 0.10522  0.72019  0.85216  Biso   1.000  C
  H34      1.0000 0.22593  0.80184  0.79600  Biso   1.000  H
  C57      1.0000 0.10516  0.72021  0.85211  Biso   1.000  C
  C58      1.0000 0.15261  0.61211  0.94475  Biso   1.000  C
  C59      1.0000 0.15253  0.61211  0.94475  Biso   1.000  C
  H35      1.0000 0.30525  0.61717  0.95263  Biso   1.000  H
  H36      1.0000 0.30525  0.61724  0.95263  Biso   1.000  H
  O16      1.0000 0.66680  0.84329  0.89953  Biso   1.000  O
  O17      1.0000 0.66681  0.84338  0.89948  Biso   1.000  O
  N17      1.0000 0.50304  0.87028  0.95273  Biso   1.000  N
  N18      1.0000 0.50298  0.87030  0.95268  Biso   1.000  N
  O18      1.0000 0.33047  0.89487  0.00287  Biso   1.000  O
  O19      1.0000 0.33048  0.89496  0.00282  Biso   1.000  O
  C60      1.0000 0.07662  0.64849  0.90793  Biso   1.000  C
  C61      1.0000 0.07655  0.64851  0.90789  Biso   1.000  C
  H37      1.0000 0.05518  0.74597  0.82675  Biso   1.000  H
  H38      1.0000 0.05519  0.74606  0.82671  Biso   1.000  H
  O20      1.0000 0.12705  0.53332  0.99776  Biso   1.000  O
  O21      1.0000 0.12707  0.53334  0.99771  Biso   1.000  O
  C62      1.0000 0.73573  0.81752  0.84886  Biso   1.000  C
  C63      1.0000 0.37391  0.92387  0.04776  Biso   1.000  C
  C64      1.0000 0.37385  0.92389  0.04771  Biso   1.000  C
  H39      1.0000 0.00840  0.62582  0.92016  Biso   1.000  H
  H40      1.0000 0.00834  0.62584  0.92011  Biso   1.000  H
  C65      1.0000 0.13092  0.53878  0.05602  Biso   1.000  C
  C66      1.0000 0.76022  0.72410  0.85259  Biso   1.000  C
  C67      1.0000 0.76023  0.72412  0.85254  Biso   1.000  C
  C68      1.0000 0.78186  0.88843  0.79834  Biso   1.000  C
  C69      1.0000 0.78178  0.88843  0.79834  Biso   1.000  C
  C70      1.0000 0.28160  0.94628  0.09623  Biso   1.000  C
  H41      1.0000 0.41549  0.97851  0.02569  Biso   1.000  H
  H42      1.0000 0.41989  0.87421  0.06848  Biso   1.000  H
  N19      1.0000 0.13527  0.45569  0.09885  Biso   1.000  N
  N20      1.0000 0.13519  0.45569  0.09885  Biso   1.000  N
  N21      1.0000 0.12852  0.62203  0.06490  Biso   1.000  N
  N22      1.0000 0.12851  0.62210  0.06490  Biso   1.000  N
  C71      1.0000 0.83302  0.70383  0.80187  Biso   1.000  C
  H43      1.0000 0.72917  0.67698  0.88754  Biso   1.000  H
  H44      1.0000 0.72916  0.67705  0.88754  Biso   1.000  H
  C72      1.0000 0.85420  0.86574  0.74863  Biso   1.000  C
  H45      1.0000 0.76483  0.95050  0.79753  Biso   1.000  H
  H46      1.0000 0.76482  0.95057  0.79753  Biso   1.000  H
  O22      1.0000 0.22354  0.86627  0.13457  Biso   1.000  O
  H47      1.0000 0.30818  0.97327  0.12368  Biso   1.000  H
  H48      1.0000 0.23358  0.99269  0.07431  Biso   1.000  H
  H49      1.0000 0.30817  0.97334  0.12368  Biso   1.000  H
  H50      1.0000 0.23359  0.99271  0.07426  Biso   1.000  H
  C73      1.0000 0.13669  0.46279  0.15606  Biso   1.000  C
  C74      1.0000 0.13671  0.46281  0.15601  Biso   1.000  C
  C75      1.0000 0.12984  0.61750  0.12493  Biso   1.000  C
  O23      1.0000 0.85783  0.61446  0.79514  Biso   1.000  O
  O24      1.0000 0.85782  0.61453  0.79514  Biso   1.000  O
  C76      1.0000 0.88003  0.77340  0.74978  Biso   1.000  C
  C77      1.0000 0.88003  0.77349  0.74973  Biso   1.000  C
  H51      1.0000 0.88607  0.91310  0.71406  Biso   1.000  H
  H52      1.0000 0.88600  0.91318  0.71401  Biso   1.000  H
  C78      1.0000 0.12278  0.86049  0.12025  Biso   1.000  C
  O25      1.0000 0.14226  0.38541  0.20491  Biso   1.000  O
  O26      1.0000 0.14219  0.38543  0.20486  Biso   1.000  O
  N23      1.0000 0.13422  0.53967  0.17359  Biso   1.000  N
  N24      1.0000 0.13423  0.53969  0.17354  Biso   1.000  N
  O27      1.0000 0.12753  0.69549  0.14126  Biso   1.000  O
  O28      1.0000 0.12754  0.69558  0.14121  Biso   1.000  O
  C79      1.0000 0.86331  0.53708  0.84399  Biso   1.000  C
  C80      1.0000 0.86330  0.53715  0.84399  Biso   1.000  C
  H53      1.0000 0.92810  0.75840  0.71606  Biso   1.000  H
  H54      1.0000 0.92811  0.75849  0.71601  Biso   1.000  H
  C81      1.0000 0.12066  0.78264  0.09145  Biso   1.000  C
  C82      1.0000 0.12067  0.78273  0.09140  Biso   1.000  C
  H55      1.0000 0.10489  0.91930  0.09078  Biso   1.000  H
  H56      1.0000 0.06857  0.85120  0.15921  Biso   1.000  H
  H57      1.0000 0.06858  0.85122  0.15916  Biso   1.000  H
  C83      1.0000 0.16699  0.29604  0.19818  Biso   1.000  C
  C84      1.0000 0.16700  0.29612  0.19813  Biso   1.000  C
  N25      1.0000 0.86579  0.46020  0.82647  Biso   1.000  N
  N26      1.0000 0.86578  0.46027  0.82647  Biso   1.000  N
  N27      1.0000 0.86481  0.54418  0.90120  Biso   1.000  N
  N28      1.0000 0.86482  0.54427  0.90115  Biso   1.000  N
  H58      1.0000 0.05505  0.78759  0.07612  Biso   1.000  H
  H59      1.0000 0.18044  0.78565  0.05583  Biso   1.000  H
  H60      1.0000 0.05507  0.78761  0.07607  Biso   1.000  H
  H61      1.0000 0.18045  0.78573  0.05578  Biso   1.000  H
  C85      1.0000 0.23979  0.27577  0.14746  Biso   1.000  C
  C86      1.0000 0.11998  0.22647  0.25028  Biso   1.000  C
  C87      1.0000 0.87017  0.38237  0.87513  Biso   1.000  C
  C88      1.0000 0.87017  0.38246  0.87508  Biso   1.000  C
  C89      1.0000 0.86909  0.46109  0.94404  Biso   1.000  C
  C90      1.0000 0.86910  0.46111  0.94399  Biso   1.000  C
  C91      1.0000 0.26428  0.18235  0.15119  Biso   1.000  C
  C92      1.0000 0.26428  0.18244  0.15114  Biso   1.000  C
  H62      1.0000 0.27083  0.32289  0.11251  Biso   1.000  H
  H63      1.0000 0.27085  0.32291  0.11246  Biso   1.000  H
  C93      1.0000 0.14581  0.13413  0.25142  Biso   1.000  C
  C94      1.0000 0.14582  0.13422  0.25138  Biso   1.000  C
  H64      1.0000 0.07191  0.24147  0.28399  Biso   1.000  H
  O29      1.0000 0.87247  0.30438  0.85880  Biso   1.000  O
  N29      1.0000 0.87148  0.37784  0.93515  Biso   1.000  N
  N30      1.0000 0.87150  0.37786  0.93511  Biso   1.000  N
  O30      1.0000 0.87295  0.46655  0.00229  Biso   1.000  O
  O31      1.0000 0.87294  0.46661  0.00229  Biso   1.000  O
  O32      1.0000 0.33321  0.15658  0.10052  Biso   1.000  O
  C95      1.0000 0.21822  0.11144  0.20171  Biso   1.000  C
  C96      1.0000 0.21823  0.11153  0.20166  Biso   1.000  C
  H65      1.0000 0.11401  0.08677  0.28600  Biso   1.000  H
  C97      1.0000 0.87936  0.21716  0.90860  Biso   1.000  C
  C98      1.0000 0.87935  0.21723  0.90860  Biso   1.000  C
  C99      1.0000 0.84747  0.38776  0.05530  Biso   1.000  C
  C100     1.0000 0.84741  0.38778  0.05525  Biso   1.000  C
  C101     1.0000 0.43945  0.16666  0.09164  Biso   1.000  C
  C102     1.0000 0.43944  0.16673  0.09164  Biso   1.000  C
  H66      1.0000 0.23518  0.04937  0.20252  Biso   1.000  H
  H67      1.0000 0.23520  0.04939  0.20248  Biso   1.000  H
  C103     1.0000 0.87723  0.13938  0.87981  Biso   1.000  C
  C104     1.0000 0.87724  0.13946  0.87976  Biso   1.000  C
  H68      1.0000 0.94495  0.21228  0.92393  Biso   1.000  H
  H69      1.0000 0.81956  0.21422  0.94423  Biso   1.000  H
  H70      1.0000 0.94494  0.21235  0.92393  Biso   1.000  H
  C105     1.0000 0.92347  0.35138  0.09212  Biso   1.000  C
  C106     1.0000 0.74527  0.35645  0.07235  Biso   1.000  C
  C107     1.0000 0.74520  0.35654  0.07230  Biso   1.000  C
  N31      1.0000 0.49705  0.12959  0.04733  Biso   1.000  N
  N32      1.0000 0.49704  0.12965  0.04733  Biso   1.000  N
  N33      1.0000 0.47258  0.21058  0.12631  Biso   1.000  N
  N34      1.0000 0.47260  0.21060  0.12626  Biso   1.000  N
  O33      1.0000 0.77647  0.13368  0.86543  Biso   1.000  O
  O34      1.0000 0.77647  0.13360  0.86548  Biso   1.000  O
  H71      1.0000 0.89511  0.08057  0.90927  Biso   1.000  H
  H72      1.0000 0.93144  0.14867  0.84084  Biso   1.000  H
  H73      1.0000 0.89512  0.08065  0.90922  Biso   1.000  H
  H74      1.0000 0.93143  0.14874  0.84084  Biso   1.000  H
  C108     1.0000 0.89487  0.27968  0.14789  Biso   1.000  C
  H75      1.0000 0.99168  0.37405  0.07989  Biso   1.000  H
  C109     1.0000 0.89479  0.27968  0.14789  Biso   1.000  C
  H76      1.0000 0.99167  0.37411  0.07989  Biso   1.000  H
  C110     1.0000 0.72105  0.28464  0.12789  Biso   1.000  C
  C111     1.0000 0.72104  0.28471  0.12789  Biso   1.000  C
  H77      1.0000 0.69475  0.38270  0.04742  Biso   1.000  H
  H78      1.0000 0.69477  0.38272  0.04737  Biso   1.000  H
  C112     1.0000 0.60121  0.13738  0.04055  Biso   1.000  C
  C113     1.0000 0.60122  0.13740  0.04050  Biso   1.000  C
  C114     1.0000 0.57903  0.21164  0.11404  Biso   1.000  C
  C115     1.0000 0.57904  0.21173  0.11399  Biso   1.000  C
  C116     1.0000 0.71841  0.05359  0.90383  Biso   1.000  C
  C117     1.0000 0.71842  0.05361  0.90378  Biso   1.000  C
  C118     1.0000 0.79302  0.24578  0.16647  Biso   1.000  C
  C119     1.0000 0.79304  0.24580  0.16642  Biso   1.000  C
  H79      1.0000 0.94483  0.25383  0.17330  Biso   1.000  H
  H80      1.0000 0.94482  0.25390  0.17330  Biso   1.000  H
  O35      1.0000 0.61484  0.25573  0.14895  Biso   1.000  O
  O36      1.0000 0.61486  0.25575  0.14890  Biso   1.000  O
  O37      1.0000 0.66953  0.10500  0.99719  Biso   1.000  O
  N35      1.0000 0.64822  0.17608  0.07330  Biso   1.000  N
  N36      1.0000 0.64824  0.17610  0.07326  Biso   1.000  N
  H81      1.0000 0.69182  0.02660  0.87637  Biso   1.000  H
  H82      1.0000 0.76643  0.00718  0.92575  Biso   1.000  H
  C120     1.0000 0.62617  0.07600  0.95230  Biso   1.000  C
  H83      1.0000 0.69184  0.02662  0.87632  Biso   1.000  H
  H84      1.0000 0.76642  0.00725  0.92575  Biso   1.000  H
  H85      1.0000 0.77409  0.19805  0.20400  Biso   1.000  H
  H86      1.0000 0.77408  0.19812  0.20400  Biso   1.000  H
  H87      1.0000 0.58451  0.02136  0.97436  Biso   1.000  H
  H88      1.0000 0.58012  0.12566  0.93157  Biso   1.000  H
  H89      1.0000 0.58452  0.02145  0.97431  Biso   1.000  H
  H90      1.0000 0.58012  0.12574  0.93152  Biso   1.000  H
  O38      1.0000 0.38516  0.74414  0.85111  Biso   1.000  O
  C121     1.0000 0.27896  0.71523  0.87217  Biso   1.000  C
  C122     1.0000 0.27898  0.71525  0.87212  Biso   1.000  C
  C123     1.0000 0.42098  0.78823  0.88602  Biso   1.000  C
  C124     1.0000 0.25481  0.64342  0.92770  Biso   1.000  C
  C125     1.0000 0.25474  0.64342  0.92770  Biso   1.000  C
  C126     1.0000 0.20698  0.75409  0.83358  Biso   1.000  C
  C127     1.0000 0.20697  0.75416  0.83358  Biso   1.000  C
  N37      1.0000 0.52742  0.78929  0.87374  Biso   1.000  N
  N38      1.0000 0.52742  0.78935  0.87374  Biso   1.000  N
  N39      1.0000 0.35179  0.82379  0.92675  Biso   1.000  N
  N40      1.0000 0.35178  0.82385  0.92675  Biso   1.000  N
  C128     1.0000 0.15261  0.61211  0.94475  Biso   1.000  C
  C129     1.0000 0.15253  0.61211  0.94475  Biso   1.000  C
  H91      1.0000 0.30525  0.61717  0.95263  Biso   1.000  H
  H92      1.0000 0.30525  0.61724  0.95263  Biso   1.000  H
  C130     1.0000 0.10522  0.72019  0.85216  Biso   1.000  C
  C131     1.0000 0.10516  0.72021  0.85211  Biso   1.000  C
  H93      1.0000 0.22591  0.80182  0.79605  Biso   1.000  H
  H94      1.0000 0.22593  0.80184  0.79600  Biso   1.000  H
  C132     1.0000 0.56064  0.83321  0.90841  Biso   1.000  C
  C133     1.0000 0.56058  0.83323  0.90836  Biso   1.000  C
  C134     1.0000 0.39880  0.86249  0.95951  Biso   1.000  C
  C135     1.0000 0.39879  0.86255  0.95951  Biso   1.000  C
  O39      1.0000 0.12705  0.53332  0.99776  Biso   1.000  O
  O40      1.0000 0.12707  0.53334  0.99771  Biso   1.000  O
  C136     1.0000 0.07662  0.64849  0.90793  Biso   1.000  C
  C137     1.0000 0.07655  0.64851  0.90789  Biso   1.000  C
  H95      1.0000 0.05518  0.74597  0.82675  Biso   1.000  H
  H96      1.0000 0.05519  0.74606  0.82671  Biso   1.000  H
  O41      1.0000 0.66680  0.84329  0.89953  Biso   1.000  O
  O42      1.0000 0.66681  0.84338  0.89948  Biso   1.000  O
  N41      1.0000 0.50304  0.87028  0.95273  Biso   1.000  N
  N42      1.0000 0.50298  0.87030  0.95268  Biso   1.000  N
  O43      1.0000 0.33047  0.89487  0.00287  Biso   1.000  O
  O44      1.0000 0.33048  0.89496  0.00282  Biso   1.000  O
  C138     1.0000 0.13092  0.53878  0.05602  Biso   1.000  C
  H97      1.0000 0.00840  0.62582  0.92016  Biso   1.000  H
  H98      1.0000 0.00834  0.62584  0.92011  Biso   1.000  H
  C139     1.0000 0.73573  0.81752  0.84886  Biso   1.000  C
  C140     1.0000 0.37391  0.92387  0.04776  Biso   1.000  C
  C141     1.0000 0.37385  0.92389  0.04771  Biso   1.000  C
  N43      1.0000 0.13527  0.45569  0.09885  Biso   1.000  N
  N44      1.0000 0.13519  0.45569  0.09885  Biso   1.000  N
  N45      1.0000 0.12852  0.62203  0.06490  Biso   1.000  N
  N46      1.0000 0.12851  0.62210  0.06490  Biso   1.000  N
  C142     1.0000 0.76022  0.72410  0.85259  Biso   1.000  C
  C143     1.0000 0.76023  0.72412  0.85254  Biso   1.000  C
  C144     1.0000 0.78186  0.88843  0.79834  Biso   1.000  C
  C145     1.0000 0.78178  0.88843  0.79834  Biso   1.000  C
  C146     1.0000 0.28160  0.94628  0.09623  Biso   1.000  C
  H99      1.0000 0.41549  0.97851  0.02569  Biso   1.000  H
  H100     1.0000 0.41989  0.87421  0.06848  Biso   1.000  H
  C147     1.0000 0.13669  0.46279  0.15606  Biso   1.000  C
  C148     1.0000 0.13671  0.46281  0.15601  Biso   1.000  C
  C149     1.0000 0.12984  0.61750  0.12493  Biso   1.000  C
  C150     1.0000 0.83302  0.70383  0.80187  Biso   1.000  C
  H101     1.0000 0.72917  0.67698  0.88754  Biso   1.000  H
  H102     1.0000 0.72916  0.67705  0.88754  Biso   1.000  H
  C151     1.0000 0.85420  0.86574  0.74863  Biso   1.000  C
  H103     1.0000 0.76483  0.95050  0.79753  Biso   1.000  H
  H104     1.0000 0.76482  0.95057  0.79753  Biso   1.000  H
  O45      1.0000 0.22354  0.86627  0.13457  Biso   1.000  O
  H105     1.0000 0.30818  0.97327  0.12368  Biso   1.000  H
  H106     1.0000 0.23358  0.99269  0.07431  Biso   1.000  H
  H107     1.0000 0.30817  0.97334  0.12368  Biso   1.000  H
  H108     1.0000 0.23359  0.99271  0.07426  Biso   1.000  H
  O46      1.0000 0.14226  0.38541  0.20491  Biso   1.000  O
  O47      1.0000 0.14219  0.38543  0.20486  Biso   1.000  O
  N47      1.0000 0.13422  0.53967  0.17359  Biso   1.000  N
  N48      1.0000 0.13423  0.53969  0.17354  Biso   1.000  N
  O48      1.0000 0.12753  0.69549  0.14126  Biso   1.000  O
  O49      1.0000 0.12754  0.69558  0.14121  Biso   1.000  O
  O50      1.0000 0.85783  0.61446  0.79514  Biso   1.000  O
  O51      1.0000 0.85782  0.61453  0.79514  Biso   1.000  O
  C152     1.0000 0.88003  0.77340  0.74978  Biso   1.000  C
  C153     1.0000 0.88003  0.77349  0.74973  Biso   1.000  C
  H109     1.0000 0.88607  0.91310  0.71406  Biso   1.000  H
  H110     1.0000 0.88600  0.91318  0.71401  Biso   1.000  H
  C154     1.0000 0.12278  0.86049  0.12025  Biso   1.000  C
  C155     1.0000 0.16699  0.29604  0.19818  Biso   1.000  C
  C156     1.0000 0.16700  0.29612  0.19813  Biso   1.000  C
  C157     1.0000 0.12066  0.78264  0.09145  Biso   1.000  C
  C158     1.0000 0.12067  0.78273  0.09140  Biso   1.000  C
  C159     1.0000 0.86331  0.53708  0.84399  Biso   1.000  C
  C160     1.0000 0.86330  0.53715  0.84399  Biso   1.000  C
  H111     1.0000 0.92810  0.75840  0.71606  Biso   1.000  H
  H112     1.0000 0.92811  0.75849  0.71601  Biso   1.000  H
  H113     1.0000 0.10489  0.91930  0.09078  Biso   1.000  H
  H114     1.0000 0.06857  0.85120  0.15921  Biso   1.000  H
  H115     1.0000 0.06858  0.85122  0.15916  Biso   1.000  H
  C161     1.0000 0.23979  0.27577  0.14746  Biso   1.000  C
  C162     1.0000 0.11998  0.22647  0.25028  Biso   1.000  C
  H116     1.0000 0.05505  0.78759  0.07612  Biso   1.000  H
  H117     1.0000 0.18044  0.78565  0.05583  Biso   1.000  H
  H118     1.0000 0.05507  0.78761  0.07607  Biso   1.000  H
  H119     1.0000 0.18045  0.78573  0.05578  Biso   1.000  H
  N49      1.0000 0.86579  0.46020  0.82647  Biso   1.000  N
  N50      1.0000 0.86578  0.46027  0.82647  Biso   1.000  N
  N51      1.0000 0.86481  0.54418  0.90120  Biso   1.000  N
  N52      1.0000 0.86482  0.54427  0.90115  Biso   1.000  N
  C163     1.0000 0.26428  0.18235  0.15119  Biso   1.000  C
  C164     1.0000 0.26428  0.18244  0.15114  Biso   1.000  C
  H120     1.0000 0.27083  0.32289  0.11251  Biso   1.000  H
  H121     1.0000 0.27085  0.32291  0.11246  Biso   1.000  H
  C165     1.0000 0.14581  0.13413  0.25142  Biso   1.000  C
  C166     1.0000 0.14582  0.13422  0.25138  Biso   1.000  C
  H122     1.0000 0.07191  0.24147  0.28399  Biso   1.000  H
  C167     1.0000 0.87017  0.38237  0.87513  Biso   1.000  C
  C168     1.0000 0.87017  0.38246  0.87508  Biso   1.000  C
  C169     1.0000 0.86909  0.46109  0.94404  Biso   1.000  C
  C170     1.0000 0.86910  0.46111  0.94399  Biso   1.000  C
  O52      1.0000 0.33321  0.15658  0.10052  Biso   1.000  O
  C171     1.0000 0.21822  0.11144  0.20171  Biso   1.000  C
  C172     1.0000 0.21823  0.11153  0.20166  Biso   1.000  C
  H123     1.0000 0.11401  0.08677  0.28600  Biso   1.000  H
  O53      1.0000 0.87247  0.30438  0.85880  Biso   1.000  O
  N53      1.0000 0.87148  0.37784  0.93515  Biso   1.000  N
  N54      1.0000 0.87150  0.37786  0.93511  Biso   1.000  N
  O54      1.0000 0.87295  0.46655  0.00229  Biso   1.000  O
  O55      1.0000 0.87294  0.46661  0.00229  Biso   1.000  O
  C173     1.0000 0.43945  0.16666  0.09164  Biso   1.000  C
  C174     1.0000 0.43944  0.16673  0.09164  Biso   1.000  C
  H124     1.0000 0.23518  0.04937  0.20252  Biso   1.000  H
  H125     1.0000 0.23520  0.04939  0.20248  Biso   1.000  H
  C175     1.0000 0.87936  0.21716  0.90860  Biso   1.000  C
  C176     1.0000 0.87935  0.21723  0.90860  Biso   1.000  C
  C177     1.0000 0.84747  0.38776  0.05530  Biso   1.000  C
  C178     1.0000 0.84741  0.38778  0.05525  Biso   1.000  C
  N55      1.0000 0.49705  0.12959  0.04733  Biso   1.000  N
  N56      1.0000 0.49704  0.12965  0.04733  Biso   1.000  N
  N57      1.0000 0.47258  0.21058  0.12631  Biso   1.000  N
  N58      1.0000 0.47260  0.21060  0.12626  Biso   1.000  N
  C179     1.0000 0.87723  0.13938  0.87981  Biso   1.000  C
  C180     1.0000 0.87724  0.13946  0.87976  Biso   1.000  C
  H126     1.0000 0.81956  0.21422  0.94423  Biso   1.000  H
  H127     1.0000 0.94495  0.21228  0.92393  Biso   1.000  H
  H128     1.0000 0.94494  0.21235  0.92393  Biso   1.000  H
  C181     1.0000 0.74527  0.35645  0.07235  Biso   1.000  C
  C182     1.0000 0.74520  0.35654  0.07230  Biso   1.000  C
  C183     1.0000 0.92347  0.35138  0.09212  Biso   1.000  C
  C184     1.0000 0.60121  0.13738  0.04055  Biso   1.000  C
  C185     1.0000 0.60122  0.13740  0.04050  Biso   1.000  C
  C186     1.0000 0.57903  0.21164  0.11404  Biso   1.000  C
  C187     1.0000 0.57904  0.21173  0.11399  Biso   1.000  C
  O56      1.0000 0.77647  0.13360  0.86548  Biso   1.000  O
  O57      1.0000 0.77647  0.13368  0.86543  Biso   1.000  O
  H129     1.0000 0.89511  0.08057  0.90927  Biso   1.000  H
  H130     1.0000 0.93144  0.14867  0.84084  Biso   1.000  H
  H131     1.0000 0.89512  0.08065  0.90922  Biso   1.000  H
  H132     1.0000 0.93143  0.14874  0.84084  Biso   1.000  H
  C188     1.0000 0.72105  0.28464  0.12789  Biso   1.000  C
  C189     1.0000 0.72104  0.28471  0.12789  Biso   1.000  C
  H133     1.0000 0.69475  0.38270  0.04742  Biso   1.000  H
  H134     1.0000 0.69477  0.38272  0.04737  Biso   1.000  H
  C190     1.0000 0.89487  0.27968  0.14789  Biso   1.000  C
  C191     1.0000 0.89479  0.27968  0.14789  Biso   1.000  C
  H135     1.0000 0.99168  0.37405  0.07989  Biso   1.000  H
  H136     1.0000 0.99167  0.37411  0.07989  Biso   1.000  H
  O58      1.0000 0.66953  0.10500  0.99719  Biso   1.000  O
  N59      1.0000 0.64822  0.17608  0.07330  Biso   1.000  N
  N60      1.0000 0.64824  0.17610  0.07326  Biso   1.000  N
  O59      1.0000 0.61484  0.25573  0.14895  Biso   1.000  O
  O60      1.0000 0.61486  0.25575  0.14890  Biso   1.000  O
  C192     1.0000 0.71841  0.05359  0.90383  Biso   1.000  C
  C193     1.0000 0.71842  0.05361  0.90378  Biso   1.000  C
  C194     1.0000 0.79302  0.24578  0.16647  Biso   1.000  C
  C195     1.0000 0.79304  0.24580  0.16642  Biso   1.000  C
  H137     1.0000 0.94483  0.25383  0.17330  Biso   1.000  H
  H138     1.0000 0.94482  0.25390  0.17330  Biso   1.000  H
  C196     1.0000 0.62617  0.07600  0.95230  Biso   1.000  C
  H139     1.0000 0.69182  0.02660  0.87637  Biso   1.000  H
  H140     1.0000 0.76643  0.00718  0.92575  Biso   1.000  H
  H141     1.0000 0.69184  0.02662  0.87632  Biso   1.000  H
  H142     1.0000 0.76642  0.00725  0.92575  Biso   1.000  H
  H143     1.0000 0.77409  0.19805  0.20400  Biso   1.000  H
  H144     1.0000 0.77408  0.19812  0.20400  Biso   1.000  H
  H145     1.0000 0.58451  0.02136  0.97436  Biso   1.000  H
  H146     1.0000 0.58012  0.12566  0.93157  Biso   1.000  H
  H147     1.0000 0.58452  0.02145  0.97431  Biso   1.000  H
  H148     1.0000 0.58012  0.12574  0.93152  Biso   1.000  H
  O61      1.0000 0.19339  0.31748  0.72365  Biso   1.000  O
  C197     1.0000 0.20400  0.22116  0.72790  Biso   1.000  C
  C198     1.0000 0.08870  0.35964  0.72513  Biso   1.000  C
  C199     1.0000 0.24044  0.20227  0.66353  Biso   1.000  C
  H149     1.0000 0.13579  0.19344  0.74853  Biso   1.000  H
  H150     1.0000 0.25497  0.19096  0.75460  Biso   1.000  H
  C200     1.0000 0.08804  0.44336  0.66802  Biso   1.000  C
  H151     1.0000 0.06458  0.37868  0.76391  Biso   1.000  H
  H152     1.0000 0.03994  0.31494  0.72523  Biso   1.000  H
  O62      1.0000 0.35449  0.21379  0.64481  Biso   1.000  O
  H153     1.0000 0.22463  0.13924  0.66664  Biso   1.000  H
  H154     1.0000 0.20420  0.24585  0.63221  Biso   1.000  H
  O63      1.0000 0.10504  0.40520  0.61416  Biso   1.000  O
  H155     1.0000 0.02026  0.47874  0.67194  Biso   1.000  H
  H156     1.0000 0.14476  0.48398  0.66310  Biso   1.000  H
  C201     1.0000 0.40356  0.19994  0.58966  Biso   1.000  C
  C202     1.0000 0.11828  0.46256  0.55571  Biso   1.000  C
  N61      1.0000 0.51046  0.19689  0.58097  Biso   1.000  N
  N62      1.0000 0.34729  0.18867  0.54945  Biso   1.000  N
  N63      1.0000 0.12314  0.55385  0.54525  Biso   1.000  N
  N64      1.0000 0.12516  0.41823  0.51129  Biso   1.000  N
  C203     1.0000 0.55907  0.17878  0.52686  Biso   1.000  C
  C204     1.0000 0.40837  0.17129  0.49792  Biso   1.000  C
  C205     1.0000 0.13178  0.60156  0.48379  Biso   1.000  C
  C206     1.0000 0.13459  0.47489  0.45308  Biso   1.000  C
  O64      1.0000 0.66601  0.17627  0.51750  Biso   1.000  O
  N65      1.0000 0.51416  0.16393  0.48288  Biso   1.000  N
  O65      1.0000 0.36111  0.15579  0.45404  Biso   1.000  O
  O66      1.0000 0.13512  0.69423  0.47338  Biso   1.000  O
  N66      1.0000 0.13691  0.56818  0.43479  Biso   1.000  N
  O67      1.0000 0.14183  0.43839  0.40452  Biso   1.000  O
  C207     1.0000 0.72590  0.16536  0.45934  Biso   1.000  C
  C208     1.0000 0.26211  0.20146  0.44444  Biso   1.000  C
  C209     1.0000 0.13060  0.75351  0.41163  Biso   1.000  C
  C210     1.0000 0.15481  0.33988  0.41865  Biso   1.000  C
  C211     1.0000 0.77404  0.24326  0.41593  Biso   1.000  C
  C212     1.0000 0.74121  0.07869  0.44821  Biso   1.000  C
  C213     1.0000 0.18449  0.14987  0.43909  Biso   1.000  C
  C214     1.0000 0.24981  0.29690  0.43413  Biso   1.000  C
  C215     1.0000 0.22493  0.78390  0.37057  Biso   1.000  C
  C216     1.0000 0.03231  0.78228  0.39650  Biso   1.000  C
  C217     1.0000 0.07459  0.29187  0.41259  Biso   1.000  C
  C218     1.0000 0.83621  0.23224  0.35930  Biso   1.000  C
  H157     1.0000 0.76511  0.30083  0.42443  Biso   1.000  H
  C219     1.0000 0.80531  0.07024  0.39153  Biso   1.000  C
  H158     1.0000 0.70902  0.02688  0.47839  Biso   1.000  H
  H159     1.0000 0.19463  0.08560  0.44611  Biso   1.000  H
  C220     1.0000 0.09150  0.19590  0.42319  Biso   1.000  C
  H160     1.0000 0.30305  0.33090  0.43752  Biso   1.000  H
  C221     1.0000 0.21856  0.84358  0.31121  Biso   1.000  C
  H161     1.0000 0.29040  0.76491  0.38250  Biso   1.000  H
  C222     1.0000 0.02982  0.84420  0.33642  Biso   1.000  C
  H162     1.0000 0.96983  0.76115  0.42520  Biso   1.000  H
  H163     1.0000 0.01162  0.32250  0.40180  Biso   1.000  H
  O68      1.0000 0.88760  0.31047  0.31465  Biso   1.000  O
  C223     1.0000 0.85333  0.14749  0.34650  Biso   1.000  C
  H164     1.0000 0.81627  0.01227  0.38351  Biso   1.000  H
  H165     1.0000 0.03866  0.16180  0.41942  Biso   1.000  H
  O69      1.0000 0.31244  0.87874  0.26790  Biso   1.000  O
  C224     1.0000 0.12211  0.87449  0.29306  Biso   1.000  C
  H166     1.0000 0.96424  0.86567  0.32530  Biso   1.000  H
  C225     1.0000 0.82974  0.36830  0.27363  Biso   1.000  C
  H167     1.0000 0.89623  0.14200  0.30830  Biso   1.000  H
  C226     1.0000 0.37682  0.81851  0.24001  Biso   1.000  C
  H168     1.0000 0.11954  0.91469  0.25271  Biso   1.000  H
  N67      1.0000 0.72960  0.34801  0.27955  Biso   1.000  N
  N68      1.0000 0.88266  0.43999  0.23242  Biso   1.000  N
  N69      1.0000 0.34502  0.73250  0.25338  Biso   1.000  N
  N70      1.0000 0.46548  0.85529  0.20209  Biso   1.000  N
  C227     1.0000 0.68122  0.40875  0.23619  Biso   1.000  C
  C228     1.0000 0.82180  0.49460  0.19302  Biso   1.000  C
  C229     1.0000 0.41426  0.68099  0.22244  Biso   1.000  C
  C230     1.0000 0.52726  0.79426  0.17516  Biso   1.000  C
  O70      1.0000 0.58125  0.39538  0.23600  Biso   1.000  O
  N71      1.0000 0.72215  0.48428  0.19159  Biso   1.000  N
  O71      1.0000 0.87573  0.56738  0.14985  Biso   1.000  O
  O72      1.0000 0.39335  0.59366  0.23031  Biso   1.000  O
  N72      1.0000 0.50645  0.70670  0.18247  Biso   1.000  N
  O73      1.0000 0.61745  0.82964  0.13657  Biso   1.000  O
  C231     1.0000 0.53118  0.31408  0.28365  Biso   1.000  C
  C232     1.0000 0.81977  0.64377  0.11470  Biso   1.000  C
  C233     1.0000 0.29142  0.55947  0.26990  Biso   1.000  C
  C234     1.0000 0.69400  0.77146  0.10845  Biso   1.000  C
  C235     1.0000 0.41533  0.32718  0.28131  Biso   1.000  C
  H169     1.0000 0.54138  0.31094  0.32582  Biso   1.000  H
  H170     1.0000 0.56139  0.25695  0.27363  Biso   1.000  H
  C236     1.0000 0.85523  0.67082  0.04933  Biso   1.000  C
  C237     1.0000 0.73993  0.69311  0.14589  Biso   1.000  C
  C238     1.0000 0.29323  0.46031  0.26847  Biso   1.000  C
  H171     1.0000 0.23236  0.59601  0.25252  Biso   1.000  H
  H172     1.0000 0.28490  0.56234  0.31321  Biso   1.000  H
  C239     1.0000 0.72607  0.80082  0.04283  Biso   1.000  C
  O74      1.0000 0.37401  0.40852  0.30051  Biso   1.000  O
  H173     1.0000 0.40606  0.33469  0.23829  Biso   1.000  H
  H174     1.0000 0.37760  0.27299  0.30982  Biso   1.000  H
  C240     1.0000 0.80727  0.75050  0.01385  Biso   1.000  C
  H175     1.0000 0.90957  0.63670  0.02961  Biso   1.000  H
  H176     1.0000 0.71815  0.67438  0.19011  Biso   1.000  H
  H177     1.0000 0.22430  0.43410  0.28962  Biso   1.000  H
  H178     1.0000 0.30819  0.45768  0.22473  Biso   1.000  H
  H179     1.0000 0.69357  0.85348  0.01862  Biso   1.000  H
  H180     1.0000 0.83038  0.77020  0.96987  Biso   1.000  H
