data_image0
_cell_length_a       16.258
_cell_length_b       17.396
_cell_length_c       18.309
_cell_angle_alpha    94.65
_cell_angle_beta     116.97
_cell_angle_gamma    113.84

_symmetry_space_group_name_H-M    "P 1"
_symmetry_int_tables_number       1

loop_
  _symmetry_equiv_pos_as_xyz
  'x, y, z'

loop_
  _atom_site_label
  _atom_site_occupancy
  _atom_site_fract_x
  _atom_site_fract_y
  _atom_site_fract_z
  _atom_site_thermal_displace_type
  _atom_site_B_iso_or_equiv
  _atom_site_type_symbol
  C1       1.0000 0.62521  0.25080  0.70213  Biso   1.000  C
  C2       1.0000 0.52409  0.20189  0.70019  Biso   1.000  C
  N1       1.0000 0.69261  0.20933  0.73012  Biso   1.000  N
  H1       1.0000 0.60701  0.25198  0.64201  Biso   1.000  H
  H2       1.0000 0.66699  0.31301  0.74197  Biso   1.000  H
  N2       1.0000 0.45447  0.11028  0.63411  Biso   1.000  N
  H3       1.0000 0.48503  0.23601  0.68600  Biso   1.000  H
  H4       1.0000 0.54100  0.19600  0.75901  Biso   1.000  H
  C3       1.0000 0.77302  0.24291  0.70751  Biso   1.000  C
  C4       1.0000 0.73575  0.21083  0.82043  Biso   1.000  C
  C5       1.0000 0.35600  0.05531  0.63417  Biso   1.000  C
  H5       1.0000 0.49599  0.07899  0.64700  Biso   1.000  H
  H6       1.0000 0.43305  0.11702  0.57503  Biso   1.000  H
  C6       1.0000 0.82080  0.18282  0.71068  Biso   1.000  C
  H7       1.0000 0.83198  0.30396  0.74897  Biso   1.000  H
  H8       1.0000 0.74000  0.24698  0.64700  Biso   1.000  H
  C7       1.0000 0.81664  0.30222  0.88962  Biso   1.000  C
  H9       1.0000 0.76998  0.17298  0.83002  Biso   1.000  H
  H10      1.0000 0.67501  0.18401  0.82898  Biso   1.000  H
  C8       1.0000 0.37308  0.03729  0.71852  Biso   1.000  C
  H11      1.0000 0.31397  0.08597  0.61999  Biso   1.000  H
  H12      1.0000 0.31402  0.99701  0.58701  Biso   1.000  H
  N3       1.0000 0.73600  0.09179  0.64881  Biso   1.000  N
  H13      1.0000 0.85598  0.17999  0.77003  Biso   1.000  H
  H14      1.0000 0.87501  0.20799  0.69397  Biso   1.000  H
  N4       1.0000 0.83671  0.29950  0.97649  Biso   1.000  N
  H15      1.0000 0.78999  0.34501  0.87297  Biso   1.000  H
  H16      1.0000 0.88603  0.32401  0.89201  Biso   1.000  H
  H17      1.0000 0.41002  0.09503  0.76400  Biso   1.000  H
  C9       1.0000 0.43917  0.99287  0.74729  Biso   1.000  C
  H18      1.0000 0.30201  0.99799  0.70900  Biso   1.000  H
  C10      1.0000 0.76479  0.02158  0.66372  Biso   1.000  C
  H19      1.0000 0.71700  0.09302  0.58902  Biso   1.000  H
  H20      1.0000 0.67301  0.07598  0.65400  Biso   1.000  H
  H21      1.0000 0.76699  0.27099  0.97202  Biso   1.000  H
  C11      1.0000 0.89294  0.24912  0.01303  Biso   1.000  C
  H22      1.0000 0.88097  0.36199  0.01698  Biso   1.000  H
  H23      1.0000 0.51299  0.03602  0.76400  Biso   1.000  H
  N5       1.0000 0.44214  0.96352  0.82192  Biso   1.000  N
  H24      1.0000 0.40901  0.93996  0.69799  Biso   1.000  H
  C12      1.0000 0.76416  0.00029  0.74217  Biso   1.000  C
  H25      1.0000 0.83798  0.04298  0.67402  Biso   1.000  H
  H26      1.0000 0.71299  0.96699  0.61202  Biso   1.000  H
  H27      1.0000 0.84397  0.18498  0.97701  Biso   1.000  H
  C13      1.0000 0.92379  0.25907  0.10548  Biso   1.000  C
  H28      1.0000 0.95798  0.27199  0.00999  Biso   1.000  H
  H29      1.0000 0.47198  0.01797  0.86999  Biso   1.000  H
  C14      1.0000 0.50757  0.91951  0.85567  Biso   1.000  C
  H30      1.0000 0.36804  0.92103  0.80300  Biso   1.000  H
  H31      1.0000 0.81699  0.05598  0.79400  Biso   1.000  H
  C15      1.0000 0.79286  0.92819  0.76368  Biso   1.000  C
  H32      1.0000 0.69200  0.98000  0.73200  Biso   1.000  H
  C16      1.0000 0.97569  0.20459  0.14351  Biso   1.000  C
  H33      1.0000 0.85797  0.23899  0.10898  Biso   1.000  H
  H34      1.0000 0.97502  0.32300  0.14202  Biso   1.000  H
  C17      1.0000 0.62483  0.98373  0.88683  Biso   1.000  C
  H35      1.0000 0.48001  0.86500  0.80799  Biso   1.000  H
  H36      1.0000 0.50395  0.90197  0.90497  Biso   1.000  H
  N6       1.0000 0.78619  0.91251  0.84012  Biso   1.000  N
  H37      1.0000 0.86599  0.94797  0.77799  Biso   1.000  H
  H38      1.0000 0.74201  0.87200  0.71302  Biso   1.000  H
  N7       1.0000 0.90292  0.10548  0.09531  Biso   1.000  N
  H39      1.0000 0.99699  0.21501  0.20602  Biso   1.000  H
  H40      1.0000 0.04097  0.22399  0.14098  Biso   1.000  H
  H41      1.0000 0.64599  0.04297  0.92097  Biso   1.000  H
  N8       1.0000 0.70249  0.95731  0.94119  Biso   1.000  N
  H42      1.0000 0.62999  0.99898  0.83500  Biso   1.000  H
  C18      1.0000 0.67670  0.85638  0.82140  Biso   1.000  C
  H43      1.0000 0.81802  0.97102  0.88301  Biso   1.000  H
  H44      1.0000 0.82800  0.88299  0.86701  Biso   1.000  H
  C19      1.0000 0.79538  0.06951  0.08429  Biso   1.000  C
  H45      1.0000 0.93800  0.07400  0.12802  Biso   1.000  H
  H46      1.0000 0.89198  0.09401  0.03700  Biso   1.000  H
  C20      1.0000 0.67243  0.86653  0.90141  Biso   1.000  C
  C21      1.0000 0.72610  0.97277  0.03188  Biso   1.000  C
  H47      1.0000 0.65195  0.79298  0.79497  Biso   1.000  H
  H48      1.0000 0.62800  0.87403  0.77903  Biso   1.000  H
  H49      1.0000 0.76097  0.10298  0.05398  Biso   1.000  H
  H50      1.0000 0.80399  0.07602  0.14202  Biso   1.000  H
  H51      1.0000 0.72197  0.85002  0.94397  Biso   1.000  H
  H52      1.0000 0.59801  0.82501  0.88599  Biso   1.000  H
  H53      1.0000 0.65798  0.94999  0.02897  Biso   1.000  H
  H54      1.0000 0.76301  0.94001  0.06000  Biso   1.000  H
  C22      1.0000 0.37479  0.74922  0.29788  Biso   1.000  C
  C23      1.0000 0.47591  0.79813  0.29982  Biso   1.000  C
  N9       1.0000 0.30739  0.79069  0.26989  Biso   1.000  N
  H55      1.0000 0.39296  0.74797  0.35800  Biso   1.000  H
  H56      1.0000 0.33297  0.68699  0.25797  Biso   1.000  H
  N10      1.0000 0.54550  0.88968  0.36590  Biso   1.000  N
  H57      1.0000 0.51503  0.76401  0.31401  Biso   1.000  H
  H58      1.0000 0.45900  0.80402  0.24100  Biso   1.000  H
  C24      1.0000 0.22698  0.75711  0.29250  Biso   1.000  C
  C25      1.0000 0.26431  0.78919  0.17958  Biso   1.000  C
  C26      1.0000 0.64396  0.94469  0.36577  Biso   1.000  C
  H59      1.0000 0.50401  0.92103  0.35301  Biso   1.000  H
  H60      1.0000 0.56701  0.88300  0.42498  Biso   1.000  H
  C27      1.0000 0.17919  0.81720  0.28933  Biso   1.000  C
  H61      1.0000 0.16795  0.69597  0.25097  Biso   1.000  H
  H62      1.0000 0.25997  0.75297  0.35301  Biso   1.000  H
  C28      1.0000 0.18342  0.69780  0.11039  Biso   1.000  C
  H63      1.0000 0.22999  0.82697  0.16999  Biso   1.000  H
  H64      1.0000 0.32499  0.81601  0.17103  Biso   1.000  H
  C29      1.0000 0.62692  0.96273  0.28149  Biso   1.000  C
  H65      1.0000 0.68600  0.91398  0.38002  Biso   1.000  H
  H66      1.0000 0.68598  0.00301  0.41300  Biso   1.000  H
  N11      1.0000 0.26397  0.90817  0.35120  Biso   1.000  N
  H67      1.0000 0.14399  0.81997  0.22998  Biso   1.000  H
  H68      1.0000 0.12501  0.79201  0.30598  Biso   1.000  H
  N12      1.0000 0.16329  0.70052  0.02352  Biso   1.000  N
  H69      1.0000 0.20997  0.65499  0.12698  Biso   1.000  H
  H70      1.0000 0.11403  0.67601  0.10800  Biso   1.000  H
  H71      1.0000 0.58998  0.90499  0.23601  Biso   1.000  H
  C30      1.0000 0.56080  0.00708  0.25272  Biso   1.000  C
  H72      1.0000 0.69799  0.00203  0.29101  Biso   1.000  H
  C31      1.0000 0.23518  0.97838  0.33630  Biso   1.000  C
  H73      1.0000 0.28300  0.90700  0.41099  Biso   1.000  H
  H74      1.0000 0.32703  0.92398  0.34601  Biso   1.000  H
  H75      1.0000 0.23299  0.72897  0.02799  Biso   1.000  H
  C32      1.0000 0.10706  0.75090  0.98698  Biso   1.000  C
  H76      1.0000 0.11903  0.63803  0.98303  Biso   1.000  H
  H77      1.0000 0.48701  0.96400  0.23601  Biso   1.000  H
  N13      1.0000 0.55792  0.03650  0.17809  Biso   1.000  N
  H78      1.0000 0.59102  0.05999  0.30202  Biso   1.000  H
  C33      1.0000 0.23580  0.99971  0.25778  Biso   1.000  C
  H79      1.0000 0.16199  0.95698  0.32599  Biso   1.000  H
  H80      1.0000 0.28701  0.03303  0.38799  Biso   1.000  H
  H81      1.0000 0.15600  0.81498  0.02300  Biso   1.000  H
  C34      1.0000 0.07618  0.74089  0.89453  Biso   1.000  C
  H82      1.0000 0.04201  0.72803  0.99002  Biso   1.000  H
  H83      1.0000 0.52800  0.98198  0.13002  Biso   1.000  H
  C35      1.0000 0.49238  0.08049  0.14427  Biso   1.000  C
  H84      1.0000 0.63202  0.07899  0.19701  Biso   1.000  H
  H85      1.0000 0.18301  0.94403  0.20601  Biso   1.000  H
  C36      1.0000 0.20710  0.07181  0.23627  Biso   1.000  C
  H86      1.0000 0.30800  0.02002  0.26801  Biso   1.000  H
  C37      1.0000 0.02431  0.79543  0.85650  Biso   1.000  C
  H87      1.0000 0.14199  0.76101  0.89097  Biso   1.000  H
  H88      1.0000 0.02498  0.67702  0.85799  Biso   1.000  H
  C38      1.0000 0.37517  0.01629  0.11318  Biso   1.000  C
  H89      1.0000 0.51999  0.13502  0.19202  Biso   1.000  H
  H90      1.0000 0.49598  0.09797  0.09497  Biso   1.000  H
  N14      1.0000 0.21381  0.08751  0.15989  Biso   1.000  N
  H91      1.0000 0.13398  0.05198  0.22202  Biso   1.000  H
  H92      1.0000 0.25799  0.12802  0.28699  Biso   1.000  H
  H93      1.0000 0.95903  0.77603  0.85903  Biso   1.000  H
  N15      1.0000 0.09712  0.89448  0.90470  Biso   1.000  N
  H94      1.0000 0.00301  0.78500  0.79399  Biso   1.000  H
  H95      1.0000 0.35400  0.95696  0.07897  Biso   1.000  H
  N16      1.0000 0.29751  0.04271  0.05882  Biso   1.000  N
  H96      1.0000 0.36998  0.00097  0.16501  Biso   1.000  H
  C39      1.0000 0.32330  0.14363  0.17861  Biso   1.000  C
  H97      1.0000 0.18198  0.02900  0.11700  Biso   1.000  H
  H98      1.0000 0.17200  0.11703  0.13300  Biso   1.000  H
  C40      1.0000 0.20462  0.93051  0.91572  Biso   1.000  C
  H99      1.0000 0.06200  0.92602  0.87199  Biso   1.000  H
  H100     1.0000 0.10802  0.90601  0.96301  Biso   1.000  H
  C41      1.0000 0.27394  0.02719  0.96813  Biso   1.000  C
  C42      1.0000 0.32762  0.13349  0.09860  Biso   1.000  C
  H101     1.0000 0.34800  0.20702  0.20498  Biso   1.000  H
  H102     1.0000 0.37200  0.12599  0.22098  Biso   1.000  H
  H103     1.0000 0.23899  0.89702  0.94597  Biso   1.000  H
  H104     1.0000 0.19601  0.92400  0.85799  Biso   1.000  H
  H105     1.0000 0.34197  0.05001  0.97098  Biso   1.000  H
  H106     1.0000 0.23699  0.06001  0.94001  Biso   1.000  H
  H107     1.0000 0.27799  0.14998  0.05597  Biso   1.000  H
  H108     1.0000 0.40198  0.17501  0.11402  Biso   1.000  H
  Ne1      1.0000 0.69420  0.08472  0.83899  Biso   1.000  Ne
  He1      1.0000 0.75954  0.09725  0.88342  Biso   1.000  He
  He2      1.0000 0.69939  0.06335  0.79888  Biso   1.000  He
  He3      1.0000 0.70314  0.06388  0.80230  Biso   1.000  He
  Ar1      1.0000 0.70007  0.08823  0.84022  Biso   1.000  Ar
  Ne2      1.0000 0.30580  0.91528  0.16101  Biso   1.000  Ne
  He4      1.0000 0.27802  0.93324  0.18019  Biso   1.000  He
  He5      1.0000 0.23870  0.90375  0.11675  Biso   1.000  He
  He6      1.0000 0.26638  0.88603  0.10874  Biso   1.000  He
  Ar2      1.0000 0.27800  0.90542  0.14065  Biso   1.000  Ar
