data_image0
_cell_length_a       12.43
_cell_length_b       14.388
_cell_length_c       15.842
_cell_angle_alpha    95.35
_cell_angle_beta     90.6
_cell_angle_gamma    108.36

_symmetry_space_group_name_H-M    "P 1"
_symmetry_int_tables_number       1

loop_
  _symmetry_equiv_pos_as_xyz
  'x, y, z'

loop_
  _atom_site_label
  _atom_site_occupancy
  _atom_site_fract_x
  _atom_site_fract_y
  _atom_site_fract_z
  _atom_site_thermal_displace_type
  _atom_site_B_iso_or_equiv
  _atom_site_type_symbol
  C1       1.0000 0.60160  0.65195  0.50752  Biso   1.000  C
  C2       1.0000 0.68450  0.62163  0.45289  Biso   1.000  C
  O1       1.0000 0.53601  0.69279  0.45701  Biso   1.000  O
  H1       1.0000 0.64249  0.70128  0.55441  Biso   1.000  H
  H2       1.0000 0.55122  0.59406  0.53259  Biso   1.000  H
  O2       1.0000 0.62593  0.53856  0.39489  Biso   1.000  O
  H3       1.0000 0.73977  0.60464  0.48886  Biso   1.000  H
  H4       1.0000 0.72675  0.67689  0.42097  Biso   1.000  H
  C3       1.0000 0.48258  0.75324  0.50511  Biso   1.000  C
  C4       1.0000 0.69065  0.52785  0.32280  Biso   1.000  C
  C5       1.0000 0.38146  0.69769  0.55251  Biso   1.000  C
  H5       1.0000 0.53934  0.79906  0.54648  Biso   1.000  H
  H6       1.0000 0.45774  0.79332  0.46621  Biso   1.000  H
  C6       1.0000 0.67177  0.58713  0.25420  Biso   1.000  C
  H7       1.0000 0.77224  0.54975  0.34019  Biso   1.000  H
  H8       1.0000 0.66858  0.45755  0.30046  Biso   1.000  H
  O3       1.0000 0.29066  0.63043  0.49889  Biso   1.000  O
  H9       1.0000 0.35200  0.74586  0.58532  Biso   1.000  H
  H10      1.0000 0.40693  0.66035  0.59357  Biso   1.000  H
  O4       1.0000 0.56129  0.53533  0.21550  Biso   1.000  O
  H11      1.0000 0.73071  0.59346  0.21169  Biso   1.000  H
  H12      1.0000 0.67495  0.65388  0.27870  Biso   1.000  H
  C7       1.0000 0.22197  0.66786  0.45428  Biso   1.000  C
  C8       1.0000 0.52317  0.57846  0.15344  Biso   1.000  C
  C9       1.0000 0.12624  0.59681  0.41196  Biso   1.000  C
  C10      1.0000 0.23982  0.76673  0.44692  Biso   1.000  C
  C11      1.0000 0.42619  0.51765  0.10540  Biso   1.000  C
  C12      1.0000 0.57182  0.67498  0.13668  Biso   1.000  C
  O5       1.0000 0.11505  0.50111  0.42255  Biso   1.000  O
  C13      1.0000 0.05243  0.62675  0.36348  Biso   1.000  C
  H13      1.0000 0.30192  0.81501  0.47751  Biso   1.000  H
  C14      1.0000 0.16754  0.79634  0.39501  Biso   1.000  C
  O6       1.0000 0.38168  0.42451  0.12907  Biso   1.000  O
  C15      1.0000 0.38193  0.55463  0.04087  Biso   1.000  C
  C16      1.0000 0.52420  0.71286  0.07291  Biso   1.000  C
  H14      1.0000 0.63764  0.71579  0.16848  Biso   1.000  H
  C17      1.0000 0.01288  0.42755  0.38816  Biso   1.000  C
  C18      1.0000 0.07406  0.72634  0.35415  Biso   1.000  C
  H15      1.0000 0.98687  0.57941  0.33651  Biso   1.000  H
  C19      1.0000 0.19213  0.90339  0.38562  Biso   1.000  C
  C20      1.0000 0.29201  0.35639  0.07558  Biso   1.000  C
  H16      1.0000 0.31814  0.51331  0.00717  Biso   1.000  H
  C21      1.0000 0.43060  0.65230  0.02513  Biso   1.000  C
  C22      1.0000 0.57721  0.81721  0.05495  Biso   1.000  C
  C23      1.0000 0.02175  0.32866  0.40339  Biso   1.000  C
  H17      1.0000 0.00384  0.43171  0.32661  Biso   1.000  H
  H18      1.0000 0.94610  0.43775  0.41627  Biso   1.000  H
  H19      1.0000 0.02411  0.74619  0.31937  Biso   1.000  H
  O7       1.0000 0.28165  0.93384  0.32401  Biso   1.000  O
  H20      1.0000 0.21747  0.94239  0.44121  Biso   1.000  H
  H21      1.0000 0.12249  0.91545  0.36557  Biso   1.000  H
  C24      1.0000 0.25009  0.26347  0.11784  Biso   1.000  C
  H22      1.0000 0.22963  0.38418  0.06777  Biso   1.000  H
  H23      1.0000 0.32049  0.34279  0.01923  Biso   1.000  H
  H24      1.0000 0.39911  0.67742  0.98109  Biso   1.000  H
  O8       1.0000 0.52883  0.88040  0.11067  Biso   1.000  O
  H25      1.0000 0.66037  0.83728  0.06549  Biso   1.000  H
  H26      1.0000 0.56186  0.82387  0.99467  Biso   1.000  H
  O9       1.0000 0.10365  0.30477  0.35053  Biso   1.000  O
  H27      1.0000 0.04399  0.32940  0.46367  Biso   1.000  H
  H28      1.0000 0.94687  0.27774  0.39140  Biso   1.000  H
  C25      1.0000 0.31721  0.03082  0.32109  Biso   1.000  C
  O10      1.0000 0.17720  0.27788  0.18225  Biso   1.000  O
  H29      1.0000 0.31481  0.24767  0.14278  Biso   1.000  H
  H30      1.0000 0.20839  0.20799  0.07589  Biso   1.000  H
  C26      1.0000 0.56422  0.97386  0.09474  Biso   1.000  C
  C27      1.0000 0.05702  0.21845  0.29418  Biso   1.000  C
  O11      1.0000 0.28238  0.08772  0.36455  Biso   1.000  O
  C28      1.0000 0.40646  0.06698  0.25769  Biso   1.000  C
  C29      1.0000 0.14713  0.20242  0.23777  Biso   1.000  C
  O12      1.0000 0.62710  0.00428  0.03909  Biso   1.000  O
  C30      1.0000 0.52090  0.04133  0.15331  Biso   1.000  C
  H31      1.0000 0.02657  0.16109  0.32693  Biso   1.000  H
  H32      1.0000 0.99389  0.22509  0.25922  Biso   1.000  H
  N1       1.0000 0.44111  0.00277  0.20756  Biso   1.000  N
  C31      1.0000 0.44880  0.16883  0.25573  Biso   1.000  C
  H33      1.0000 0.11839  0.13719  0.20439  Biso   1.000  H
  H34      1.0000 0.21449  0.20432  0.27248  Biso   1.000  H
  C32      1.0000 0.56757  0.14155  0.14677  Biso   1.000  C
  C33      1.0000 0.53102  0.20641  0.19938  Biso   1.000  C
  H35      1.0000 0.42137  0.21141  0.29260  Biso   1.000  H
  H36      1.0000 0.62362  0.16501  0.10667  Biso   1.000  H
  H37      1.0000 0.56193  0.27540  0.19690  Biso   1.000  H
  O13      1.0000 0.37414  0.46143  0.60512  Biso   1.000  O
  C34      1.0000 0.31546  0.37828  0.54712  Biso   1.000  C
  C35      1.0000 0.30939  0.47206  0.67720  Biso   1.000  C
  C36      1.0000 0.39847  0.34802  0.49242  Biso   1.000  C
  H38      1.0000 0.26019  0.39526  0.51107  Biso   1.000  H
  H39      1.0000 0.27331  0.32309  0.57897  Biso   1.000  H
  C37      1.0000 0.32827  0.41277  0.74573  Biso   1.000  C
  H40      1.0000 0.22780  0.45016  0.65982  Biso   1.000  H
  H41      1.0000 0.33145  0.54235  0.69947  Biso   1.000  H
  O14      1.0000 0.46406  0.30720  0.54299  Biso   1.000  O
  H42      1.0000 0.35750  0.29871  0.44559  Biso   1.000  H
  H43      1.0000 0.44882  0.40585  0.46742  Biso   1.000  H
  O15      1.0000 0.43867  0.46458  0.78451  Biso   1.000  O
  H44      1.0000 0.26933  0.40645  0.78831  Biso   1.000  H
  H45      1.0000 0.32509  0.34603  0.72130  Biso   1.000  H
  C38      1.0000 0.51749  0.24675  0.49489  Biso   1.000  C
  C39      1.0000 0.47687  0.42145  0.84657  Biso   1.000  C
  H46      1.0000 0.46070  0.20085  0.45352  Biso   1.000  H
  H47      1.0000 0.54233  0.20667  0.53379  Biso   1.000  H
  C40      1.0000 0.61849  0.30222  0.44743  Biso   1.000  C
  C41      1.0000 0.42822  0.32493  0.86332  Biso   1.000  C
  C42      1.0000 0.57380  0.48233  0.89460  Biso   1.000  C
  O16      1.0000 0.70938  0.36947  0.50105  Biso   1.000  O
  H48      1.0000 0.64796  0.25405  0.41468  Biso   1.000  H
  H49      1.0000 0.59310  0.33955  0.40637  Biso   1.000  H
  C43      1.0000 0.47584  0.28705  0.92709  Biso   1.000  C
  H50      1.0000 0.36239  0.28412  0.83146  Biso   1.000  H
  O17      1.0000 0.61839  0.57547  0.87093  Biso   1.000  O
  C44      1.0000 0.61805  0.44534  0.95907  Biso   1.000  C
  C45      1.0000 0.77809  0.33212  0.54566  Biso   1.000  C
  C46      1.0000 0.42286  0.18277  0.94505  Biso   1.000  C
  C47      1.0000 0.56936  0.34762  0.97487  Biso   1.000  C
  C48      1.0000 0.70805  0.64358  0.92436  Biso   1.000  C
  H51      1.0000 0.68189  0.48659  0.99277  Biso   1.000  H
  C49      1.0000 0.76014  0.23317  0.55302  Biso   1.000  C
  C50      1.0000 0.87375  0.40317  0.58805  Biso   1.000  C
  O18      1.0000 0.47113  0.11951  0.88927  Biso   1.000  O
  H52      1.0000 0.33967  0.16263  0.93445  Biso   1.000  H
  H53      1.0000 0.43821  0.17611  0.00527  Biso   1.000  H
  H54      1.0000 0.60093  0.32249  0.01885  Biso   1.000  H
  C51      1.0000 0.74995  0.73644  0.88216  Biso   1.000  C
  H55      1.0000 0.77040  0.61572  0.93217  Biso   1.000  H
  H56      1.0000 0.67947  0.65712  0.98078  Biso   1.000  H
  H57      1.0000 0.69807  0.18497  0.52250  Biso   1.000  H
  C52      1.0000 0.83250  0.20357  0.60499  Biso   1.000  C
  O19      1.0000 0.88493  0.49887  0.57739  Biso   1.000  O
  C53      1.0000 0.94753  0.37316  0.63653  Biso   1.000  C
  C54      1.0000 0.43574  0.02605  0.90526  Biso   1.000  C
  O20      1.0000 0.82284  0.72203  0.81776  Biso   1.000  O
  H58      1.0000 0.68522  0.75223  0.85716  Biso   1.000  H
  H59      1.0000 0.79158  0.79192  0.92411  Biso   1.000  H
  C55      1.0000 0.92601  0.27364  0.64585  Biso   1.000  C
  C56      1.0000 0.80786  0.09659  0.61438  Biso   1.000  C
  C57      1.0000 0.98719  0.57243  0.61178  Biso   1.000  C
  H60      1.0000 0.01320  0.42057  0.66350  Biso   1.000  H
  O21      1.0000 0.37294  0.99563  0.96085  Biso   1.000  O
  C58      1.0000 0.47917  0.95865  0.84669  Biso   1.000  C
  C59      1.0000 0.85291  0.79749  0.76223  Biso   1.000  C
  H61      1.0000 0.97584  0.25372  0.68057  Biso   1.000  H
  O22      1.0000 0.71842  0.06615  0.67600  Biso   1.000  O
  H62      1.0000 0.78260  0.05759  0.55879  Biso   1.000  H
  H63      1.0000 0.87755  0.08445  0.63437  Biso   1.000  H
  H64      1.0000 0.99623  0.56827  0.67339  Biso   1.000  H
  C60      1.0000 0.97829  0.67125  0.59661  Biso   1.000  C
  H65      1.0000 0.05386  0.56215  0.58367  Biso   1.000  H
  N2       1.0000 0.55896  0.99721  0.79244  Biso   1.000  N
  C61      1.0000 0.43247  0.85836  0.85323  Biso   1.000  C
  C62      1.0000 0.94296  0.78154  0.70582  Biso   1.000  C
  H66      1.0000 0.88165  0.86273  0.79561  Biso   1.000  H
  H67      1.0000 0.78549  0.79566  0.72746  Biso   1.000  H
  C63      1.0000 0.68278  0.96917  0.67892  Biso   1.000  C
  O23      1.0000 0.89639  0.69514  0.64947  Biso   1.000  O
  H68      1.0000 0.95600  0.67058  0.53627  Biso   1.000  H
  H69      1.0000 0.05309  0.72217  0.60861  Biso   1.000  H
  C64      1.0000 0.59352  0.93300  0.74224  Biso   1.000  C
  C65      1.0000 0.46897  0.79356  0.80056  Biso   1.000  C
  H70      1.0000 0.37642  0.83490  0.89327  Biso   1.000  H
  H71      1.0000 0.97341  0.83889  0.67308  Biso   1.000  H
  H72      1.0000 0.00615  0.77482  0.74078  Biso   1.000  H
  O24      1.0000 0.71766  0.91219  0.63545  Biso   1.000  O
  C66      1.0000 0.55119  0.83115  0.74427  Biso   1.000  C
  H73      1.0000 0.43811  0.72452  0.80310  Biso   1.000  H
  H74      1.0000 0.57859  0.78850  0.70741  Biso   1.000  H
