data_image0
_cell_length_a       15.064
_cell_length_b       14.774
_cell_length_c       28.961
_cell_angle_alpha    90
_cell_angle_beta     101.09
_cell_angle_gamma    90

_symmetry_space_group_name_H-M    "P 1"
_symmetry_int_tables_number       1

loop_
  _symmetry_equiv_pos_as_xyz
  'x, y, z'

loop_
  _atom_site_label
  _atom_site_occupancy
  _atom_site_fract_x
  _atom_site_fract_y
  _atom_site_fract_z
  _atom_site_thermal_displace_type
  _atom_site_B_iso_or_equiv
  _atom_site_type_symbol
  C1       1.0000 0.59693  0.42758  0.61449  Biso   1.000  C
  S1       1.0000 0.67258  0.52288  0.61280  Biso   1.000  S
  C2       1.0000 0.62602  0.34953  0.64901  Biso   1.000  C
  H1       1.0000 0.58447  0.40077  0.58223  Biso   1.000  H
  H2       1.0000 0.53966  0.45289  0.62192  Biso   1.000  H
  S2       1.0000 0.56157  0.52802  0.64310  Biso   1.000  S
  H3       1.0000 0.54530  0.40686  0.58976  Biso   1.000  H
  H4       1.0000 0.64922  0.44429  0.59954  Biso   1.000  H
  C3       1.0000 0.66241  0.59029  0.66249  Biso   1.000  C
  H5       1.0000 0.69443  0.58413  0.63546  Biso   1.000  H
  C4       1.0000 0.68601  0.28503  0.63800  Biso   1.000  C
  C5       1.0000 0.59273  0.34202  0.68930  Biso   1.000  C
  H6       1.0000 0.60652  0.57026  0.67346  Biso   1.000  H
  C6       1.0000 0.73931  0.58799  0.70439  Biso   1.000  C
  H7       1.0000 0.65515  0.65466  0.65165  Biso   1.000  H
  H8       1.0000 0.63946  0.65365  0.66361  Biso   1.000  H
  C7       1.0000 0.71016  0.21199  0.66759  Biso   1.000  C
  H9       1.0000 0.71183  0.29166  0.60890  Biso   1.000  H
  C8       1.0000 0.61601  0.26797  0.71850  Biso   1.000  C
  H10      1.0000 0.55149  0.38933  0.69788  Biso   1.000  H
  C9       1.0000 0.75402  0.66502  0.73071  Biso   1.000  C
  C10      1.0000 0.79497  0.51503  0.71579  Biso   1.000  C
  C11      1.0000 0.67401  0.20198  0.70661  Biso   1.000  C
  C12      1.0000 0.77528  0.13991  0.65591  Biso   1.000  C
  C13      1.0000 0.58198  0.25897  0.76308  Biso   1.000  C
  C14      1.0000 0.82298  0.66800  0.76980  Biso   1.000  C
  H11      1.0000 0.71423  0.71883  0.72185  Biso   1.000  H
  C15      1.0000 0.86400  0.51800  0.75471  Biso   1.000  C
  H12      1.0000 0.78588  0.45878  0.69588  Biso   1.000  H
  H13      1.0000 0.68805  0.14681  0.72681  Biso   1.000  H
  S3       1.0000 0.89331  0.17747  0.67529  Biso   1.000  S
  H14      1.0000 0.76324  0.12948  0.62118  Biso   1.000  H
  H15      1.0000 0.76570  0.08217  0.67237  Biso   1.000  H
  C16      1.0000 0.61940  0.20103  0.79859  Biso   1.000  C
  C17      1.0000 0.51100  0.31400  0.76861  Biso   1.000  C
  C18      1.0000 0.87752  0.59503  0.78159  Biso   1.000  C
  C19      1.0000 0.84612  0.75227  0.80080  Biso   1.000  C
  C20      1.0000 0.91800  0.43299  0.76558  Biso   1.000  C
  C21      1.0000 0.90900  0.18533  0.73909  Biso   1.000  C
  C22      1.0000 0.59098  0.20401  0.84039  Biso   1.000  C
  H16      1.0000 0.66742  0.15771  0.79363  Biso   1.000  H
  C23      1.0000 0.48167  0.31542  0.81030  Biso   1.000  C
  H17      1.0000 0.48016  0.35298  0.74194  Biso   1.000  H
  H18      1.0000 0.92747  0.59754  0.80985  Biso   1.000  H
  N1       1.0000 0.76730  0.80202  0.81150  Biso   1.000  N
  H19      1.0000 0.88151  0.79471  0.78448  Biso   1.000  H
  H20      1.0000 0.88417  0.73257  0.83135  Biso   1.000  H
  C24      1.0000 0.88730  0.34798  0.74788  Biso   1.000  C
  C25      1.0000 0.00099  0.44003  0.79451  Biso   1.000  C
  C26      1.0000 0.93901  0.27339  0.75992  Biso   1.000  C
  H21      1.0000 0.95506  0.13910  0.75288  Biso   1.000  H
  H22      1.0000 0.84985  0.17071  0.74824  Biso   1.000  H
  C27      1.0000 0.52000  0.25897  0.84591  Biso   1.000  C
  C28      1.0000 0.62700  0.12881  0.87730  Biso   1.000  C
  C29      1.0000 0.40501  0.37783  0.82002  Biso   1.000  C
  S4       1.0000 0.77133  0.91099  0.80482  Biso   1.000  S
  C30      1.0000 0.74570  0.76899  0.85738  Biso   1.000  C
  H23      1.0000 0.82710  0.34276  0.72639  Biso   1.000  H
  C31      1.0000 0.05098  0.36402  0.80851  Biso   1.000  C
  H24      1.0000 0.02454  0.50142  0.80541  Biso   1.000  H
  C32      1.0000 0.02001  0.28002  0.79120  Biso   1.000  C
  H25      1.0000 0.49624  0.25673  0.87589  Biso   1.000  H
  S5       1.0000 0.71658  0.17050  0.92459  Biso   1.000  S
  H26      1.0000 0.65158  0.07757  0.86101  Biso   1.000  H
  H27      1.0000 0.57550  0.10661  0.89151  Biso   1.000  H
  S6       1.0000 0.44448  0.48748  0.84472  Biso   1.000  S
  H28      1.0000 0.36183  0.38832  0.78961  Biso   1.000  H
  H29      1.0000 0.37280  0.34655  0.84261  Biso   1.000  H
  O1       1.0000 0.69119  0.94802  0.81752  Biso   1.000  O
  O2       1.0000 0.78470  0.92778  0.75749  Biso   1.000  O
  C33      1.0000 0.86762  0.95533  0.84331  Biso   1.000  C
  C34      1.0000 0.71703  0.67098  0.85291  Biso   1.000  C
  H30      1.0000 0.69557  0.80635  0.86562  Biso   1.000  H
  H31      1.0000 0.80062  0.77481  0.88275  Biso   1.000  H
  C35      1.0000 0.14241  0.37052  0.84429  Biso   1.000  C
  H32      1.0000 0.05706  0.22499  0.80126  Biso   1.000  H
  C36      1.0000 0.81351  0.18857  0.89679  Biso   1.000  C
  C37      1.0000 0.50317  0.53838  0.80130  Biso   1.000  C
  C38      1.0000 0.94701  0.97042  0.82769  Biso   1.000  C
  C39      1.0000 0.86591  0.96203  0.89092  Biso   1.000  C
  C40      1.0000 0.63001  0.65101  0.83142  Biso   1.000  C
  C41      1.0000 0.77529  0.60397  0.87009  Biso   1.000  C
  N2       1.0000 0.12711  0.34581  0.89158  Biso   1.000  N
  H33      1.0000 0.18719  0.32794  0.83469  Biso   1.000  H
  H34      1.0000 0.16616  0.43380  0.84479  Biso   1.000  H
  C42      1.0000 0.84601  0.28598  0.89348  Biso   1.000  C
  H35      1.0000 0.79748  0.16434  0.86403  Biso   1.000  H
  H36      1.0000 0.86518  0.15324  0.91498  Biso   1.000  H
  C43      1.0000 0.60322  0.56099  0.82501  Biso   1.000  C
  H37      1.0000 0.50316  0.49479  0.77487  Biso   1.000  H
  H38      1.0000 0.47140  0.59523  0.78881  Biso   1.000  H
  H39      1.0000 0.94863  0.96243  0.79366  Biso   1.000  H
  C44      1.0000 0.02402  0.99662  0.85928  Biso   1.000  C
  C45      1.0000 0.94300  0.98951  0.92258  Biso   1.000  C
  H40      1.0000 0.80929  0.94707  0.90260  Biso   1.000  H
  H41      1.0000 0.58630  0.70069  0.82019  Biso   1.000  H
  C46      1.0000 0.74902  0.51401  0.86259  Biso   1.000  C
  H42      1.0000 0.83698  0.61845  0.88810  Biso   1.000  H
  S7       1.0000 0.21351  0.30851  0.93029  Biso   1.000  S
  C47      1.0000 0.06721  0.41241  0.91199  Biso   1.000  C
  C48      1.0000 0.93804  0.30601  0.90161  Biso   1.000  C
  C49      1.0000 0.78493  0.35298  0.88089  Biso   1.000  C
  C50      1.0000 0.66301  0.49371  0.84021  Biso   1.000  C
  C51      1.0000 0.02131  0.00697  0.90689  Biso   1.000  C
  H43      1.0000 0.08154  0.00812  0.84788  Biso   1.000  H
  H44      1.0000 0.94143  0.99628  0.95675  Biso   1.000  H
  C52      1.0000 0.81299  0.44003  0.87762  Biso   1.000  C
  O3       1.0000 0.27003  0.26357  0.90450  Biso   1.000  O
  O4       1.0000 0.17881  0.25992  0.96551  Biso   1.000  O
  C53      1.0000 0.27281  0.40152  0.95671  Biso   1.000  C
  C54      1.0000 0.96558  0.39197  0.89890  Biso   1.000  C
  H45      1.0000 0.08537  0.41106  0.94711  Biso   1.000  H
  H46      1.0000 0.07776  0.47441  0.90031  Biso   1.000  H
  H47      1.0000 0.98293  0.25613  0.90956  Biso   1.000  H
  H48      1.0000 0.71879  0.33884  0.87403  Biso   1.000  H
  H49      1.0000 0.64362  0.42906  0.83500  Biso   1.000  H
  C55      1.0000 0.10398  0.04203  0.94070  Biso   1.000  C
  C56      1.0000 0.90401  0.45898  0.88588  Biso   1.000  C
  C57      1.0000 0.31839  0.45797  0.93170  Biso   1.000  C
  C58      1.0000 0.27589  0.41688  0.00400  Biso   1.000  C
  H50      1.0000 0.09014  0.04555  0.97311  Biso   1.000  H
  H51      1.0000 0.11907  0.10424  0.93054  Biso   1.000  H
  H52      1.0000 0.15599  0.00081  0.94060  Biso   1.000  H
  H53      1.0000 0.92490  0.52254  0.88244  Biso   1.000  H
  C59      1.0000 0.36688  0.53032  0.95369  Biso   1.000  C
  H54      1.0000 0.31668  0.44612  0.89746  Biso   1.000  H
  C60      1.0000 0.32619  0.48768  0.02621  Biso   1.000  C
  H55      1.0000 0.24155  0.37668  0.02209  Biso   1.000  H
  H56      1.0000 0.39912  0.57209  0.93532  Biso   1.000  H
  C61      1.0000 0.37080  0.54501  0.00091  Biso   1.000  C
  H57      1.0000 0.33032  0.49743  0.06072  Biso   1.000  H
  C62      1.0000 0.42395  0.62441  0.02508  Biso   1.000  C
  H58      1.0000 0.41962  0.62502  0.05914  Biso   1.000  H
  H59      1.0000 0.48882  0.61859  0.02223  Biso   1.000  H
  H60      1.0000 0.39864  0.68208  0.00995  Biso   1.000  H
  C63      1.0000 0.40311  0.57242  0.38550  Biso   1.000  C
  S8       1.0000 0.32740  0.47712  0.38719  Biso   1.000  S
  S9       1.0000 0.43841  0.47198  0.35689  Biso   1.000  S
  H61      1.0000 0.35076  0.55571  0.40045  Biso   1.000  H
  H62      1.0000 0.46031  0.54711  0.37808  Biso   1.000  H
  C64      1.0000 0.37402  0.65047  0.35098  Biso   1.000  C
  H63      1.0000 0.41558  0.59923  0.41777  Biso   1.000  H
  H64      1.0000 0.45475  0.59314  0.41024  Biso   1.000  H
  C65      1.0000 0.33764  0.40971  0.33751  Biso   1.000  C
  H65      1.0000 0.30555  0.41587  0.36456  Biso   1.000  H
  H66      1.0000 0.39347  0.42974  0.32656  Biso   1.000  H
  C66      1.0000 0.31403  0.71497  0.36200  Biso   1.000  C
  C67      1.0000 0.40731  0.65798  0.31069  Biso   1.000  C
  C68      1.0000 0.26067  0.41201  0.29560  Biso   1.000  C
  H67      1.0000 0.34490  0.34534  0.34834  Biso   1.000  H
  H68      1.0000 0.36059  0.34635  0.33638  Biso   1.000  H
  C69      1.0000 0.28981  0.78801  0.33240  Biso   1.000  C
  H69      1.0000 0.28815  0.70834  0.39110  Biso   1.000  H
  C70      1.0000 0.38397  0.73203  0.28149  Biso   1.000  C
  H70      1.0000 0.44848  0.61067  0.30211  Biso   1.000  H
  C71      1.0000 0.24603  0.33498  0.26932  Biso   1.000  C
  C72      1.0000 0.20500  0.48497  0.28420  Biso   1.000  C
  C73      1.0000 0.32597  0.79802  0.29338  Biso   1.000  C
  C74      1.0000 0.22469  0.86009  0.34409  Biso   1.000  C
  C75      1.0000 0.41800  0.74103  0.23691  Biso   1.000  C
  C76      1.0000 0.17700  0.33200  0.23019  Biso   1.000  C
  H71      1.0000 0.28575  0.28117  0.27815  Biso   1.000  H
  C77      1.0000 0.13598  0.48200  0.24528  Biso   1.000  C
  H72      1.0000 0.21416  0.54122  0.30411  Biso   1.000  H
  H73      1.0000 0.31192  0.85319  0.27319  Biso   1.000  H
  S10      1.0000 0.10673  0.82253  0.32470  Biso   1.000  S
  H74      1.0000 0.23674  0.87052  0.37882  Biso   1.000  H
  H75      1.0000 0.23427  0.91783  0.32762  Biso   1.000  H
  C78      1.0000 0.38057  0.79897  0.20141  Biso   1.000  C
  C79      1.0000 0.48898  0.68600  0.23138  Biso   1.000  C
  C80      1.0000 0.12252  0.40497  0.21840  Biso   1.000  C
  C81      1.0000 0.15392  0.24773  0.19919  Biso   1.000  C
  C82      1.0000 0.08197  0.56701  0.23441  Biso   1.000  C
  C83      1.0000 0.09097  0.81467  0.26091  Biso   1.000  C
  C84      1.0000 0.40900  0.79599  0.15960  Biso   1.000  C
  H76      1.0000 0.33255  0.84229  0.20637  Biso   1.000  H
  C85      1.0000 0.51830  0.68458  0.18969  Biso   1.000  C
  H77      1.0000 0.51982  0.64702  0.25806  Biso   1.000  H
  H78      1.0000 0.07251  0.40246  0.19015  Biso   1.000  H
  N3       1.0000 0.23268  0.19798  0.18849  Biso   1.000  N
  H79      1.0000 0.11853  0.20529  0.21552  Biso   1.000  H
  H80      1.0000 0.11580  0.26743  0.16865  Biso   1.000  H
  C86      1.0000 0.11268  0.65202  0.25211  Biso   1.000  C
  C87      1.0000 0.99898  0.55997  0.20549  Biso   1.000  C
  C88      1.0000 0.06098  0.72661  0.24011  Biso   1.000  C
  H81      1.0000 0.04491  0.86090  0.24711  Biso   1.000  H
  H82      1.0000 0.15012  0.82929  0.25176  Biso   1.000  H
  C89      1.0000 0.47999  0.74103  0.15412  Biso   1.000  C
  C90      1.0000 0.37297  0.87119  0.12269  Biso   1.000  C
  C91      1.0000 0.59498  0.62217  0.18001  Biso   1.000  C
  S11      1.0000 0.22872  0.08901  0.19521  Biso   1.000  S
  C92      1.0000 0.25428  0.23101  0.14261  Biso   1.000  C
  H83      1.0000 0.17287  0.65724  0.27361  Biso   1.000  H
  C93      1.0000 0.94900  0.63598  0.19148  Biso   1.000  C
  H84      1.0000 0.97543  0.49858  0.19458  Biso   1.000  H
  C94      1.0000 0.98003  0.71998  0.20880  Biso   1.000  C
  H85      1.0000 0.50375  0.74327  0.12414  Biso   1.000  H
  S12      1.0000 0.28339  0.82950  0.07540  Biso   1.000  S
  H86      1.0000 0.34840  0.92243  0.13899  Biso   1.000  H
  H87      1.0000 0.42448  0.89339  0.10848  Biso   1.000  H
  S13      1.0000 0.55551  0.51252  0.15531  Biso   1.000  S
  H88      1.0000 0.63814  0.61168  0.21038  Biso   1.000  H
  H89      1.0000 0.62717  0.65345  0.15739  Biso   1.000  H
  O5       1.0000 0.30880  0.05198  0.18251  Biso   1.000  O
  O6       1.0000 0.21528  0.07222  0.24250  Biso   1.000  O
  C95      1.0000 0.13242  0.04467  0.15668  Biso   1.000  C
  C96      1.0000 0.28303  0.32902  0.14711  Biso   1.000  C
  H90      1.0000 0.30442  0.19365  0.13441  Biso   1.000  H
  H91      1.0000 0.19936  0.22519  0.11724  Biso   1.000  H
  C97      1.0000 0.85763  0.62948  0.15570  Biso   1.000  C
  H92      1.0000 0.94291  0.77501  0.19873  Biso   1.000  H
  C98      1.0000 0.18653  0.81143  0.10320  Biso   1.000  C
  C99      1.0000 0.49681  0.46162  0.19870  Biso   1.000  C
  C100     1.0000 0.05303  0.02958  0.17231  Biso   1.000  C
  C101     1.0000 0.13408  0.03797  0.10911  Biso   1.000  C
  C102     1.0000 0.36997  0.34899  0.16861  Biso   1.000  C
  C103     1.0000 0.22469  0.39603  0.12991  Biso   1.000  C
  N4       1.0000 0.87294  0.65419  0.10841  Biso   1.000  N
  H93      1.0000 0.81279  0.67206  0.16531  Biso   1.000  H
  H94      1.0000 0.83382  0.56620  0.15521  Biso   1.000  H
  C104     1.0000 0.15403  0.71402  0.10651  Biso   1.000  C
  H95      1.0000 0.20251  0.83566  0.13599  Biso   1.000  H
  H96      1.0000 0.13480  0.84676  0.08501  Biso   1.000  H
  C105     1.0000 0.39684  0.43901  0.17502  Biso   1.000  C
  H97      1.0000 0.49682  0.50521  0.22512  Biso   1.000  H
  H98      1.0000 0.52858  0.40477  0.21119  Biso   1.000  H
  H99      1.0000 0.05142  0.03757  0.20637  Biso   1.000  H
  C106     1.0000 0.97603  0.00338  0.14071  Biso   1.000  C
  C107     1.0000 0.05697  0.01049  0.07741  Biso   1.000  C
  H100     1.0000 0.19076  0.05293  0.09740  Biso   1.000  H
  H101     1.0000 0.41368  0.29931  0.17980  Biso   1.000  H
  C108     1.0000 0.25102  0.48599  0.13740  Biso   1.000  C
  H102     1.0000 0.16299  0.38155  0.11189  Biso   1.000  H
  S14      1.0000 0.78653  0.69149  0.06970  Biso   1.000  S
  C109     1.0000 0.93277  0.58759  0.08800  Biso   1.000  C
  C110     1.0000 0.21512  0.64702  0.11911  Biso   1.000  C
  C111     1.0000 0.06202  0.69399  0.09842  Biso   1.000  C
  C112     1.0000 0.33698  0.50629  0.15982  Biso   1.000  C
  C113     1.0000 0.97873  0.99303  0.09310  Biso   1.000  C
  H103     1.0000 0.91844  0.99188  0.15211  Biso   1.000  H
  H104     1.0000 0.05854  0.00372  0.04324  Biso   1.000  H
  C114     1.0000 0.18700  0.55997  0.12241  Biso   1.000  C
  O7       1.0000 0.73002  0.73643  0.09550  Biso   1.000  O
  O8       1.0000 0.82117  0.74008  0.03448  Biso   1.000  O
  C115     1.0000 0.72718  0.59848  0.04331  Biso   1.000  C
  C116     1.0000 0.03440  0.60803  0.10109  Biso   1.000  C
  H105     1.0000 0.91467  0.58894  0.05288  Biso   1.000  H
  H106     1.0000 0.92228  0.52559  0.09968  Biso   1.000  H
  H107     1.0000 0.28125  0.66116  0.12597  Biso   1.000  H
  H108     1.0000 0.01704  0.74387  0.09043  Biso   1.000  H
  H109     1.0000 0.35642  0.57094  0.16499  Biso   1.000  H
  C117     1.0000 0.89600  0.95797  0.05929  Biso   1.000  C
  C118     1.0000 0.09603  0.54102  0.11411  Biso   1.000  C
  C119     1.0000 0.72410  0.58312  0.99602  Biso   1.000  C
  C120     1.0000 0.68159  0.54203  0.06830  Biso   1.000  C
  H110     1.0000 0.90983  0.95445  0.02688  Biso   1.000  H
  H111     1.0000 0.88097  0.89576  0.06946  Biso   1.000  H
  H112     1.0000 0.84399  0.99919  0.05939  Biso   1.000  H
  H113     1.0000 0.07514  0.47746  0.11756  Biso   1.000  H
  C121     1.0000 0.67380  0.51232  0.97382  Biso   1.000  C
  H114     1.0000 0.75849  0.62332  0.97790  Biso   1.000  H
  C122     1.0000 0.63310  0.46968  0.04631  Biso   1.000  C
  H115     1.0000 0.68330  0.55388  0.10253  Biso   1.000  H
  C123     1.0000 0.62926  0.45499  0.99912  Biso   1.000  C
  H116     1.0000 0.66966  0.50257  0.93927  Biso   1.000  H
  H117     1.0000 0.60087  0.42791  0.06471  Biso   1.000  H
  C124     1.0000 0.57603  0.37559  0.97491  Biso   1.000  C
  H118     1.0000 0.58036  0.37498  0.94085  Biso   1.000  H
  H119     1.0000 0.51116  0.38141  0.97776  Biso   1.000  H
  H120     1.0000 0.60134  0.31792  0.99004  Biso   1.000  H
  C125     1.0000 0.62698  0.37119  0.37730  Biso   1.000  C
  C126     1.0000 0.59103  0.29599  0.34039  Biso   1.000  C
  S15      1.0000 0.71663  0.32950  0.42459  Biso   1.000  S
  H121     1.0000 0.65156  0.42243  0.36101  Biso   1.000  H
  H122     1.0000 0.57555  0.39339  0.39152  Biso   1.000  H
  C127     1.0000 0.51998  0.24103  0.34592  Biso   1.000  C
  C128     1.0000 0.61938  0.29897  0.29859  Biso   1.000  C
  C129     1.0000 0.81349  0.31143  0.39680  Biso   1.000  C
  C130     1.0000 0.48172  0.18458  0.31031  Biso   1.000  C
  H123     1.0000 0.49628  0.24327  0.37589  Biso   1.000  H
  C131     1.0000 0.58202  0.24103  0.26309  Biso   1.000  C
  H124     1.0000 0.66747  0.34229  0.29363  Biso   1.000  H
  C132     1.0000 0.84599  0.21402  0.39349  Biso   1.000  C
  H125     1.0000 0.79753  0.33566  0.36404  Biso   1.000  H
  H126     1.0000 0.86523  0.34676  0.41499  Biso   1.000  H
  C133     1.0000 0.40497  0.12217  0.31998  Biso   1.000  C
  C134     1.0000 0.51098  0.18600  0.26861  Biso   1.000  C
  C135     1.0000 0.61599  0.23203  0.21851  Biso   1.000  C
  C136     1.0000 0.78491  0.14702  0.38089  Biso   1.000  C
  C137     1.0000 0.93802  0.19399  0.40162  Biso   1.000  C
  S16      1.0000 0.44451  0.01252  0.34468  Biso   1.000  S
  H127     1.0000 0.36181  0.11168  0.28962  Biso   1.000  H
  H128     1.0000 0.37285  0.15345  0.34261  Biso   1.000  H
  H129     1.0000 0.48020  0.14702  0.24194  Biso   1.000  H
  C138     1.0000 0.67399  0.29802  0.20661  Biso   1.000  C
  C139     1.0000 0.59271  0.15798  0.18930  Biso   1.000  C
  C140     1.0000 0.81302  0.05997  0.37758  Biso   1.000  C
  H130     1.0000 0.71877  0.16116  0.37403  Biso   1.000  H
  C141     1.0000 0.96563  0.10803  0.39891  Biso   1.000  C
  H131     1.0000 0.98298  0.24387  0.40957  Biso   1.000  H
  C142     1.0000 0.50322  0.96162  0.30130  Biso   1.000  C
  C143     1.0000 0.71021  0.28801  0.16759  Biso   1.000  C
  H132     1.0000 0.68803  0.35319  0.22681  Biso   1.000  H
  C144     1.0000 0.62600  0.15047  0.14901  Biso   1.000  C
  H133     1.0000 0.55147  0.11067  0.19789  Biso   1.000  H
  C145     1.0000 0.74900  0.98599  0.36259  Biso   1.000  C
  C146     1.0000 0.90399  0.04102  0.38589  Biso   1.000  C
  C147     1.0000 0.06719  0.08759  0.41200  Biso   1.000  C
  H134     1.0000 0.50314  0.00521  0.27488  Biso   1.000  H
  C148     1.0000 0.60320  0.93901  0.32502  Biso   1.000  C
  H135     1.0000 0.47145  0.90477  0.28881  Biso   1.000  H
  C149     1.0000 0.68599  0.21497  0.13800  Biso   1.000  C
  C150     1.0000 0.77533  0.36009  0.15591  Biso   1.000  C
  C151     1.0000 0.59691  0.07242  0.11450  Biso   1.000  C
  C152     1.0000 0.66299  0.00629  0.34022  Biso   1.000  C
  C153     1.0000 0.77527  0.89603  0.37009  Biso   1.000  C
  H136     1.0000 0.92488  0.97746  0.38244  Biso   1.000  H
  N5       1.0000 0.12708  0.15419  0.39159  Biso   1.000  N
  H137     1.0000 0.08535  0.08894  0.44711  Biso   1.000  H
  H138     1.0000 0.07774  0.02559  0.40031  Biso   1.000  H
  C154     1.0000 0.62998  0.84899  0.33138  Biso   1.000  C
  H139     1.0000 0.71181  0.20834  0.10890  Biso   1.000  H
  S17      1.0000 0.89329  0.32253  0.17530  Biso   1.000  S
  H140     1.0000 0.76328  0.37052  0.12118  Biso   1.000  H
  H141     1.0000 0.76568  0.41783  0.17238  Biso   1.000  H
  H142     1.0000 0.58444  0.09923  0.08223  Biso   1.000  H
  H143     1.0000 0.53971  0.04711  0.12192  Biso   1.000  H
  H144     1.0000 0.54528  0.09314  0.08976  Biso   1.000  H
  H145     1.0000 0.64920  0.05571  0.09954  Biso   1.000  H
  S18      1.0000 0.67262  0.97712  0.11281  Biso   1.000  S
  S19      1.0000 0.56162  0.97198  0.14310  Biso   1.000  S
  H146     1.0000 0.64360  0.07094  0.33501  Biso   1.000  H
  C155     1.0000 0.71699  0.82902  0.35288  Biso   1.000  C
  H147     1.0000 0.83703  0.88155  0.38810  Biso   1.000  H
  S20      1.0000 0.21349  0.19149  0.43029  Biso   1.000  S
  C156     1.0000 0.14239  0.12948  0.34430  Biso   1.000  C
  H148     1.0000 0.58628  0.79931  0.32019  Biso   1.000  H
  C157     1.0000 0.90898  0.31467  0.23909  Biso   1.000  C
  C158     1.0000 0.66239  0.90971  0.16249  Biso   1.000  C
  H149     1.0000 0.69441  0.91587  0.13547  Biso   1.000  H
  H150     1.0000 0.60649  0.92974  0.17343  Biso   1.000  H
  C159     1.0000 0.74568  0.73101  0.35739  Biso   1.000  C
  O9       1.0000 0.27000  0.23643  0.40450  Biso   1.000  O
  O10      1.0000 0.17879  0.24008  0.46551  Biso   1.000  O
  C160     1.0000 0.27278  0.09848  0.45672  Biso   1.000  C
  C161     1.0000 0.05102  0.13598  0.30851  Biso   1.000  C
  H151     1.0000 0.18717  0.17206  0.33469  Biso   1.000  H
  H152     1.0000 0.16620  0.06620  0.34479  Biso   1.000  H
  C162     1.0000 0.93898  0.22661  0.25989  Biso   1.000  C
  H153     1.0000 0.95511  0.36090  0.25288  Biso   1.000  H
  H154     1.0000 0.84983  0.32929  0.24824  Biso   1.000  H
  C163     1.0000 0.73929  0.91201  0.20440  Biso   1.000  C
  H155     1.0000 0.65513  0.84534  0.15165  Biso   1.000  H
  H156     1.0000 0.63944  0.84635  0.16362  Biso   1.000  H
  N6       1.0000 0.76728  0.69798  0.31150  Biso   1.000  N
  H157     1.0000 0.69554  0.69365  0.36559  Biso   1.000  H
  H158     1.0000 0.80066  0.72519  0.38276  Biso   1.000  H
  C164     1.0000 0.31843  0.04203  0.43170  Biso   1.000  C
  C165     1.0000 0.27593  0.08312  0.50401  Biso   1.000  C
  C166     1.0000 0.01999  0.21998  0.29120  Biso   1.000  C
  C167     1.0000 0.00104  0.05997  0.29451  Biso   1.000  C
  C168     1.0000 0.88727  0.15202  0.24789  Biso   1.000  C
  C169     1.0000 0.75400  0.83498  0.23072  Biso   1.000  C
  C170     1.0000 0.79502  0.98497  0.21580  Biso   1.000  C
  S21      1.0000 0.77130  0.58901  0.30478  Biso   1.000  S
  C171     1.0000 0.84610  0.74773  0.30081  Biso   1.000  C
  C172     1.0000 0.36693  0.96968  0.45369  Biso   1.000  C
  H159     1.0000 0.31672  0.05388  0.39746  Biso   1.000  H
  C173     1.0000 0.32623  0.01232  0.52621  Biso   1.000  C
  H160     1.0000 0.24153  0.12332  0.52209  Biso   1.000  H
  H161     1.0000 0.05711  0.27501  0.30126  Biso   1.000  H
  C174     1.0000 0.91798  0.06701  0.26559  Biso   1.000  C
  H162     1.0000 0.02452  0.99858  0.30542  Biso   1.000  H
  H163     1.0000 0.82708  0.15724  0.22639  Biso   1.000  H
  C175     1.0000 0.82302  0.83200  0.26981  Biso   1.000  C
  H164     1.0000 0.71421  0.78117  0.22185  Biso   1.000  H
  C176     1.0000 0.86398  0.98200  0.25471  Biso   1.000  C
  H165     1.0000 0.78586  0.04122  0.19588  Biso   1.000  H
  O11      1.0000 0.69122  0.55198  0.31749  Biso   1.000  O
  O12      1.0000 0.78468  0.57222  0.25749  Biso   1.000  O
  C177     1.0000 0.86760  0.54467  0.34331  Biso   1.000  C
  H166     1.0000 0.88149  0.70529  0.28448  Biso   1.000  H
  H167     1.0000 0.88422  0.76743  0.33135  Biso   1.000  H
  C178     1.0000 0.37078  0.95499  0.50091  Biso   1.000  C
  H168     1.0000 0.39910  0.92791  0.43532  Biso   1.000  H
  H169     1.0000 0.33037  0.00257  0.56073  Biso   1.000  H
  C179     1.0000 0.87750  0.90497  0.28160  Biso   1.000  C
  C180     1.0000 0.94699  0.52958  0.32769  Biso   1.000  C
  C181     1.0000 0.86587  0.53797  0.39088  Biso   1.000  C
  C182     1.0000 0.42400  0.87559  0.52508  Biso   1.000  C
  H170     1.0000 0.92745  0.90246  0.30985  Biso   1.000  H
  H171     1.0000 0.94861  0.53757  0.29366  Biso   1.000  H
  C183     1.0000 0.02400  0.50338  0.35929  Biso   1.000  C
  C184     1.0000 0.94298  0.51049  0.42259  Biso   1.000  C
  H172     1.0000 0.80926  0.55293  0.40260  Biso   1.000  H
  H173     1.0000 0.41966  0.87498  0.55914  Biso   1.000  H
  H174     1.0000 0.48886  0.88141  0.52223  Biso   1.000  H
  H175     1.0000 0.39868  0.81792  0.50995  Biso   1.000  H
  C185     1.0000 0.02129  0.49303  0.40689  Biso   1.000  C
  H176     1.0000 0.08152  0.49188  0.34789  Biso   1.000  H
  H177     1.0000 0.94141  0.50372  0.45675  Biso   1.000  H
  C186     1.0000 0.10403  0.45797  0.44071  Biso   1.000  C
  H178     1.0000 0.09012  0.45445  0.47311  Biso   1.000  H
  H179     1.0000 0.11905  0.39576  0.43054  Biso   1.000  H
  H180     1.0000 0.15603  0.49919  0.44060  Biso   1.000  H
  C187     1.0000 0.37300  0.62881  0.62269  Biso   1.000  C
  S22      1.0000 0.28342  0.67050  0.57540  Biso   1.000  S
  C188     1.0000 0.40902  0.70401  0.65960  Biso   1.000  C
  H181     1.0000 0.34842  0.57757  0.63898  Biso   1.000  H
  H182     1.0000 0.42450  0.60661  0.60848  Biso   1.000  H
  C189     1.0000 0.18649  0.68857  0.60320  Biso   1.000  C
  C190     1.0000 0.38059  0.70103  0.70140  Biso   1.000  C
  C191     1.0000 0.48001  0.75897  0.65411  Biso   1.000  C
  C192     1.0000 0.15399  0.78598  0.60651  Biso   1.000  C
  H183     1.0000 0.20253  0.66434  0.63599  Biso   1.000  H
  H184     1.0000 0.13482  0.65324  0.58501  Biso   1.000  H
  C193     1.0000 0.41802  0.75897  0.73691  Biso   1.000  C
  H185     1.0000 0.33258  0.65771  0.70636  Biso   1.000  H
  C194     1.0000 0.51832  0.81542  0.68969  Biso   1.000  C
  H186     1.0000 0.50377  0.75673  0.62413  Biso   1.000  H
  C195     1.0000 0.06197  0.80601  0.59841  Biso   1.000  C
  C196     1.0000 0.21507  0.85298  0.61910  Biso   1.000  C
  C197     1.0000 0.48901  0.81400  0.73142  Biso   1.000  C
  C198     1.0000 0.38399  0.76797  0.78149  Biso   1.000  C
  C199     1.0000 0.59500  0.87783  0.68001  Biso   1.000  C
  C200     1.0000 0.03442  0.89197  0.60109  Biso   1.000  C
  H187     1.0000 0.01706  0.75613  0.59043  Biso   1.000  H
  C201     1.0000 0.18702  0.94003  0.62241  Biso   1.000  C
  H188     1.0000 0.28120  0.83884  0.62596  Biso   1.000  H
  H189     1.0000 0.51984  0.85298  0.75805  Biso   1.000  H
  C202     1.0000 0.32600  0.70198  0.79341  Biso   1.000  C
  C203     1.0000 0.40727  0.84202  0.81069  Biso   1.000  C
  S23      1.0000 0.55553  0.98748  0.65531  Biso   1.000  S
  H190     1.0000 0.63816  0.88832  0.71038  Biso   1.000  H
  H191     1.0000 0.62720  0.84655  0.65738  Biso   1.000  H
  C204     1.0000 0.09599  0.95898  0.61411  Biso   1.000  C
  C205     1.0000 0.93279  0.91241  0.58800  Biso   1.000  C
  C206     1.0000 0.25098  0.01401  0.63740  Biso   1.000  C
  C207     1.0000 0.28983  0.71199  0.83240  Biso   1.000  C
  H192     1.0000 0.31195  0.64681  0.77318  Biso   1.000  H
  C208     1.0000 0.37399  0.84953  0.85101  Biso   1.000  C
  H193     1.0000 0.44850  0.88933  0.80211  Biso   1.000  H
  C209     1.0000 0.49683  0.03838  0.69869  Biso   1.000  C
  H194     1.0000 0.07509  0.02254  0.61755  Biso   1.000  H
  N7       1.0000 0.87289  0.84581  0.60841  Biso   1.000  N
  H195     1.0000 0.91463  0.91106  0.55288  Biso   1.000  H
  H196     1.0000 0.92224  0.97441  0.59968  Biso   1.000  H
  C210     1.0000 0.33700  0.99371  0.65981  Biso   1.000  C
  C211     1.0000 0.22471  0.10397  0.62990  Biso   1.000  C
  C212     1.0000 0.31399  0.78503  0.86199  Biso   1.000  C
  C213     1.0000 0.22472  0.63991  0.84408  Biso   1.000  C
  C214     1.0000 0.40307  0.92758  0.88550  Biso   1.000  C
  C215     1.0000 0.39679  0.06099  0.67501  Biso   1.000  C
  H197     1.0000 0.49684  0.99479  0.72512  Biso   1.000  H
  H198     1.0000 0.52860  0.09523  0.71118  Biso   1.000  H
  S24      1.0000 0.78649  0.80851  0.56970  Biso   1.000  S
  C216     1.0000 0.85759  0.87052  0.65570  Biso   1.000  C
  H199     1.0000 0.35637  0.92906  0.66499  Biso   1.000  H
  C217     1.0000 0.28298  0.17098  0.64711  Biso   1.000  C
  H200     1.0000 0.16301  0.11845  0.61189  Biso   1.000  H
  H201     1.0000 0.28818  0.79166  0.89113  Biso   1.000  H
  S25      1.0000 0.10669  0.67747  0.82470  Biso   1.000  S
  H202     1.0000 0.23676  0.62948  0.87881  Biso   1.000  H
  H203     1.0000 0.23429  0.58217  0.82762  Biso   1.000  H
  H204     1.0000 0.41553  0.90077  0.91776  Biso   1.000  H
  H205     1.0000 0.46033  0.95289  0.87807  Biso   1.000  H
  H206     1.0000 0.45470  0.90686  0.91023  Biso   1.000  H
  H207     1.0000 0.35079  0.94429  0.90049  Biso   1.000  H
  S26      1.0000 0.32742  0.02288  0.88719  Biso   1.000  S
  S27      1.0000 0.43843  0.02802  0.85689  Biso   1.000  S
  C218     1.0000 0.36999  0.15101  0.66861  Biso   1.000  C
  O13      1.0000 0.72997  0.76357  0.59549  Biso   1.000  O
  O14      1.0000 0.82120  0.75992  0.53451  Biso   1.000  O
  C219     1.0000 0.72720  0.90152  0.54331  Biso   1.000  C
  C220     1.0000 0.94903  0.86402  0.69152  Biso   1.000  C
  H208     1.0000 0.81281  0.82794  0.66530  Biso   1.000  H
  H209     1.0000 0.83384  0.93380  0.65520  Biso   1.000  H
  C221     1.0000 0.25430  0.26899  0.64261  Biso   1.000  C
  C222     1.0000 0.09099  0.68533  0.76090  Biso   1.000  C
  C223     1.0000 0.33759  0.09029  0.83750  Biso   1.000  C
  H210     1.0000 0.30558  0.08413  0.86456  Biso   1.000  H
  H211     1.0000 0.39349  0.07026  0.82656  Biso   1.000  H
  H212     1.0000 0.41370  0.20069  0.67980  Biso   1.000  H
  C224     1.0000 0.68161  0.95797  0.56829  Biso   1.000  C
  C225     1.0000 0.72411  0.91688  0.49599  Biso   1.000  C
  C226     1.0000 0.97998  0.78002  0.70879  Biso   1.000  C
  C227     1.0000 0.99901  0.94003  0.70548  Biso   1.000  C
  N8       1.0000 0.23270  0.30202  0.68849  Biso   1.000  N
  H213     1.0000 0.30444  0.30635  0.63441  Biso   1.000  H
  H214     1.0000 0.19938  0.27481  0.61724  Biso   1.000  H
  C228     1.0000 0.06100  0.77339  0.74011  Biso   1.000  C
  H215     1.0000 0.04493  0.63910  0.74711  Biso   1.000  H
  H216     1.0000 0.15014  0.67071  0.75175  Biso   1.000  H
  C229     1.0000 0.26069  0.08799  0.79560  Biso   1.000  C
  H217     1.0000 0.34485  0.15466  0.84834  Biso   1.000  H
  H218     1.0000 0.36054  0.15365  0.83638  Biso   1.000  H
  H219     1.0000 0.68332  0.94612  0.60253  Biso   1.000  H
  C230     1.0000 0.63312  0.03032  0.54630  Biso   1.000  C
  C231     1.0000 0.67381  0.98768  0.47378  Biso   1.000  C
  H220     1.0000 0.75845  0.87668  0.47790  Biso   1.000  H
  H221     1.0000 0.94294  0.72499  0.69873  Biso   1.000  H
  C232     1.0000 0.08199  0.93299  0.73441  Biso   1.000  C
  H222     1.0000 0.97546  0.00142  0.69458  Biso   1.000  H
  S28      1.0000 0.22868  0.41099  0.69521  Biso   1.000  S
  C233     1.0000 0.15387  0.25227  0.69919  Biso   1.000  C
  C234     1.0000 0.11270  0.84798  0.75211  Biso   1.000  C
  C235     1.0000 0.24599  0.16502  0.76931  Biso   1.000  C
  C236     1.0000 0.20502  0.01503  0.78420  Biso   1.000  C
  C237     1.0000 0.62921  0.04501  0.49912  Biso   1.000  C
  H223     1.0000 0.60089  0.07209  0.56470  Biso   1.000  H
  H224     1.0000 0.66961  0.99743  0.43927  Biso   1.000  H
  C238     1.0000 0.13601  0.01800  0.74532  Biso   1.000  C
  O15      1.0000 0.30882  0.44802  0.68251  Biso   1.000  O
  O16      1.0000 0.21530  0.42778  0.74250  Biso   1.000  O
  C239     1.0000 0.13239  0.45533  0.65672  Biso   1.000  C
  C240     1.0000 0.17702  0.16800  0.73019  Biso   1.000  C
  H225     1.0000 0.11849  0.29471  0.71551  Biso   1.000  H
  H226     1.0000 0.11583  0.23257  0.66864  Biso   1.000  H
  H227     1.0000 0.17290  0.84276  0.77360  Biso   1.000  H
  H228     1.0000 0.28577  0.21883  0.77814  Biso   1.000  H
  H229     1.0000 0.21413  0.95878  0.80415  Biso   1.000  H
  C241     1.0000 0.57598  0.12441  0.47491  Biso   1.000  C
  C242     1.0000 0.12247  0.09503  0.71840  Biso   1.000  C
  C243     1.0000 0.05299  0.47042  0.67230  Biso   1.000  C
  C244     1.0000 0.13410  0.46203  0.60911  Biso   1.000  C
  H230     1.0000 0.58038  0.12502  0.44085  Biso   1.000  H
  H231     1.0000 0.51118  0.11859  0.47776  Biso   1.000  H
  H232     1.0000 0.60136  0.18208  0.49004  Biso   1.000  H
  H233     1.0000 0.07253  0.09754  0.69014  Biso   1.000  H
  C245     1.0000 0.97598  0.49662  0.64071  Biso   1.000  C
  H234     1.0000 0.05138  0.46243  0.70636  Biso   1.000  H
  C246     1.0000 0.05699  0.48951  0.57741  Biso   1.000  C
  H235     1.0000 0.19072  0.44707  0.59743  Biso   1.000  H
  C247     1.0000 0.97869  0.50697  0.59310  Biso   1.000  C
  H236     1.0000 0.91846  0.50812  0.65211  Biso   1.000  H
  H237     1.0000 0.05858  0.49628  0.54328  Biso   1.000  H
  C248     1.0000 0.89602  0.54203  0.55929  Biso   1.000  C
  H238     1.0000 0.90986  0.54555  0.52688  Biso   1.000  H
  H239     1.0000 0.88092  0.60424  0.56945  Biso   1.000  H
  H240     1.0000 0.84402  0.50081  0.55943  Biso   1.000  H
