data_image0
_cell_length_a       15.485
_cell_length_b       9.316
_cell_length_c       31.418
_cell_angle_alpha    90
_cell_angle_beta     92.02
_cell_angle_gamma    90

_symmetry_space_group_name_H-M    "P 1"
_symmetry_int_tables_number       1

loop_
  _symmetry_equiv_pos_as_xyz
  'x, y, z'

loop_
  _atom_site_label
  _atom_site_occupancy
  _atom_site_fract_x
  _atom_site_fract_y
  _atom_site_fract_z
  _atom_site_thermal_displace_type
  _atom_site_B_iso_or_equiv
  _atom_site_type_symbol
  C1       1.0000 0.58942  0.28897  0.52840  Biso   1.000  C
  C2       1.0000 0.55118  0.17003  0.54270  Biso   1.000  C
  C3       1.0000 0.67431  0.31902  0.53971  Biso   1.000  C
  C4       1.0000 0.45859  0.14405  0.53210  Biso   1.000  C
  C5       1.0000 0.60072  0.07203  0.56630  Biso   1.000  C
  C6       1.0000 0.71603  0.44697  0.52171  Biso   1.000  C
  C7       1.0000 0.72220  0.22596  0.56280  Biso   1.000  C
  C8       1.0000 0.39712  0.14599  0.56840  Biso   1.000  C
  C9       1.0000 0.68732  0.10401  0.57621  Biso   1.000  C
  C10      1.0000 0.71000  0.58502  0.54570  Biso   1.000  C
  C11      1.0000 0.30443  0.16402  0.55541  Biso   1.000  C
  C12      1.0000 0.74203  0.99903  0.59990  Biso   1.000  C
  C13      1.0000 0.66629  0.60198  0.58649  Biso   1.000  C
  C14      1.0000 0.26489  0.07396  0.52630  Biso   1.000  C
  C15      1.0000 0.25931  0.26997  0.57200  Biso   1.000  C
  C16      1.0000 0.73502  0.99002  0.64729  Biso   1.000  C
  C17      1.0000 0.71027  0.57804  0.62360  Biso   1.000  C
  C18      1.0000 0.57998  0.64802  0.58700  Biso   1.000  C
  C19      1.0000 0.17677  0.09704  0.51499  Biso   1.000  C
  C20      1.0000 0.17272  0.29605  0.56031  Biso   1.000  C
  C21      1.0000 0.68878  0.09897  0.67248  Biso   1.000  C
  C22      1.0000 0.67083  0.60401  0.66169  Biso   1.000  C
  C23      1.0000 0.54072  0.67100  0.62401  Biso   1.000  C
  C24      1.0000 0.13058  0.20696  0.53190  Biso   1.000  C
  C25      1.0000 0.72840  0.22402  0.68471  Biso   1.000  C
  C26      1.0000 0.60490  0.07299  0.68430  Biso   1.000  C
  C27      1.0000 0.58581  0.64599  0.66210  Biso   1.000  C
  C28      1.0000 0.72099  0.58899  0.70210  Biso   1.000  C
  C29      1.0000 0.44992  0.72499  0.62401  Biso   1.000  C
  C30      1.0000 0.03870  0.23304  0.51850  Biso   1.000  C
  C31      1.0000 0.68967  0.31795  0.70841  Biso   1.000  C
  C32      1.0000 0.56302  0.16595  0.70911  Biso   1.000  C
  C33      1.0000 0.73691  0.44805  0.72332  Biso   1.000  C
  C34      1.0000 0.38387  0.61099  0.61060  Biso   1.000  C
  C35      1.0000 0.97233  0.19805  0.55130  Biso   1.000  C
  C36      1.0000 0.60508  0.29304  0.72211  Biso   1.000  C
  C37      1.0000 0.47103  0.14201  0.71870  Biso   1.000  C
  C38      1.0000 0.29251  0.65500  0.61720  Biso   1.000  C
  C39      1.0000 0.97423  0.28596  0.59051  Biso   1.000  C
  C40      1.0000 0.40782  0.23497  0.69271  Biso   1.000  C
  C41      1.0000 0.24717  0.73100  0.58649  Biso   1.000  C
  C42      1.0000 0.25101  0.61196  0.65182  Biso   1.000  C
  C43      1.0000 0.96603  0.43398  0.58691  Biso   1.000  C
  C44      1.0000 0.97969  0.22413  0.63079  Biso   1.000  C
  C45      1.0000 0.31421  0.21404  0.69940  Biso   1.000  C
  C46      1.0000 0.16167  0.76900  0.59280  Biso   1.000  C
  C47      1.0000 0.16347  0.64695  0.65682  Biso   1.000  C
  C48      1.0000 0.96541  0.51932  0.62341  Biso   1.000  C
  C49      1.0000 0.97893  0.30904  0.66701  Biso   1.000  C
  C50      1.0000 0.27111  0.28800  0.73061  Biso   1.000  C
  C51      1.0000 0.26838  0.10895  0.67799  Biso   1.000  C
  C52      1.0000 0.11939  0.72295  0.62822  Biso   1.000  C
  C53      1.0000 0.95527  0.67797  0.61981  Biso   1.000  C
  C54      1.0000 0.97108  0.45502  0.66299  Biso   1.000  C
  C55      1.0000 0.98083  0.24195  0.70991  Biso   1.000  C
  C56      1.0000 0.18370  0.26395  0.73650  Biso   1.000  C
  C57      1.0000 0.18083  0.08502  0.68459  Biso   1.000  C
  C58      1.0000 0.02963  0.76803  0.63640  Biso   1.000  C
  C59      1.0000 0.04780  0.12999  0.72169  Biso   1.000  C
  C60      1.0000 0.13993  0.16005  0.71411  Biso   1.000  C
  C61      1.0000 0.41061  0.71103  0.47162  Biso   1.000  C
  C62      1.0000 0.32572  0.68098  0.46031  Biso   1.000  C
  C63      1.0000 0.44879  0.82997  0.45732  Biso   1.000  C
  C64      1.0000 0.28400  0.55303  0.47830  Biso   1.000  C
  C65      1.0000 0.27783  0.77404  0.43719  Biso   1.000  C
  C66      1.0000 0.39931  0.92797  0.43372  Biso   1.000  C
  C67      1.0000 0.54137  0.85595  0.46789  Biso   1.000  C
  C68      1.0000 0.29003  0.41498  0.45429  Biso   1.000  C
  C69      1.0000 0.31271  0.89599  0.42381  Biso   1.000  C
  C70      1.0000 0.60290  0.85401  0.43161  Biso   1.000  C
  C71      1.0000 0.33367  0.39802  0.41349  Biso   1.000  C
  C72      1.0000 0.25800  0.00097  0.40011  Biso   1.000  C
  C73      1.0000 0.69560  0.83598  0.44461  Biso   1.000  C
  C74      1.0000 0.28969  0.42196  0.37639  Biso   1.000  C
  C75      1.0000 0.41998  0.35198  0.41301  Biso   1.000  C
  C76      1.0000 0.26500  0.00998  0.35269  Biso   1.000  C
  C77      1.0000 0.73507  0.92604  0.47369  Biso   1.000  C
  C78      1.0000 0.74072  0.73003  0.42801  Biso   1.000  C
  C79      1.0000 0.32920  0.39599  0.33830  Biso   1.000  C
  C80      1.0000 0.45931  0.32900  0.37601  Biso   1.000  C
  C81      1.0000 0.31118  0.90103  0.32750  Biso   1.000  C
  C82      1.0000 0.82319  0.90296  0.48499  Biso   1.000  C
  C83      1.0000 0.82731  0.70395  0.43970  Biso   1.000  C
  C84      1.0000 0.27897  0.41101  0.29791  Biso   1.000  C
  C85      1.0000 0.41422  0.35401  0.33791  Biso   1.000  C
  C86      1.0000 0.55011  0.27501  0.37601  Biso   1.000  C
  C87      1.0000 0.27163  0.77598  0.31530  Biso   1.000  C
  C88      1.0000 0.39513  0.92701  0.31568  Biso   1.000  C
  C89      1.0000 0.86938  0.79304  0.46811  Biso   1.000  C
  C90      1.0000 0.26312  0.55195  0.27670  Biso   1.000  C
  C91      1.0000 0.61610  0.38901  0.38941  Biso   1.000  C
  C92      1.0000 0.31030  0.68205  0.29161  Biso   1.000  C
  C93      1.0000 0.43701  0.83405  0.29091  Biso   1.000  C
  C94      1.0000 0.96133  0.76696  0.48149  Biso   1.000  C
  C95      1.0000 0.70752  0.34500  0.38279  Biso   1.000  C
  C96      1.0000 0.39488  0.70696  0.27791  Biso   1.000  C
  C97      1.0000 0.52900  0.85799  0.28129  Biso   1.000  C
  C98      1.0000 0.02770  0.80195  0.44868  Biso   1.000  C
  C99      1.0000 0.75279  0.26900  0.41349  Biso   1.000  C
  C100     1.0000 0.74902  0.38804  0.34820  Biso   1.000  C
  C101     1.0000 0.59221  0.76503  0.30731  Biso   1.000  C
  C102     1.0000 0.02580  0.71404  0.40951  Biso   1.000  C
  C103     1.0000 0.83829  0.23100  0.40719  Biso   1.000  C
  C104     1.0000 0.83649  0.35305  0.34320  Biso   1.000  C
  C105     1.0000 0.68582  0.78596  0.30059  Biso   1.000  C
  C106     1.0000 0.03400  0.56602  0.41311  Biso   1.000  C
  C107     1.0000 0.02027  0.77587  0.36919  Biso   1.000  C
  C108     1.0000 0.88058  0.27705  0.37180  Biso   1.000  C
  C109     1.0000 0.72892  0.71200  0.26941  Biso   1.000  C
  C110     1.0000 0.73158  0.89105  0.32199  Biso   1.000  C
  C111     1.0000 0.03462  0.48068  0.37661  Biso   1.000  C
  C112     1.0000 0.02110  0.69096  0.33301  Biso   1.000  C
  C113     1.0000 0.97040  0.23197  0.36358  Biso   1.000  C
  C114     1.0000 0.81632  0.73605  0.26348  Biso   1.000  C
  C115     1.0000 0.81920  0.91498  0.31540  Biso   1.000  C
  C116     1.0000 0.04469  0.32203  0.38021  Biso   1.000  C
  C117     1.0000 0.02888  0.54498  0.33699  Biso   1.000  C
  C118     1.0000 0.01920  0.75805  0.29011  Biso   1.000  C
  C119     1.0000 0.86010  0.83995  0.28591  Biso   1.000  C
  C120     1.0000 0.95222  0.87001  0.27829  Biso   1.000  C
  C121     1.0000 0.54779  0.37001  0.22170  Biso   1.000  C
  C122     1.0000 0.48082  0.25805  0.20991  Biso   1.000  C
  C123     1.0000 0.63992  0.33995  0.21409  Biso   1.000  C
  C124     1.0000 0.47891  0.19096  0.16701  Biso   1.000  C
  C125     1.0000 0.68369  0.23605  0.23651  Biso   1.000  C
  C126     1.0000 0.68082  0.41498  0.18459  Biso   1.000  C
  C127     1.0000 0.47968  0.27587  0.13080  Biso   1.000  C
  C128     1.0000 0.47107  0.04498  0.16300  Biso   1.000  C
  C129     1.0000 0.77109  0.21200  0.23058  Biso   1.000  C
  C130     1.0000 0.76843  0.39105  0.17800  Biso   1.000  C
  C131     1.0000 0.47422  0.21404  0.09051  Biso   1.000  C
  C132     1.0000 0.46540  0.98068  0.12341  Biso   1.000  C
  C133     1.0000 0.81420  0.28596  0.19940  Biso   1.000  C
  C134     1.0000 0.46602  0.06602  0.08692  Biso   1.000  C
  C135     1.0000 0.47232  0.30195  0.05131  Biso   1.000  C
  C136     1.0000 0.45532  0.82203  0.11981  Biso   1.000  C
  C137     1.0000 0.90781  0.26503  0.19268  Biso   1.000  C
  C138     1.0000 0.53868  0.26696  0.01850  Biso   1.000  C
  C139     1.0000 0.52961  0.73197  0.13641  Biso   1.000  C
  C140     1.0000 0.97102  0.35799  0.21870  Biso   1.000  C
  C141     1.0000 0.63063  0.29304  0.03191  Biso   1.000  C
  C142     1.0000 0.61937  0.77705  0.12819  Biso   1.000  C
  C143     1.0000 0.06300  0.33405  0.20909  Biso   1.000  C
  C144     1.0000 0.67682  0.40296  0.01500  Biso   1.000  C
  C145     1.0000 0.67270  0.20395  0.06029  Biso   1.000  C
  C146     1.0000 0.66172  0.73100  0.09281  Biso   1.000  C
  C147     1.0000 0.66352  0.85305  0.15679  Biso   1.000  C
  C148     1.0000 0.10513  0.20696  0.22211  Biso   1.000  C
  C149     1.0000 0.10488  0.42701  0.18431  Biso   1.000  C
  C150     1.0000 0.76488  0.42604  0.02631  Biso   1.000  C
  C151     1.0000 0.75930  0.23003  0.07201  Biso   1.000  C
  C152     1.0000 0.74723  0.76900  0.08650  Biso   1.000  C
  C153     1.0000 0.75099  0.88804  0.15179  Biso   1.000  C
  C154     1.0000 0.18972  0.18205  0.20839  Biso   1.000  C
  C155     1.0000 0.18883  0.40103  0.17249  Biso   1.000  C
  C156     1.0000 0.80441  0.33598  0.05538  Biso   1.000  C
  C157     1.0000 0.79250  0.84500  0.11720  Biso   1.000  C
  C158     1.0000 0.22838  0.27598  0.18469  Biso   1.000  C
  C159     1.0000 0.23689  0.05195  0.22329  Biso   1.000  C
  C160     1.0000 0.23501  0.50998  0.14730  Biso   1.000  C
  C161     1.0000 0.89711  0.35401  0.06841  Biso   1.000  C
  C162     1.0000 0.88392  0.88901  0.11061  Biso   1.000  C
  C163     1.0000 0.22098  0.91101  0.20211  Biso   1.000  C
  C164     1.0000 0.24202  0.50097  0.09991  Biso   1.000  C
  C165     1.0000 0.95858  0.35595  0.03210  Biso   1.000  C
  C166     1.0000 0.94991  0.77501  0.12399  Biso   1.000  C
  C167     1.0000 0.17081  0.89599  0.16170  Biso   1.000  C
  C168     1.0000 0.18730  0.39599  0.07621  Biso   1.000  C
  C169     1.0000 0.05123  0.32997  0.04271  Biso   1.000  C
  C170     1.0000 0.04070  0.82900  0.12399  Biso   1.000  C
  C171     1.0000 0.08579  0.85401  0.16211  Biso   1.000  C
  C172     1.0000 0.21033  0.92196  0.12360  Biso   1.000  C
  C173     1.0000 0.10071  0.42797  0.06631  Biso   1.000  C
  C174     1.0000 0.22219  0.27404  0.06281  Biso   1.000  C
  C175     1.0000 0.08941  0.21103  0.02841  Biso   1.000  C
  C176     1.0000 0.07997  0.85198  0.08701  Biso   1.000  C
  C177     1.0000 0.16628  0.89802  0.08650  Biso   1.000  C
  C178     1.0000 0.17430  0.18098  0.03972  Biso   1.000  C
  C179     1.0000 0.20998  0.91498  0.04570  Biso   1.000  C
  C180     1.0000 0.21602  0.05303  0.02169  Biso   1.000  C
  C181     1.0000 0.45217  0.62999  0.77829  Biso   1.000  C
  C182     1.0000 0.36011  0.66005  0.78590  Biso   1.000  C
  C183     1.0000 0.51921  0.74195  0.79010  Biso   1.000  C
  C184     1.0000 0.31628  0.76395  0.76351  Biso   1.000  C
  C185     1.0000 0.31921  0.58502  0.81539  Biso   1.000  C
  C186     1.0000 0.52112  0.80904  0.83300  Biso   1.000  C
  C187     1.0000 0.22887  0.78800  0.76940  Biso   1.000  C
  C188     1.0000 0.23160  0.60895  0.82201  Biso   1.000  C
  C189     1.0000 0.52028  0.72413  0.86921  Biso   1.000  C
  C190     1.0000 0.52889  0.95502  0.83702  Biso   1.000  C
  C191     1.0000 0.18583  0.71404  0.80061  Biso   1.000  C
  C192     1.0000 0.52581  0.78596  0.90950  Biso   1.000  C
  C193     1.0000 0.53463  0.01932  0.87660  Biso   1.000  C
  C194     1.0000 0.09222  0.73497  0.80730  Biso   1.000  C
  C195     1.0000 0.53401  0.93398  0.91310  Biso   1.000  C
  C196     1.0000 0.52771  0.69805  0.94871  Biso   1.000  C
  C197     1.0000 0.54471  0.17797  0.88020  Biso   1.000  C
  C198     1.0000 0.02901  0.64201  0.78131  Biso   1.000  C
  C199     1.0000 0.46128  0.73304  0.98151  Biso   1.000  C
  C200     1.0000 0.47042  0.26803  0.86361  Biso   1.000  C
  C201     1.0000 0.93703  0.66595  0.79090  Biso   1.000  C
  C202     1.0000 0.36940  0.70696  0.96810  Biso   1.000  C
  C203     1.0000 0.38059  0.22295  0.87179  Biso   1.000  C
  C204     1.0000 0.89490  0.79304  0.77790  Biso   1.000  C
  C205     1.0000 0.89508  0.57299  0.81571  Biso   1.000  C
  C206     1.0000 0.32320  0.59704  0.98498  Biso   1.000  C
  C207     1.0000 0.32733  0.79605  0.93970  Biso   1.000  C
  C208     1.0000 0.33831  0.26900  0.90721  Biso   1.000  C
  C209     1.0000 0.33651  0.14695  0.84319  Biso   1.000  C
  C210     1.0000 0.81031  0.81795  0.79160  Biso   1.000  C
  C211     1.0000 0.81120  0.59897  0.82749  Biso   1.000  C
  C212     1.0000 0.23509  0.57396  0.97371  Biso   1.000  C
  C213     1.0000 0.24073  0.76997  0.92801  Biso   1.000  C
  C214     1.0000 0.25280  0.23100  0.91352  Biso   1.000  C
  C215     1.0000 0.24897  0.11196  0.84819  Biso   1.000  C
  C216     1.0000 0.77158  0.72402  0.81529  Biso   1.000  C
  C217     1.0000 0.76307  0.94805  0.77669  Biso   1.000  C
  C218     1.0000 0.76502  0.49002  0.85268  Biso   1.000  C
  C219     1.0000 0.19561  0.66402  0.94460  Biso   1.000  C
  C220     1.0000 0.20747  0.15500  0.88281  Biso   1.000  C
  C221     1.0000 0.77899  0.08899  0.79790  Biso   1.000  C
  C222     1.0000 0.75801  0.49903  0.90011  Biso   1.000  C
  C223     1.0000 0.10292  0.64599  0.93161  Biso   1.000  C
  C224     1.0000 0.11611  0.11099  0.88941  Biso   1.000  C
  C225     1.0000 0.82921  0.10401  0.83829  Biso   1.000  C
  C226     1.0000 0.81273  0.60401  0.92380  Biso   1.000  C
  C227     1.0000 0.04139  0.64405  0.96791  Biso   1.000  C
  C228     1.0000 0.05012  0.22499  0.87600  Biso   1.000  C
  C229     1.0000 0.91417  0.14599  0.83791  Biso   1.000  C
  C230     1.0000 0.78970  0.07804  0.87641  Biso   1.000  C
  C231     1.0000 0.89932  0.57203  0.93371  Biso   1.000  C
  C232     1.0000 0.77778  0.72596  0.93721  Biso   1.000  C
  C233     1.0000 0.94880  0.67003  0.95731  Biso   1.000  C
  C234     1.0000 0.95932  0.17100  0.87600  Biso   1.000  C
  C235     1.0000 0.83369  0.10198  0.91352  Biso   1.000  C
  C236     1.0000 0.82567  0.81902  0.96030  Biso   1.000  C
  C237     1.0000 0.91062  0.78897  0.97161  Biso   1.000  C
  C238     1.0000 0.91999  0.14802  0.91301  Biso   1.000  C
  C239     1.0000 0.78998  0.08502  0.95431  Biso   1.000  C
  C240     1.0000 0.78401  0.94697  0.97830  Biso   1.000  C
  Ne1      1.0000 0.63083  0.64993  0.37525  Biso   1.000  Ne
  He1      1.0000 0.46476  0.65474  0.37106  Biso   1.000  He
  He2      1.0000 0.65189  0.79709  0.37005  Biso   1.000  He
  He3      1.0000 0.61449  0.50082  0.31697  Biso   1.000  He
  Ar1      1.0000 0.63040  0.64741  0.37543  Biso   1.000  Ar
  Ne2      1.0000 0.86917  0.14993  0.12476  Biso   1.000  Ne
  He4      1.0000 0.84433  0.08302  0.15198  Biso   1.000  He
  He5      1.0000 0.85067  0.30539  0.13047  Biso   1.000  He
  He6      1.0000 0.00688  0.14018  0.11426  Biso   1.000  He
  Ar2      1.0000 0.86963  0.14735  0.12458  Biso   1.000  Ar
  Ne3      1.0000 0.36917  0.35007  0.62476  Biso   1.000  Ne
  He7      1.0000 0.34453  0.41733  0.65213  Biso   1.000  He
  He8      1.0000 0.35835  0.16968  0.63202  Biso   1.000  He
  He9      1.0000 0.57334  0.35016  0.62063  Biso   1.000  He
  Ar3      1.0000 0.36969  0.35266  0.62460  Biso   1.000  Ar
  Ne4      1.0000 0.13084  0.85007  0.87525  Biso   1.000  Ne
  He10     1.0000 0.00204  0.88479  0.90221  Biso   1.000  He
  He11     1.0000 0.14233  0.67189  0.86812  Biso   1.000  He
  He12     1.0000 0.05819  0.01585  0.81323  Biso   1.000  He
  Ar4      1.0000 0.13037  0.85260  0.87543  Biso   1.000  Ar
