data_image0
_cell_length_a       17.861
_cell_length_b       17.674
_cell_length_c       19.284
_cell_angle_alpha    90
_cell_angle_beta     113.4
_cell_angle_gamma    90

_symmetry_space_group_name_H-M    "P 1"
_symmetry_int_tables_number       1

loop_
  _symmetry_equiv_pos_as_xyz
  'x, y, z'

loop_
  _atom_site_label
  _atom_site_occupancy
  _atom_site_fract_x
  _atom_site_fract_y
  _atom_site_fract_z
  _atom_site_thermal_displace_type
  _atom_site_B_iso_or_equiv
  _atom_site_type_symbol
  C1       1.0000 0.61375  0.50181  0.55769  Biso   1.000  C
  C2       1.0000 0.62828  0.44308  0.61013  Biso   1.000  C
  C3       1.0000 0.65538  0.56948  0.57685  Biso   1.000  C
  H1       1.0000 0.57505  0.49508  0.50870  Biso   1.000  H
  C4       1.0000 0.57968  0.37541  0.58713  Biso   1.000  C
  C5       1.0000 0.68703  0.45298  0.68160  Biso   1.000  C
  C6       1.0000 0.71368  0.57910  0.64974  Biso   1.000  C
  H2       1.0000 0.64451  0.60812  0.54130  Biso   1.000  H
  C7       1.0000 0.53576  0.32172  0.56554  Biso   1.000  C
  C8       1.0000 0.73178  0.51969  0.70291  Biso   1.000  C
  H3       1.0000 0.69735  0.41411  0.71664  Biso   1.000  H
  O1       1.0000 0.75335  0.64603  0.66770  Biso   1.000  O
  C9       1.0000 0.48032  0.25948  0.53729  Biso   1.000  C
  C10      1.0000 0.79177  0.53038  0.77975  Biso   1.000  C
  H4       1.0000 0.78599  0.64507  0.71195  Biso   1.000  H
  C11      1.0000 0.43434  0.24980  0.46062  Biso   1.000  C
  C12      1.0000 0.46843  0.20703  0.58583  Biso   1.000  C
  H5       1.0000 0.80336  0.49049  0.81382  Biso   1.000  H
  N1       1.0000 0.82895  0.59302  0.80145  Biso   1.000  N
  C13      1.0000 0.37775  0.19311  0.43270  Biso   1.000  C
  H6       1.0000 0.44213  0.28313  0.42683  Biso   1.000  H
  C14      1.0000 0.41295  0.14892  0.56012  Biso   1.000  C
  H7       1.0000 0.49917  0.21133  0.63753  Biso   1.000  H
  C15      1.0000 0.88765  0.60201  0.87931  Biso   1.000  C
  C16      1.0000 0.32815  0.18722  0.35230  Biso   1.000  C
  C17      1.0000 0.36593  0.14190  0.48361  Biso   1.000  C
  H8       1.0000 0.40705  0.11452  0.59414  Biso   1.000  H
  C18      1.0000 0.96844  0.62929  0.88140  Biso   1.000  C
  H9       1.0000 0.89508  0.55398  0.90553  Biso   1.000  H
  H10      1.0000 0.86675  0.63823  0.90513  Biso   1.000  H
  N2       1.0000 0.27323  0.13630  0.32490  Biso   1.000  N
  H11      1.0000 0.33663  0.22162  0.31958  Biso   1.000  H
  O2       1.0000 0.30932  0.08628  0.45971  Biso   1.000  O
  H12      1.0000 0.95927  0.67110  0.84631  Biso   1.000  H
  H13      1.0000 0.00150  0.64779  0.93174  Biso   1.000  H
  N3       1.0000 0.01276  0.56942  0.86151  Biso   1.000  N
  C19      1.0000 0.22230  0.13511  0.24398  Biso   1.000  C
  H14      1.0000 0.28575  0.08821  0.41349  Biso   1.000  H
  C20      1.0000 0.06485  0.59958  0.82422  Biso   1.000  C
  C21      1.0000 0.05997  0.52229  0.92643  Biso   1.000  C
  H15      1.0000 0.24374  0.17048  0.21810  Biso   1.000  H
  H16      1.0000 0.16733  0.15050  0.23551  Biso   1.000  H
  C22      1.0000 0.22069  0.05613  0.21240  Biso   1.000  C
  C23      1.0000 0.01555  0.61350  0.74110  Biso   1.000  C
  H17      1.0000 0.10818  0.56382  0.83021  Biso   1.000  H
  H18      1.0000 0.08976  0.64660  0.84835  Biso   1.000  H
  C24      1.0000 0.06558  0.44042  0.90411  Biso   1.000  C
  H19      1.0000 0.03477  0.52371  0.96271  Biso   1.000  H
  H20      1.0000 0.11456  0.54300  0.95084  Biso   1.000  H
  H21      1.0000 0.21024  0.01941  0.24483  Biso   1.000  H
  H22      1.0000 0.17695  0.05268  0.16262  Biso   1.000  H
  N4       1.0000 0.29895  0.03791  0.20703  Biso   1.000  N
  N5       1.0000 0.99417  0.54029  0.70234  Biso   1.000  N
  H23      1.0000 0.96634  0.64128  0.73432  Biso   1.000  H
  H24      1.0000 0.04716  0.64320  0.72014  Biso   1.000  H
  N6       1.0000 0.98836  0.40121  0.88750  Biso   1.000  N
  H25      1.0000 0.07877  0.43918  0.85993  Biso   1.000  H
  H26      1.0000 0.10888  0.41468  0.94491  Biso   1.000  H
  C25      1.0000 0.29880  0.05749  0.13278  Biso   1.000  C
  C26      1.0000 0.32502  0.95988  0.22839  Biso   1.000  C
  C27      1.0000 0.91993  0.52557  0.66002  Biso   1.000  C
  C28      1.0000 0.95276  0.36958  0.82354  Biso   1.000  C
  H27      1.0000 0.25748  0.09562  0.10888  Biso   1.000  H
  H28      1.0000 0.28531  0.01301  0.10080  Biso   1.000  H
  C29      1.0000 0.38129  0.08730  0.14092  Biso   1.000  C
  H29      1.0000 0.35954  0.94370  0.20313  Biso   1.000  H
  H30      1.0000 0.27750  0.92718  0.21211  Biso   1.000  H
  C30      1.0000 0.37164  0.95230  0.31348  Biso   1.000  C
  C31      1.0000 0.89917  0.45208  0.62114  Biso   1.000  C
  H31      1.0000 0.87935  0.56099  0.65392  Biso   1.000  H
  C32      1.0000 0.87710  0.32732  0.80495  Biso   1.000  C
  H32      1.0000 0.97535  0.37349  0.78783  Biso   1.000  H
  H33      1.0000 0.42350  0.05222  0.17081  Biso   1.000  H
  H34      1.0000 0.38302  0.09149  0.09142  Biso   1.000  H
  N7       1.0000 0.39629  0.16069  0.17720  Biso   1.000  N
  H35      1.0000 0.34100  0.97618  0.33930  Biso   1.000  H
  H36      1.0000 0.37825  0.89917  0.32733  Biso   1.000  H
  N8       1.0000 0.45185  0.98812  0.33682  Biso   1.000  N
  C33      1.0000 0.81934  0.43601  0.57142  Biso   1.000  C
  C34      1.0000 0.95975  0.39731  0.63329  Biso   1.000  C
  C35      1.0000 0.83955  0.29252  0.73410  Biso   1.000  C
  C36      1.0000 0.84195  0.31979  0.85801  Biso   1.000  C
  C37      1.0000 0.46229  0.17110  0.23528  Biso   1.000  C
  C38      1.0000 0.47783  0.02970  0.39530  Biso   1.000  C
  C39      1.0000 0.79837  0.36738  0.53334  Biso   1.000  C
  H37      1.0000 0.77894  0.47211  0.56351  Biso   1.000  H
  C40      1.0000 0.93844  0.32862  0.59481  Biso   1.000  C
  O3       1.0000 0.03758  0.41021  0.67980  Biso   1.000  O
  C41      1.0000 0.76746  0.25139  0.71562  Biso   1.000  C
  H38      1.0000 0.86296  0.29682  0.69912  Biso   1.000  H
  C42      1.0000 0.77076  0.27832  0.84004  Biso   1.000  C
  O4       1.0000 0.87547  0.35159  0.92717  Biso   1.000  O
  H39      1.0000 0.49985  0.13178  0.25302  Biso   1.000  H
  C43      1.0000 0.47953  0.24448  0.27483  Biso   1.000  C
  H40      1.0000 0.44445  0.03932  0.42101  Biso   1.000  H
  C44      1.0000 0.55955  0.06258  0.42282  Biso   1.000  C
  C45      1.0000 0.71726  0.35272  0.47972  Biso   1.000  C
  C46      1.0000 0.85934  0.31447  0.54639  Biso   1.000  C
  H41      1.0000 0.97838  0.29201  0.60205  Biso   1.000  H
  H42      1.0000 0.04146  0.45247  0.69850  Biso   1.000  H
  C47      1.0000 0.73049  0.21370  0.64414  Biso   1.000  C
  C48      1.0000 0.73325  0.24528  0.76941  Biso   1.000  C
  H43      1.0000 0.74817  0.27260  0.87564  Biso   1.000  H
  H44      1.0000 0.91698  0.37450  0.93141  Biso   1.000  H
  C49      1.0000 0.42132  0.30321  0.25138  Biso   1.000  C
  C50      1.0000 0.55394  0.25699  0.33529  Biso   1.000  C
  C51      1.0000 0.61200  0.04900  0.38569  Biso   1.000  C
  C52      1.0000 0.58882  0.10597  0.48859  Biso   1.000  C
  C53      1.0000 0.65085  0.33948  0.43152  Biso   1.000  C
  H45      1.0000 0.84644  0.26802  0.52192  Biso   1.000  H
  C54      1.0000 0.69954  0.17908  0.58634  Biso   1.000  C
  H46      1.0000 0.68474  0.21880  0.75760  Biso   1.000  H
  C55      1.0000 0.43904  0.37190  0.28930  Biso   1.000  C
  O5       1.0000 0.34880  0.29444  0.19324  Biso   1.000  O
  C56      1.0000 0.57233  0.32619  0.37219  Biso   1.000  C
  H47      1.0000 0.59201  0.21812  0.35123  Biso   1.000  H
  C57      1.0000 0.68993  0.07768  0.41349  Biso   1.000  C
  O6       1.0000 0.58671  0.00753  0.32111  Biso   1.000  O
  C58      1.0000 0.66746  0.13528  0.51752  Biso   1.000  C
  H48      1.0000 0.55487  0.11559  0.51373  Biso   1.000  H
  H49      1.0000 0.40071  0.41072  0.27461  Biso   1.000  H
  C59      1.0000 0.51314  0.38282  0.34851  Biso   1.000  C
  H50      1.0000 0.34583  0.25173  0.17573  Biso   1.000  H
  H51      1.0000 0.72380  0.06841  0.38829  Biso   1.000  H
  C60      1.0000 0.71775  0.12052  0.47864  Biso   1.000  C
  H52      1.0000 0.53964  0.99349  0.31004  Biso   1.000  H
  H53      1.0000 0.52405  0.42922  0.37343  Biso   1.000  H
  H54      1.0000 0.77053  0.13970  0.49701  Biso   1.000  H
  C61      1.0000 0.38634  0.49819  0.44231  Biso   1.000  C
  C62      1.0000 0.34473  0.43052  0.42321  Biso   1.000  C
  C63      1.0000 0.37183  0.55692  0.38993  Biso   1.000  C
  H55      1.0000 0.42504  0.50492  0.49130  Biso   1.000  H
  C64      1.0000 0.28643  0.42090  0.35032  Biso   1.000  C
  H56      1.0000 0.35552  0.39188  0.45870  Biso   1.000  H
  C65      1.0000 0.31300  0.54702  0.31840  Biso   1.000  C
  C66      1.0000 0.42044  0.62459  0.41293  Biso   1.000  C
  O7       1.0000 0.24674  0.35397  0.33230  Biso   1.000  O
  C67      1.0000 0.26831  0.48031  0.29710  Biso   1.000  C
  H57      1.0000 0.30271  0.58589  0.28342  Biso   1.000  H
  C68      1.0000 0.46435  0.67828  0.43451  Biso   1.000  C
  H58      1.0000 0.21413  0.35493  0.28811  Biso   1.000  H
  C69      1.0000 0.20834  0.46962  0.22031  Biso   1.000  C
  C70      1.0000 0.51972  0.74052  0.46271  Biso   1.000  C
  H59      1.0000 0.19668  0.50951  0.18618  Biso   1.000  H
  N9       1.0000 0.17110  0.40698  0.19861  Biso   1.000  N
  C71      1.0000 0.56578  0.75020  0.53944  Biso   1.000  C
  C72      1.0000 0.53163  0.79297  0.41423  Biso   1.000  C
  C73      1.0000 0.11239  0.39799  0.12069  Biso   1.000  C
  H60      1.0000 0.55793  0.71687  0.57323  Biso   1.000  H
  C74      1.0000 0.62234  0.80689  0.56730  Biso   1.000  C
  C75      1.0000 0.58716  0.85108  0.43994  Biso   1.000  C
  H61      1.0000 0.50095  0.78867  0.36253  Biso   1.000  H
  C76      1.0000 0.03160  0.37071  0.11860  Biso   1.000  C
  H62      1.0000 0.10503  0.44602  0.09453  Biso   1.000  H
  H63      1.0000 0.13331  0.36177  0.09493  Biso   1.000  H
  C77      1.0000 0.63413  0.85810  0.51644  Biso   1.000  C
  C78      1.0000 0.67194  0.81278  0.64770  Biso   1.000  C
  H64      1.0000 0.59301  0.88548  0.40592  Biso   1.000  H
  H65      1.0000 0.04082  0.32890  0.15369  Biso   1.000  H
  H66      1.0000 0.99861  0.35221  0.06831  Biso   1.000  H
  N10      1.0000 0.98733  0.43058  0.13849  Biso   1.000  N
  O8       1.0000 0.69074  0.91372  0.54034  Biso   1.000  O
  H67      1.0000 0.66346  0.77838  0.68042  Biso   1.000  H
  N11      1.0000 0.72686  0.86370  0.67511  Biso   1.000  N
  C79      1.0000 0.93518  0.40042  0.17578  Biso   1.000  C
  C80      1.0000 0.94014  0.47771  0.07362  Biso   1.000  C
  H68      1.0000 0.71434  0.91179  0.58651  Biso   1.000  H
  C81      1.0000 0.77779  0.86489  0.75602  Biso   1.000  C
  C82      1.0000 0.98454  0.38650  0.25890  Biso   1.000  C
  H69      1.0000 0.89191  0.43618  0.16979  Biso   1.000  H
  H70      1.0000 0.91030  0.35340  0.15171  Biso   1.000  H
  C83      1.0000 0.93451  0.55958  0.09589  Biso   1.000  C
  H71      1.0000 0.96532  0.47629  0.03729  Biso   1.000  H
  H72      1.0000 0.88550  0.45700  0.04921  Biso   1.000  H
  H73      1.0000 0.75635  0.82952  0.78190  Biso   1.000  H
  H74      1.0000 0.83279  0.84950  0.76455  Biso   1.000  H
  C84      1.0000 0.77935  0.94387  0.78760  Biso   1.000  C
  H75      1.0000 0.03369  0.35872  0.26568  Biso   1.000  H
  N12      1.0000 0.00594  0.45971  0.29772  Biso   1.000  N
  H76      1.0000 0.95290  0.35680  0.27992  Biso   1.000  H
  N13      1.0000 0.01173  0.59879  0.11250  Biso   1.000  N
  H77      1.0000 0.92135  0.56082  0.14013  Biso   1.000  H
  H78      1.0000 0.89121  0.58532  0.05509  Biso   1.000  H
  H79      1.0000 0.78988  0.98059  0.75523  Biso   1.000  H
  H80      1.0000 0.82317  0.94732  0.83744  Biso   1.000  H
  N14      1.0000 0.70116  0.96209  0.79303  Biso   1.000  N
  C85      1.0000 0.08011  0.47443  0.33998  Biso   1.000  C
  C86      1.0000 0.04730  0.63042  0.17652  Biso   1.000  C
  C87      1.0000 0.70129  0.94251  0.86722  Biso   1.000  C
  C88      1.0000 0.67507  0.04012  0.77161  Biso   1.000  C
  C89      1.0000 0.10094  0.54792  0.37891  Biso   1.000  C
  H81      1.0000 0.12074  0.43901  0.34608  Biso   1.000  H
  C90      1.0000 0.12302  0.67268  0.19511  Biso   1.000  C
  H82      1.0000 0.02471  0.62651  0.21223  Biso   1.000  H
  H83      1.0000 0.74255  0.90438  0.89112  Biso   1.000  H
  H84      1.0000 0.71480  0.98699  0.89926  Biso   1.000  H
  C91      1.0000 0.61877  0.91270  0.85914  Biso   1.000  C
  H85      1.0000 0.64058  0.05630  0.79693  Biso   1.000  H
  H86      1.0000 0.72255  0.07282  0.78794  Biso   1.000  H
  C92      1.0000 0.62845  0.04770  0.68652  Biso   1.000  C
  C93      1.0000 0.04034  0.60269  0.36671  Biso   1.000  C
  C94      1.0000 0.18077  0.56399  0.42864  Biso   1.000  C
  C95      1.0000 0.16054  0.70748  0.26591  Biso   1.000  C
  C96      1.0000 0.15808  0.68021  0.14199  Biso   1.000  C
  H87      1.0000 0.57656  0.94778  0.82925  Biso   1.000  H
  H88      1.0000 0.61709  0.90851  0.90863  Biso   1.000  H
  N15      1.0000 0.60375  0.83931  0.82281  Biso   1.000  N
  H89      1.0000 0.65903  0.02382  0.66070  Biso   1.000  H
  H90      1.0000 0.62187  0.10083  0.67273  Biso   1.000  H
  N16      1.0000 0.54826  0.01188  0.66324  Biso   1.000  N
  C97      1.0000 0.06160  0.67138  0.40519  Biso   1.000  C
  O9       1.0000 0.96253  0.58979  0.32026  Biso   1.000  O
  C98      1.0000 0.20175  0.63262  0.46672  Biso   1.000  C
  H91      1.0000 0.22115  0.52789  0.43649  Biso   1.000  H
  C99      1.0000 0.23263  0.74861  0.28438  Biso   1.000  C
  H92      1.0000 0.13713  0.70318  0.30088  Biso   1.000  H
  C100     1.0000 0.22930  0.72168  0.16002  Biso   1.000  C
  O10      1.0000 0.12464  0.64841  0.07289  Biso   1.000  O
  C101     1.0000 0.53775  0.82890  0.76472  Biso   1.000  C
  C102     1.0000 0.52226  0.97030  0.60470  Biso   1.000  C
  C103     1.0000 0.14076  0.68553  0.45361  Biso   1.000  C
  H93      1.0000 0.02174  0.70799  0.39801  Biso   1.000  H
  H94      1.0000 0.95863  0.54753  0.30150  Biso   1.000  H
  C104     1.0000 0.28286  0.64728  0.52034  Biso   1.000  C
  C105     1.0000 0.26963  0.78630  0.35592  Biso   1.000  C
  C106     1.0000 0.26684  0.75472  0.23059  Biso   1.000  C
  H95      1.0000 0.25194  0.72740  0.12442  Biso   1.000  H
  H96      1.0000 0.08311  0.62550  0.06860  Biso   1.000  H
  C107     1.0000 0.52059  0.75552  0.72522  Biso   1.000  C
  H97      1.0000 0.50027  0.86822  0.74703  Biso   1.000  H
  C108     1.0000 0.44056  0.93742  0.57724  Biso   1.000  C
  H98      1.0000 0.55564  0.96068  0.57899  Biso   1.000  H
  H99      1.0000 0.15362  0.73198  0.47813  Biso   1.000  H
  C109     1.0000 0.34926  0.66052  0.56854  Biso   1.000  C
  C110     1.0000 0.30052  0.82092  0.41372  Biso   1.000  C
  H100     1.0000 0.31529  0.78120  0.24240  Biso   1.000  H
  C111     1.0000 0.44615  0.74301  0.66471  Biso   1.000  C
  C112     1.0000 0.57877  0.69679  0.74862  Biso   1.000  C
  C113     1.0000 0.41122  0.89403  0.51141  Biso   1.000  C
  C114     1.0000 0.38804  0.95100  0.61431  Biso   1.000  C
  C115     1.0000 0.42776  0.67381  0.62781  Biso   1.000  C
  C116     1.0000 0.33266  0.86472  0.48254  Biso   1.000  C
  H101     1.0000 0.40805  0.78188  0.64883  Biso   1.000  H
  C117     1.0000 0.56105  0.62810  0.71070  Biso   1.000  C
  O11      1.0000 0.65126  0.70556  0.80682  Biso   1.000  O
  H102     1.0000 0.44525  0.88441  0.48633  Biso   1.000  H
  C118     1.0000 0.31016  0.92232  0.58651  Biso   1.000  C
  O12      1.0000 0.41335  0.99247  0.67895  Biso   1.000  O
  C119     1.0000 0.48698  0.61718  0.65154  Biso   1.000  C
  C120     1.0000 0.28236  0.87948  0.52142  Biso   1.000  C
  H103     1.0000 0.59935  0.58928  0.72545  Biso   1.000  H
  H104     1.0000 0.65429  0.74827  0.82433  Biso   1.000  H
  H105     1.0000 0.27623  0.93159  0.61171  Biso   1.000  H
  H106     1.0000 0.46048  0.00651  0.69002  Biso   1.000  H
  H107     1.0000 0.47607  0.57078  0.62663  Biso   1.000  H
  H108     1.0000 0.22951  0.86030  0.50300  Biso   1.000  H
  C121     1.0000 0.77072  0.22168  0.33998  Biso   1.000  C
  C122     1.0000 0.84194  0.18021  0.35801  Biso   1.000  C
  C123     1.0000 0.73323  0.25472  0.26941  Biso   1.000  C
  H109     1.0000 0.74816  0.22740  0.37564  Biso   1.000  H
  C124     1.0000 0.87700  0.17268  0.30489  Biso   1.000  C
  O13      1.0000 0.87546  0.14841  0.42717  Biso   1.000  O
  C125     1.0000 0.76744  0.24861  0.21562  Biso   1.000  C
  H110     1.0000 0.68472  0.28120  0.25760  Biso   1.000  H
  C126     1.0000 0.95271  0.13042  0.32348  Biso   1.000  C
  C127     1.0000 0.83953  0.20748  0.23409  Biso   1.000  C
  H111     1.0000 0.91691  0.12550  0.43141  Biso   1.000  H
  C128     1.0000 0.73039  0.28630  0.14408  Biso   1.000  C
  N17      1.0000 0.98834  0.09879  0.38750  Biso   1.000  N
  H112     1.0000 0.97533  0.12651  0.28783  Biso   1.000  H
  H113     1.0000 0.86294  0.20318  0.19912  Biso   1.000  H
  C129     1.0000 0.69950  0.32092  0.08628  Biso   1.000  C
  C130     1.0000 0.06556  0.05958  0.40411  Biso   1.000  C
  C131     1.0000 0.66738  0.36472  0.01752  Biso   1.000  C
  C132     1.0000 0.05996  0.97771  0.42643  Biso   1.000  C
  H114     1.0000 0.07875  0.06082  0.35993  Biso   1.000  H
  H115     1.0000 0.10886  0.08532  0.44491  Biso   1.000  H
  C133     1.0000 0.58888  0.39403  0.98864  Biso   1.000  C
  C134     1.0000 0.71779  0.37948  0.97864  Biso   1.000  C
  N18      1.0000 0.01275  0.93058  0.36151  Biso   1.000  N
  H116     1.0000 0.03475  0.97629  0.46271  Biso   1.000  H
  H117     1.0000 0.11452  0.95700  0.45079  Biso   1.000  H
  C135     1.0000 0.55959  0.43742  0.92282  Biso   1.000  C
  H118     1.0000 0.55477  0.38441  0.01367  Biso   1.000  H
  C136     1.0000 0.68999  0.42232  0.91355  Biso   1.000  C
  H119     1.0000 0.77062  0.36030  0.99701  Biso   1.000  H
  C137     1.0000 0.96842  0.87071  0.38140  Biso   1.000  C
  C138     1.0000 0.06484  0.90042  0.32422  Biso   1.000  C
  C139     1.0000 0.47786  0.47030  0.89530  Biso   1.000  C
  C140     1.0000 0.61212  0.45100  0.88575  Biso   1.000  C
  H120     1.0000 0.72392  0.43159  0.88835  Biso   1.000  H
  C141     1.0000 0.88763  0.89799  0.37931  Biso   1.000  C
  H121     1.0000 0.95926  0.82890  0.34631  Biso   1.000  H
  H122     1.0000 0.00141  0.85221  0.43169  Biso   1.000  H
  C142     1.0000 0.01554  0.88650  0.24110  Biso   1.000  C
  H123     1.0000 0.10811  0.93618  0.33021  Biso   1.000  H
  H124     1.0000 0.08972  0.85340  0.34829  Biso   1.000  H
  N19      1.0000 0.45189  0.51188  0.83682  Biso   1.000  N
  H125     1.0000 0.44449  0.46068  0.92101  Biso   1.000  H
  O14      1.0000 0.58681  0.49247  0.82111  Biso   1.000  O
  N20      1.0000 0.82891  0.90698  0.30139  Biso   1.000  N
  H126     1.0000 0.89507  0.94602  0.40553  Biso   1.000  H
  H127     1.0000 0.86673  0.86177  0.40513  Biso   1.000  H
  H128     1.0000 0.96633  0.85872  0.23432  Biso   1.000  H
  N21      1.0000 0.99413  0.95971  0.20228  Biso   1.000  N
  H129     1.0000 0.04711  0.85680  0.22008  Biso   1.000  H
  C143     1.0000 0.37170  0.54770  0.81354  Biso   1.000  C
  H130     1.0000 0.53967  0.50651  0.81003  Biso   1.000  H
  C144     1.0000 0.79173  0.96962  0.27969  Biso   1.000  C
  C145     1.0000 0.91991  0.97443  0.16002  Biso   1.000  C
  C146     1.0000 0.32508  0.54012  0.72844  Biso   1.000  C
  H131     1.0000 0.34109  0.52382  0.83930  Biso   1.000  H
  H132     1.0000 0.37829  0.60083  0.82732  Biso   1.000  H
  C147     1.0000 0.73170  0.98031  0.20290  Biso   1.000  C
  H133     1.0000 0.80334  0.00951  0.31382  Biso   1.000  H
  C148     1.0000 0.89913  0.04792  0.12109  Biso   1.000  C
  H134     1.0000 0.87933  0.93901  0.15392  Biso   1.000  H
  N22      1.0000 0.29899  0.46209  0.70703  Biso   1.000  N
  H135     1.0000 0.35958  0.55630  0.70313  Biso   1.000  H
  H136     1.0000 0.27760  0.57282  0.71211  Biso   1.000  H
  C149     1.0000 0.68702  0.04702  0.18160  Biso   1.000  C
  C150     1.0000 0.71358  0.92090  0.14968  Biso   1.000  C
  C151     1.0000 0.95968  0.10269  0.13329  Biso   1.000  C
  C152     1.0000 0.81933  0.06399  0.07142  Biso   1.000  C
  C153     1.0000 0.22078  0.44387  0.71240  Biso   1.000  C
  C154     1.0000 0.29887  0.44251  0.63284  Biso   1.000  C
  C155     1.0000 0.62821  0.05692  0.11013  Biso   1.000  C
  H137     1.0000 0.69731  0.08589  0.21658  Biso   1.000  H
  C156     1.0000 0.65529  0.93052  0.07679  Biso   1.000  C
  O15      1.0000 0.75328  0.85397  0.16770  Biso   1.000  O
  C157     1.0000 0.93842  0.17138  0.09481  Biso   1.000  C
  O16      1.0000 0.03751  0.08979  0.17979  Biso   1.000  O
  C158     1.0000 0.79827  0.13262  0.03328  Biso   1.000  C
  H138     1.0000 0.77893  0.02789  0.06351  Biso   1.000  H
  C159     1.0000 0.22237  0.36489  0.74404  Biso   1.000  C
  H139     1.0000 0.21028  0.48059  0.74483  Biso   1.000  H
  H140     1.0000 0.17698  0.44732  0.66262  Biso   1.000  H
  H141     1.0000 0.25760  0.40438  0.60894  Biso   1.000  H
  H142     1.0000 0.28535  0.48699  0.60080  Biso   1.000  H
  C160     1.0000 0.38139  0.41270  0.64092  Biso   1.000  C
  C161     1.0000 0.57960  0.12459  0.08713  Biso   1.000  C
  C162     1.0000 0.61367  0.99819  0.05769  Biso   1.000  C
  H143     1.0000 0.64450  0.89188  0.04130  Biso   1.000  H
  H144     1.0000 0.78589  0.85493  0.21189  Biso   1.000  H
  C163     1.0000 0.85932  0.18553  0.04639  Biso   1.000  C
  H145     1.0000 0.97828  0.20799  0.10199  Biso   1.000  H
  H146     1.0000 0.04139  0.04753  0.19850  Biso   1.000  H
  C164     1.0000 0.71730  0.14728  0.97972  Biso   1.000  C
  N23      1.0000 0.27330  0.36370  0.82495  Biso   1.000  N
  H147     1.0000 0.24378  0.32952  0.71810  Biso   1.000  H
  H148     1.0000 0.16737  0.34950  0.73551  Biso   1.000  H
  H149     1.0000 0.42360  0.44778  0.67081  Biso   1.000  H
  H150     1.0000 0.38306  0.40851  0.59142  Biso   1.000  H
  N24      1.0000 0.39638  0.33931  0.67719  Biso   1.000  N
  C165     1.0000 0.53572  0.17828  0.06549  Biso   1.000  C
  H151     1.0000 0.57498  0.00492  0.00870  Biso   1.000  H
  H152     1.0000 0.84642  0.23198  0.02192  Biso   1.000  H
  C166     1.0000 0.65089  0.16052  0.93152  Biso   1.000  C
  C167     1.0000 0.32819  0.31278  0.85230  Biso   1.000  C
  C168     1.0000 0.46241  0.32890  0.73534  Biso   1.000  C
  C169     1.0000 0.48030  0.24052  0.03729  Biso   1.000  C
  C170     1.0000 0.57240  0.17381  0.87225  Biso   1.000  C
  C171     1.0000 0.37778  0.30689  0.93270  Biso   1.000  C
  H153     1.0000 0.33669  0.27838  0.81964  Biso   1.000  H
  H154     1.0000 0.49989  0.36822  0.75302  Biso   1.000  H
  C172     1.0000 0.47957  0.25552  0.77483  Biso   1.000  C
  C173     1.0000 0.46841  0.29297  0.08583  Biso   1.000  C
  C174     1.0000 0.43438  0.25020  0.96062  Biso   1.000  C
  C175     1.0000 0.55400  0.24301  0.83535  Biso   1.000  C
  C176     1.0000 0.51318  0.11718  0.84851  Biso   1.000  C
  C177     1.0000 0.36602  0.35810  0.98361  Biso   1.000  C
  C178     1.0000 0.42139  0.19679  0.75144  Biso   1.000  C
  C179     1.0000 0.41294  0.35108  0.06012  Biso   1.000  C
  H155     1.0000 0.49915  0.28867  0.13753  Biso   1.000  H
  H156     1.0000 0.44223  0.21687  0.92683  Biso   1.000  H
  H157     1.0000 0.59211  0.28188  0.85123  Biso   1.000  H
  C180     1.0000 0.43907  0.12810  0.78930  Biso   1.000  C
  H158     1.0000 0.52408  0.07078  0.87343  Biso   1.000  H
  O17      1.0000 0.30941  0.41372  0.95971  Biso   1.000  O
  O18      1.0000 0.34890  0.20556  0.69324  Biso   1.000  O
  H159     1.0000 0.40700  0.38548  0.09408  Biso   1.000  H
  H160     1.0000 0.40081  0.08928  0.77461  Biso   1.000  H
  H161     1.0000 0.28581  0.41179  0.91355  Biso   1.000  H
  H162     1.0000 0.34587  0.24827  0.67573  Biso   1.000  H
  C181     1.0000 0.22937  0.77832  0.66002  Biso   1.000  C
  C182     1.0000 0.15815  0.81979  0.64199  Biso   1.000  C
  H163     1.0000 0.25196  0.77260  0.62442  Biso   1.000  H
  C183     1.0000 0.26688  0.74528  0.73065  Biso   1.000  C
  C184     1.0000 0.12304  0.82732  0.69511  Biso   1.000  C
  O19      1.0000 0.12466  0.85159  0.57289  Biso   1.000  O
  C185     1.0000 0.23267  0.75139  0.78444  Biso   1.000  C
  H164     1.0000 0.31537  0.71880  0.74240  Biso   1.000  H
  C186     1.0000 0.16056  0.79252  0.76591  Biso   1.000  C
  C187     1.0000 0.04738  0.86958  0.67652  Biso   1.000  C
  H165     1.0000 0.08312  0.87450  0.56860  Biso   1.000  H
  C188     1.0000 0.26964  0.71370  0.85592  Biso   1.000  C
  H166     1.0000 0.13717  0.79682  0.80094  Biso   1.000  H
  H167     1.0000 0.02478  0.87349  0.71223  Biso   1.000  H
  N25      1.0000 0.01175  0.90121  0.61250  Biso   1.000  N
  C189     1.0000 0.30059  0.67908  0.91372  Biso   1.000  C
  C190     1.0000 0.93456  0.94042  0.59594  Biso   1.000  C
  C191     1.0000 0.33267  0.63528  0.98254  Biso   1.000  C
  H168     1.0000 0.92136  0.93918  0.64013  Biso   1.000  H
  H169     1.0000 0.89123  0.91468  0.55509  Biso   1.000  H
  C192     1.0000 0.94016  0.02229  0.57362  Biso   1.000  C
  C193     1.0000 0.28227  0.62052  0.02142  Biso   1.000  C
  C194     1.0000 0.41118  0.60597  0.01141  Biso   1.000  C
  H170     1.0000 0.96534  0.02371  0.53729  Biso   1.000  H
  H171     1.0000 0.88552  0.04300  0.54922  Biso   1.000  H
  N26      1.0000 0.98737  0.06942  0.63855  Biso   1.000  N
  C195     1.0000 0.31007  0.57768  0.08651  Biso   1.000  C
  H172     1.0000 0.22947  0.63970  0.00300  Biso   1.000  H
  H173     1.0000 0.44527  0.61559  0.98633  Biso   1.000  H
  C196     1.0000 0.44050  0.56258  0.07719  Biso   1.000  C
  C197     1.0000 0.93528  0.09958  0.67584  Biso   1.000  C
  C198     1.0000 0.03167  0.12929  0.61860  Biso   1.000  C
  C199     1.0000 0.38800  0.54900  0.11431  Biso   1.000  C
  H174     1.0000 0.27620  0.56841  0.11171  Biso   1.000  H
  C200     1.0000 0.52217  0.52970  0.10470  Biso   1.000  C
  C201     1.0000 0.98455  0.11350  0.75890  Biso   1.000  C
  H175     1.0000 0.89193  0.06382  0.66979  Biso   1.000  H
  H176     1.0000 0.91037  0.14660  0.65171  Biso   1.000  H
  H177     1.0000 0.99863  0.14779  0.56831  Biso   1.000  H
  H178     1.0000 0.04086  0.17110  0.65375  Biso   1.000  H
  C202     1.0000 0.11246  0.10201  0.62069  Biso   1.000  C
  O20      1.0000 0.41331  0.50753  0.17895  Biso   1.000  O
  H179     1.0000 0.55560  0.53932  0.07899  Biso   1.000  H
  N27      1.0000 0.54820  0.48812  0.16318  Biso   1.000  N
  H180     1.0000 0.95298  0.14320  0.77992  Biso   1.000  H
  H181     1.0000 0.03379  0.14128  0.76574  Biso   1.000  H
  N28      1.0000 0.00596  0.04029  0.79772  Biso   1.000  N
  H182     1.0000 0.10505  0.05398  0.59453  Biso   1.000  H
  H183     1.0000 0.13338  0.13823  0.59493  Biso   1.000  H
  N29      1.0000 0.17118  0.09302  0.69861  Biso   1.000  N
  H184     1.0000 0.46038  0.49349  0.19002  Biso   1.000  H
  C203     1.0000 0.62841  0.45230  0.18652  Biso   1.000  C
  C204     1.0000 0.08015  0.02557  0.84004  Biso   1.000  C
  C205     1.0000 0.20836  0.03038  0.72031  Biso   1.000  C
  C206     1.0000 0.67498  0.45988  0.27161  Biso   1.000  C
  H185     1.0000 0.65900  0.47618  0.16070  Biso   1.000  H
  H186     1.0000 0.62183  0.39917  0.17273  Biso   1.000  H
  C207     1.0000 0.10096  0.95208  0.87891  Biso   1.000  C
  H187     1.0000 0.12078  0.06099  0.84614  Biso   1.000  H
  H188     1.0000 0.19678  0.99049  0.68624  Biso   1.000  H
  C208     1.0000 0.26833  0.01969  0.79710  Biso   1.000  C
  H189     1.0000 0.64048  0.44370  0.29693  Biso   1.000  H
  H190     1.0000 0.72249  0.42718  0.28789  Biso   1.000  H
  N30      1.0000 0.70112  0.53791  0.29303  Biso   1.000  N
  C209     1.0000 0.04035  0.89731  0.86671  Biso   1.000  C
  C210     1.0000 0.18079  0.93601  0.92864  Biso   1.000  C
  C211     1.0000 0.31307  0.95298  0.81840  Biso   1.000  C
  C212     1.0000 0.28645  0.07910  0.85032  Biso   1.000  C
  C213     1.0000 0.70119  0.55749  0.36722  Biso   1.000  C
  C214     1.0000 0.77931  0.55613  0.28760  Biso   1.000  C
  C215     1.0000 0.06169  0.82862  0.90524  Biso   1.000  C
  O21      1.0000 0.96255  0.91021  0.82026  Biso   1.000  O
  C216     1.0000 0.20177  0.86738  0.96672  Biso   1.000  C
  H191     1.0000 0.22119  0.97211  0.93655  Biso   1.000  H
  C217     1.0000 0.37185  0.94308  0.88993  Biso   1.000  C
  H192     1.0000 0.30278  0.91411  0.78342  Biso   1.000  H
  C218     1.0000 0.34475  0.06948  0.92321  Biso   1.000  C
  O22      1.0000 0.24675  0.14603  0.83230  Biso   1.000  O
  H193     1.0000 0.74251  0.59562  0.39112  Biso   1.000  H
  H194     1.0000 0.71468  0.51301  0.39920  Biso   1.000  H
  C219     1.0000 0.61873  0.58730  0.35914  Biso   1.000  C
  C220     1.0000 0.77769  0.63511  0.25602  Biso   1.000  C
  H195     1.0000 0.78978  0.51941  0.25523  Biso   1.000  H
  H196     1.0000 0.82311  0.55268  0.33738  Biso   1.000  H
  C221     1.0000 0.14077  0.81447  0.95361  Biso   1.000  C
  H197     1.0000 0.02175  0.79201  0.89801  Biso   1.000  H
  H198     1.0000 0.95865  0.95247  0.80150  Biso   1.000  H
  C222     1.0000 0.28279  0.85272  0.02029  Biso   1.000  C
  C223     1.0000 0.42046  0.87541  0.91293  Biso   1.000  C
  C224     1.0000 0.38636  0.00181  0.94231  Biso   1.000  C
  H199     1.0000 0.35556  0.10812  0.95875  Biso   1.000  H
  H200     1.0000 0.21414  0.14507  0.78811  Biso   1.000  H
  H201     1.0000 0.57649  0.55222  0.32919  Biso   1.000  H
  H202     1.0000 0.61700  0.59149  0.40864  Biso   1.000  H
  N31      1.0000 0.60371  0.66069  0.32281  Biso   1.000  N
  H203     1.0000 0.75631  0.67048  0.28190  Biso   1.000  H
  H204     1.0000 0.83267  0.65050  0.26449  Biso   1.000  H
  N32      1.0000 0.72682  0.63630  0.17511  Biso   1.000  N
  H205     1.0000 0.15369  0.76802  0.97813  Biso   1.000  H
  C225     1.0000 0.34920  0.83948  0.06848  Biso   1.000  C
  C226     1.0000 0.46437  0.82172  0.93451  Biso   1.000  C
  H206     1.0000 0.42508  0.99508  0.99136  Biso   1.000  H
  C227     1.0000 0.53771  0.67110  0.26472  Biso   1.000  C
  C228     1.0000 0.67190  0.68722  0.14770  Biso   1.000  C
  C229     1.0000 0.42772  0.82619  0.12781  Biso   1.000  C
  C230     1.0000 0.51979  0.75948  0.96271  Biso   1.000  C
  H207     1.0000 0.50023  0.63178  0.24703  Biso   1.000  H
  C231     1.0000 0.52049  0.74448  0.22522  Biso   1.000  C
  C232     1.0000 0.62231  0.69311  0.06730  Biso   1.000  C
  H208     1.0000 0.66342  0.72162  0.18042  Biso   1.000  H
  C233     1.0000 0.48686  0.88282  0.15149  Biso   1.000  C
  C234     1.0000 0.44611  0.75699  0.16471  Biso   1.000  C
  C235     1.0000 0.53170  0.70703  0.91423  Biso   1.000  C
  C236     1.0000 0.56566  0.74980  0.03938  Biso   1.000  C
  C237     1.0000 0.57873  0.80321  0.24862  Biso   1.000  C
  C238     1.0000 0.63407  0.64190  0.01639  Biso   1.000  C
  C239     1.0000 0.56102  0.87190  0.21070  Biso   1.000  C
  H209     1.0000 0.47597  0.92922  0.12663  Biso   1.000  H
  H210     1.0000 0.40801  0.71812  0.14883  Biso   1.000  H
  C240     1.0000 0.58718  0.64892  0.93994  Biso   1.000  C
  H211     1.0000 0.50097  0.71133  0.86253  Biso   1.000  H
  H212     1.0000 0.55789  0.78313  0.07323  Biso   1.000  H
  O23      1.0000 0.65119  0.79444  0.30676  Biso   1.000  O
  O24      1.0000 0.69068  0.58628  0.04029  Biso   1.000  O
  H213     1.0000 0.59928  0.91072  0.22539  Biso   1.000  H
  H214     1.0000 0.59309  0.61452  0.90592  Biso   1.000  H
  H215     1.0000 0.65419  0.75173  0.32433  Biso   1.000  H
  H216     1.0000 0.71430  0.58821  0.08651  Biso   1.000  H
