data_image0
_cell_length_a       16.774
_cell_length_b       20.491
_cell_length_c       20.355
_cell_angle_alpha    90
_cell_angle_beta     98.68
_cell_angle_gamma    90

_symmetry_space_group_name_H-M    "P 1"
_symmetry_int_tables_number       1

loop_
  _symmetry_equiv_pos_as_xyz
  'x, y, z'

loop_
  _atom_site_label
  _atom_site_occupancy
  _atom_site_fract_x
  _atom_site_fract_y
  _atom_site_fract_z
  _atom_site_thermal_displace_type
  _atom_site_B_iso_or_equiv
  _atom_site_type_symbol
  C1       1.0000 0.25328  0.17471  0.08091  Biso   1.000  C
  C2       1.0000 0.29019  0.15690  0.14407  Biso   1.000  C
  O1       1.0000 0.20810  0.22888  0.07151  Biso   1.000  O
  C3       1.0000 0.26841  0.13938  0.02579  Biso   1.000  C
  C4       1.0000 0.26701  0.19330  0.20570  Biso   1.000  C
  C5       1.0000 0.34211  0.10361  0.15222  Biso   1.000  C
  C6       1.0000 0.34210  0.10361  0.15217  Biso   1.000  C
  C7       1.0000 0.12799  0.22712  0.07778  Biso   1.000  C
  C8       1.0000 0.32032  0.08609  0.03389  Biso   1.000  C
  O2       1.0000 0.22172  0.14958  0.96392  Biso   1.000  O
  O3       1.0000 0.22171  0.14958  0.96387  Biso   1.000  O
  C9       1.0000 0.19099  0.16671  0.22289  Biso   1.000  C
  H1       1.0000 0.25492  0.23830  0.19109  Biso   1.000  H
  C10      1.0000 0.33182  0.19828  0.26757  Biso   1.000  C
  H2       1.0000 0.36679  0.09170  0.19451  Biso   1.000  H
  C11      1.0000 0.35718  0.06832  0.09711  Biso   1.000  C
  C12      1.0000 0.35724  0.06832  0.09711  Biso   1.000  C
  O4       1.0000 0.11418  0.23879  0.14561  Biso   1.000  O
  H3       1.0000 0.10610  0.18481  0.06341  Biso   1.000  H
  H4       1.0000 0.09941  0.25992  0.04900  Biso   1.000  H
  O5       1.0000 0.33358  0.05280  0.97868  Biso   1.000  O
  C13      1.0000 0.21873  0.20868  0.92868  Biso   1.000  C
  C14      1.0000 0.23299  0.21161  0.93659  Biso   1.000  C
  C15      1.0000 0.19132  0.11839  0.27090  Biso   1.000  C
  C16      1.0000 0.11833  0.18852  0.18781  Biso   1.000  C
  H5       1.0000 0.30802  0.21609  0.30430  Biso   1.000  H
  H6       1.0000 0.35231  0.15509  0.28019  Biso   1.000  H
  C17      1.0000 0.39300  0.23688  0.25559  Biso   1.000  C
  C18      1.0000 0.40190  0.00571  0.10337  Biso   1.000  C
  C19      1.0000 0.29252  0.99639  0.96278  Biso   1.000  C
  C20      1.0000 0.15271  0.21351  0.87029  Biso   1.000  C
  C21      1.0000 0.22133  0.21102  0.86219  Biso   1.000  C
  H7       1.0000 0.23992  0.10390  0.29441  Biso   1.000  H
  C22      1.0000 0.11900  0.09199  0.28392  Biso   1.000  C
  C23      1.0000 0.11899  0.09199  0.28387  Biso   1.000  C
  C24      1.0000 0.04601  0.16212  0.20078  Biso   1.000  C
  H8       1.0000 0.37189  0.27441  0.22950  Biso   1.000  H
  H9       1.0000 0.42809  0.21292  0.23040  Biso   1.000  H
  C25      1.0000 0.44448  0.26129  0.32641  Biso   1.000  C
  C26      1.0000 0.35079  0.94651  0.10779  Biso   1.000  C
  H10      1.0000 0.42358  0.00098  0.06157  Biso   1.000  H
  C27      1.0000 0.47623  0.00390  0.15829  Biso   1.000  C
  O6       1.0000 0.32917  0.93910  0.98648  Biso   1.000  O
  H11      1.0000 0.28111  0.99341  0.91482  Biso   1.000  H
  H12      1.0000 0.24111  0.99951  0.97898  Biso   1.000  H
  O7       1.0000 0.32923  0.93910  0.98648  Biso   1.000  O
  H13      1.0000 0.28110  0.99341  0.91477  Biso   1.000  H
  C28      1.0000 0.16712  0.17198  0.81259  Biso   1.000  C
  C29      1.0000 0.17710  0.15221  0.83128  Biso   1.000  C
  C30      1.0000 0.04629  0.11381  0.24888  Biso   1.000  C
  C31      1.0000 0.11661  0.03792  0.33337  Biso   1.000  C
  O8       1.0000 0.97419  0.17578  0.15759  Biso   1.000  O
  C32      1.0000 0.43058  0.31511  0.36478  Biso   1.000  C
  C33      1.0000 0.51227  0.22268  0.34470  Biso   1.000  C
  C34      1.0000 0.51233  0.22268  0.34470  Biso   1.000  C
  C35      1.0000 0.33602  0.92450  0.16942  Biso   1.000  C
  C36      1.0000 0.31302  0.91670  0.05000  Biso   1.000  C
  H14      1.0000 0.45898  0.01440  0.20048  Biso   1.000  H
  H15      1.0000 0.49762  0.95988  0.16152  Biso   1.000  H
  C37      1.0000 0.54383  0.05100  0.14690  Biso   1.000  C
  C38      1.0000 0.08910  0.15480  0.76941  Biso   1.000  C
  C39      1.0000 0.09598  0.16861  0.79232  Biso   1.000  C
  O9       1.0000 0.97178  0.09170  0.26031  Biso   1.000  O
  H16      1.0000 0.06523  0.04168  0.35032  Biso   1.000  H
  C40      1.0000 0.18379  0.03831  0.39450  Biso   1.000  C
  C41      1.0000 0.11512  0.97072  0.29590  Biso   1.000  C
  C42      1.0000 0.97119  0.24240  0.17280  Biso   1.000  C
  C43      1.0000 0.91020  0.21819  0.16559  Biso   1.000  C
  C44      1.0000 0.48459  0.33029  0.42138  Biso   1.000  C
  H17      1.0000 0.38529  0.34098  0.35250  Biso   1.000  H
  H18      1.0000 0.52160  0.18672  0.31911  Biso   1.000  H
  C45      1.0000 0.56630  0.23791  0.40140  Biso   1.000  C
  C46      1.0000 0.28338  0.87268  0.17329  Biso   1.000  C
  C47      1.0000 0.28344  0.87268  0.17329  Biso   1.000  C
  H19      1.0000 0.36133  0.94451  0.20798  Biso   1.000  H
  C48      1.0000 0.26037  0.86492  0.05387  Biso   1.000  C
  C49      1.0000 0.61878  0.05100  0.19939  Biso   1.000  C
  H20      1.0000 0.56014  0.04060  0.10441  Biso   1.000  H
  H21      1.0000 0.52190  0.09492  0.14367  Biso   1.000  H
  O10      1.0000 0.03562  0.12640  0.80807  Biso   1.000  O
  C50      1.0000 0.94750  0.03192  0.23288  Biso   1.000  C
  H22      1.0000 0.23627  0.03719  0.37998  Biso   1.000  H
  C51      1.0000 0.17612  0.10161  0.43629  Biso   1.000  C
  H23      1.0000 0.17893  0.00000  0.42168  Biso   1.000  H
  C52      1.0000 0.04191  0.94568  0.26499  Biso   1.000  C
  C53      1.0000 0.18661  0.93861  0.28978  Biso   1.000  C
  C54      1.0000 0.88719  0.26641  0.17538  Biso   1.000  C
  C55      1.0000 0.83058  0.24342  0.11560  Biso   1.000  C
  C56      1.0000 0.87019  0.24279  0.09880  Biso   1.000  C
  H24      1.0000 0.47540  0.36621  0.44708  Biso   1.000  H
  C57      1.0000 0.55252  0.29159  0.43977  Biso   1.000  C
  H25      1.0000 0.61171  0.21200  0.41368  Biso   1.000  H
  C58      1.0000 0.25888  0.84769  0.23780  Biso   1.000  C
  C59      1.0000 0.24561  0.84291  0.11550  Biso   1.000  C
  O11      1.0000 0.21440  0.84310  0.99359  Biso   1.000  O
  C60      1.0000 0.64642  0.10941  0.22920  Biso   1.000  C
  C61      1.0000 0.65961  0.99322  0.21757  Biso   1.000  C
  C62      1.0000 0.95979  0.11151  0.77199  Biso   1.000  C
  O12      1.0000 0.96860  0.97760  0.27160  Biso   1.000  O
  H26      1.0000 0.88918  0.03250  0.22140  Biso   1.000  H
  H27      1.0000 0.96972  0.02699  0.19178  Biso   1.000  H
  H28      1.0000 0.22450  0.10590  0.46869  Biso   1.000  H
  C63      1.0000 0.10670  0.10429  0.47128  Biso   1.000  C
  H29      1.0000 0.17381  0.13889  0.40677  Biso   1.000  H
  C64      1.0000 0.04021  0.88849  0.22801  Biso   1.000  C
  C65      1.0000 0.18491  0.88141  0.25281  Biso   1.000  C
  H30      1.0000 0.23553  0.95540  0.31051  Biso   1.000  H
  C66      1.0000 0.80298  0.17510  0.12509  Biso   1.000  C
  C67      1.0000 0.78012  0.23820  0.08911  Biso   1.000  C
  H31      1.0000 0.58861  0.30179  0.47769  Biso   1.000  H
  C68      1.0000 0.33001  0.85262  0.29709  Biso   1.000  C
  H32      1.0000 0.24553  0.80128  0.23129  Biso   1.000  H
  O13      1.0000 0.19432  0.78918  0.11510  Biso   1.000  O
  C69      1.0000 0.25212  0.84749  0.93619  Biso   1.000  C
  C70      1.0000 0.25113  0.78381  0.98027  Biso   1.000  C
  C71      1.0000 0.71471  0.11010  0.27721  Biso   1.000  C
  H33      1.0000 0.61903  0.14811  0.21698  Biso   1.000  H
  C72      1.0000 0.72802  0.99380  0.26558  Biso   1.000  C
  H34      1.0000 0.64123  0.95408  0.19760  Biso   1.000  H
  C73      1.0000 0.88828  0.14362  0.77800  Biso   1.000  C
  C74      1.0000 0.95809  0.05432  0.73501  Biso   1.000  C
  C75      1.0000 0.11349  0.07691  0.53439  Biso   1.000  C
  C76      1.0000 0.03342  0.13020  0.44161  Biso   1.000  C
  O14      1.0000 0.96438  0.87360  0.19188  Biso   1.000  O
  C77      1.0000 0.11172  0.85638  0.22200  Biso   1.000  C
  C78      1.0000 0.74788  0.15251  0.06381  Biso   1.000  C
  C79      1.0000 0.74892  0.21619  0.01968  Biso   1.000  C
  H35      1.0000 0.34973  0.89708  0.30121  Biso   1.000  H
  H36      1.0000 0.31089  0.84081  0.33819  Biso   1.000  H
  C80      1.0000 0.39733  0.80748  0.28541  Biso   1.000  C
  C81      1.0000 0.11432  0.79869  0.11868  Biso   1.000  C
  C82      1.0000 0.19702  0.82490  0.87491  Biso   1.000  C
  C83      1.0000 0.21988  0.76180  0.91089  Biso   1.000  C
  C84      1.0000 0.75560  0.05232  0.29540  Biso   1.000  C
  H37      1.0000 0.73320  0.14919  0.29709  Biso   1.000  H
  H38      1.0000 0.75528  0.95520  0.27771  Biso   1.000  H
  O15      1.0000 0.89698  0.19940  0.81249  Biso   1.000  O
  C85      1.0000 0.81509  0.11859  0.74719  Biso   1.000  C
  C86      1.0000 0.88488  0.02928  0.70410  Biso   1.000  C
  O16      1.0000 0.03140  0.02240  0.72840  Biso   1.000  O
  C87      1.0000 0.04723  0.07550  0.56779  Biso   1.000  C
  H39      1.0000 0.16248  0.05959  0.55417  Biso   1.000  H
  H40      1.0000 0.02879  0.14850  0.39942  Biso   1.000  H
  C88      1.0000 0.96700  0.12879  0.47511  Biso   1.000  C
  C89      1.0000 0.91090  0.84520  0.23059  Biso   1.000  C
  C90      1.0000 0.90402  0.83139  0.20768  Biso   1.000  C
  O17      1.0000 0.10302  0.80060  0.18751  Biso   1.000  O
  O18      1.0000 0.78560  0.15690  0.00641  Biso   1.000  O
  H41      1.0000 0.41161  0.81719  0.24198  Biso   1.000  H
  C91      1.0000 0.47261  0.81031  0.33551  Biso   1.000  C
  H42      1.0000 0.37697  0.76312  0.28397  Biso   1.000  H
  H43      1.0000 0.08270  0.76341  0.09611  Biso   1.000  H
  H44      1.0000 0.09618  0.83930  0.09711  Biso   1.000  H
  C92      1.0000 0.16942  0.75658  0.88440  Biso   1.000  C
  C93      1.0000 0.12981  0.75721  0.90120  Biso   1.000  C
  H45      1.0000 0.80130  0.05271  0.32750  Biso   1.000  H
  C94      1.0000 0.88567  0.20131  0.88127  Biso   1.000  C
  C95      1.0000 0.74112  0.15231  0.76220  Biso   1.000  C
  C96      1.0000 0.81339  0.06139  0.71022  Biso   1.000  C
  C97      1.0000 0.88338  0.96208  0.66658  Biso   1.000  C
  C98      1.0000 0.05250  0.96808  0.76712  Biso   1.000  C
  C99      1.0000 0.05249  0.96808  0.76707  Biso   1.000  C
  H46      1.0000 0.05179  0.05720  0.60998  Biso   1.000  H
  C100     1.0000 0.97388  0.10141  0.53807  Biso   1.000  C
  H47      1.0000 0.91798  0.14611  0.45518  Biso   1.000  H
  C101     1.0000 0.83294  0.82802  0.18741  Biso   1.000  C
  C102     1.0000 0.82290  0.84779  0.16872  Biso   1.000  C
  C103     1.0000 0.73962  0.13508  0.94608  Biso   1.000  C
  C104     1.0000 0.52628  0.86018  0.32711  Biso   1.000  C
  C105     1.0000 0.49151  0.76541  0.38659  Biso   1.000  C
  C106     1.0000 0.11280  0.73359  0.82457  Biso   1.000  C
  C107     1.0000 0.08980  0.78181  0.83441  Biso   1.000  C
  O19      1.0000 0.80568  0.21082  0.88490  Biso   1.000  O
  H48      1.0000 0.91730  0.23659  0.90389  Biso   1.000  H
  H49      1.0000 0.90382  0.16070  0.90289  Biso   1.000  H
  C108     1.0000 0.71662  0.12732  0.82671  Biso   1.000  C
  H50      1.0000 0.75453  0.19872  0.76871  Biso   1.000  H
  C109     1.0000 0.66999  0.14738  0.70291  Biso   1.000  C
  H51      1.0000 0.76453  0.04460  0.68949  Biso   1.000  H
  C110     1.0000 0.88100  0.90801  0.71608  Biso   1.000  C
  C111     1.0000 0.81621  0.96169  0.60550  Biso   1.000  C
  H52      1.0000 0.93483  0.95832  0.64968  Biso   1.000  H
  O20      1.0000 0.02822  0.90830  0.73969  Biso   1.000  O
  H53      1.0000 0.11082  0.96750  0.77860  Biso   1.000  H
  H54      1.0000 0.03028  0.97301  0.80822  Biso   1.000  H
  H55      1.0000 0.03033  0.97301  0.80817  Biso   1.000  H
  H56      1.0000 0.92952  0.10039  0.56048  Biso   1.000  H
  C112     1.0000 0.84729  0.78649  0.12971  Biso   1.000  C
  C113     1.0000 0.77873  0.78898  0.13781  Biso   1.000  C
  C114     1.0000 0.75439  0.15709  0.88450  Biso   1.000  C
  C115     1.0000 0.68698  0.08330  0.95000  Biso   1.000  C
  H57      1.0000 0.51358  0.89029  0.29292  Biso   1.000  H
  C116     1.0000 0.59890  0.86521  0.36980  Biso   1.000  C
  C117     1.0000 0.56421  0.77039  0.42938  Biso   1.000  C
  H58      1.0000 0.45564  0.73198  0.39221  Biso   1.000  H
  C118     1.0000 0.02881  0.75760  0.82720  Biso   1.000  C
  O21      1.0000 0.02581  0.82422  0.84241  Biso   1.000  O
  C119     1.0000 0.66398  0.07550  0.83058  Biso   1.000  C
  H59      1.0000 0.65027  0.10292  0.69879  Biso   1.000  H
  H60      1.0000 0.68911  0.15919  0.66181  Biso   1.000  H
  C120     1.0000 0.60267  0.19252  0.71459  Biso   1.000  C
  C121     1.0000 0.60273  0.19252  0.71459  Biso   1.000  C
  C122     1.0000 0.80868  0.88161  0.72910  Biso   1.000  C
  C123     1.0000 0.95371  0.88619  0.75112  Biso   1.000  C
  H61      1.0000 0.76373  0.96281  0.62002  Biso   1.000  H
  C124     1.0000 0.82388  0.89839  0.56371  Biso   1.000  C
  H62      1.0000 0.82113  0.00000  0.57832  Biso   1.000  H
  H63      1.0000 0.82112  0.00000  0.57827  Biso   1.000  H
  C125     1.0000 0.78133  0.79132  0.07132  Biso   1.000  C
  C126     1.0000 0.76701  0.78839  0.06341  Biso   1.000  C
  C127     1.0000 0.64921  0.05349  0.89221  Biso   1.000  C
  O22      1.0000 0.67083  0.06090  0.01352  Biso   1.000  O
  H64      1.0000 0.63489  0.89859  0.36418  Biso   1.000  H
  C128     1.0000 0.61787  0.82021  0.42098  Biso   1.000  C
  H65      1.0000 0.57679  0.74028  0.46358  Biso   1.000  H
  C129     1.0000 0.95399  0.83788  0.79922  Biso   1.000  C
  C130     1.0000 0.95398  0.83788  0.79917  Biso   1.000  C
  H66      1.0000 0.63873  0.05549  0.79202  Biso   1.000  H
  H67      1.0000 0.62302  0.23688  0.71598  Biso   1.000  H
  H68      1.0000 0.58839  0.18281  0.75802  Biso   1.000  H
  C131     1.0000 0.52739  0.18969  0.66449  Biso   1.000  C
  H69      1.0000 0.58838  0.18281  0.75797  Biso   1.000  H
  C132     1.0000 0.80901  0.83329  0.77711  Biso   1.000  C
  H70      1.0000 0.76008  0.89610  0.70559  Biso   1.000  H
  H71      1.0000 0.77550  0.89410  0.53131  Biso   1.000  H
  H72      1.0000 0.82618  0.86111  0.59318  Biso   1.000  H
  C133     1.0000 0.89330  0.89571  0.52867  Biso   1.000  C
  O23      1.0000 0.77828  0.85042  0.03608  Biso   1.000  O
  C134     1.0000 0.59809  0.99429  0.89658  Biso   1.000  C
  C135     1.0000 0.70748  0.00361  0.03722  Biso   1.000  C
  C136     1.0000 0.70748  0.00361  0.03717  Biso   1.000  C
  H73      1.0000 0.66652  0.82358  0.44961  Biso   1.000  H
  C137     1.0000 0.88173  0.81148  0.81219  Biso   1.000  C
  C138     1.0000 0.47372  0.13982  0.67289  Biso   1.000  C
  C139     1.0000 0.50849  0.23459  0.61341  Biso   1.000  C
  C140     1.0000 0.73299  0.80670  0.79430  Biso   1.000  C
  C141     1.0000 0.88651  0.92309  0.46561  Biso   1.000  C
  C142     1.0000 0.96658  0.86980  0.55839  Biso   1.000  C
  C143     1.0000 0.73159  0.86062  0.97421  Biso   1.000  C
  C144     1.0000 0.64282  0.93168  0.90289  Biso   1.000  C
  H74      1.0000 0.57641  0.99902  0.93838  Biso   1.000  H
  C145     1.0000 0.52383  0.99610  0.84171  Biso   1.000  C
  O24      1.0000 0.66642  0.94720  0.02132  Biso   1.000  O
  O25      1.0000 0.66641  0.94720  0.02127  Biso   1.000  O
  H75      1.0000 0.71889  0.00659  0.08518  Biso   1.000  H
  H76      1.0000 0.75889  0.00049  0.02102  Biso   1.000  H
  H77      1.0000 0.75888  0.00049  0.02097  Biso   1.000  H
  O26      1.0000 0.88582  0.76121  0.85439  Biso   1.000  O
  H78      1.0000 0.48642  0.10971  0.70708  Biso   1.000  H
  C146     1.0000 0.40110  0.13479  0.63020  Biso   1.000  C
  C147     1.0000 0.43579  0.22961  0.57062  Biso   1.000  C
  H79      1.0000 0.54442  0.26802  0.60779  Biso   1.000  H
  C148     1.0000 0.70981  0.84310  0.85588  Biso   1.000  C
  H80      1.0000 0.74508  0.76170  0.80891  Biso   1.000  H
  C149     1.0000 0.66823  0.80172  0.73238  Biso   1.000  C
  H81      1.0000 0.83752  0.94041  0.44578  Biso   1.000  H
  C150     1.0000 0.95277  0.92450  0.43221  Biso   1.000  C
  C151     1.0000 0.95283  0.92450  0.43221  Biso   1.000  C
  H82      1.0000 0.97121  0.85150  0.60058  Biso   1.000  H
  C152     1.0000 0.03300  0.87121  0.52489  Biso   1.000  C
  C153     1.0000 0.74672  0.82529  0.91909  Biso   1.000  C
  C154     1.0000 0.67968  0.91391  0.96611  Biso   1.000  C
  C155     1.0000 0.67974  0.91391  0.96611  Biso   1.000  C
  C156     1.0000 0.65789  0.89639  0.84778  Biso   1.000  C
  H83      1.0000 0.54102  0.98560  0.79952  Biso   1.000  H
  C157     1.0000 0.45623  0.94900  0.85310  Biso   1.000  C
  H84      1.0000 0.54102  0.98560  0.79947  Biso   1.000  H
  H85      1.0000 0.50238  0.04012  0.83848  Biso   1.000  H
  C158     1.0000 0.87201  0.77288  0.92222  Biso   1.000  C
  C159     1.0000 0.87200  0.77288  0.92217  Biso   1.000  C
  C160     1.0000 0.38213  0.17979  0.57902  Biso   1.000  C
  H86      1.0000 0.36510  0.10141  0.63577  Biso   1.000  H
  H87      1.0000 0.42321  0.25972  0.53642  Biso   1.000  H
  H88      1.0000 0.42320  0.25972  0.53638  Biso   1.000  H
  H89      1.0000 0.69198  0.78391  0.69570  Biso   1.000  H
  H90      1.0000 0.64769  0.84491  0.71981  Biso   1.000  H
  C161     1.0000 0.60700  0.76312  0.74441  Biso   1.000  C
  H91      1.0000 0.94821  0.94280  0.39002  Biso   1.000  H
  C162     1.0000 0.02611  0.89859  0.46188  Biso   1.000  C
  H92      1.0000 0.08201  0.85389  0.54477  Biso   1.000  H
  O27      1.0000 0.79190  0.77112  0.92849  Biso   1.000  O
  H93      1.0000 0.63321  0.90830  0.80549  Biso   1.000  H
  H94      1.0000 0.43992  0.95940  0.89559  Biso   1.000  H
  H95      1.0000 0.47809  0.90508  0.85628  Biso   1.000  H
  C163     1.0000 0.38122  0.94900  0.80061  Biso   1.000  C
  H96      1.0000 0.89390  0.81519  0.93659  Biso   1.000  H
  H97      1.0000 0.90059  0.74008  0.95100  Biso   1.000  H
  H98      1.0000 0.33348  0.17642  0.55039  Biso   1.000  H
  H99      1.0000 0.62811  0.72559  0.77050  Biso   1.000  H
  H100     1.0000 0.57191  0.78708  0.76960  Biso   1.000  H
  C164     1.0000 0.55552  0.73871  0.67359  Biso   1.000  C
  H101     1.0000 0.07048  0.89961  0.43952  Biso   1.000  H
  C165     1.0000 0.35358  0.89059  0.77080  Biso   1.000  C
  C166     1.0000 0.34038  0.00678  0.78238  Biso   1.000  C
  C167     1.0000 0.48773  0.77732  0.65530  Biso   1.000  C
  C168     1.0000 0.56942  0.68489  0.63522  Biso   1.000  C
  C169     1.0000 0.56941  0.68489  0.63517  Biso   1.000  C
  C170     1.0000 0.28529  0.88990  0.72279  Biso   1.000  C
  H102     1.0000 0.38097  0.85189  0.78302  Biso   1.000  H
  H103     1.0000 0.38103  0.85189  0.78297  Biso   1.000  H
  H104     1.0000 0.35883  0.04592  0.80240  Biso   1.000  H
  C171     1.0000 0.27198  0.00620  0.73442  Biso   1.000  C
  C172     1.0000 0.27203  0.00620  0.73437  Biso   1.000  C
  H105     1.0000 0.47840  0.81328  0.68089  Biso   1.000  H
  C173     1.0000 0.43370  0.76209  0.59860  Biso   1.000  C
  C174     1.0000 0.51541  0.66971  0.57862  Biso   1.000  C
  H106     1.0000 0.61471  0.65902  0.64750  Biso   1.000  H
  C175     1.0000 0.24440  0.94768  0.70460  Biso   1.000  C
  H107     1.0000 0.26680  0.85081  0.70291  Biso   1.000  H
  H108     1.0000 0.24472  0.04480  0.72229  Biso   1.000  H
  C176     1.0000 0.44747  0.70841  0.56018  Biso   1.000  C
  H109     1.0000 0.38828  0.78800  0.58627  Biso   1.000  H
  H110     1.0000 0.52459  0.63379  0.55287  Biso   1.000  H
  H111     1.0000 0.19870  0.94729  0.67250  Biso   1.000  H
  H112     1.0000 0.41139  0.69821  0.52231  Biso   1.000  H
  C177     1.0000 0.43579  0.27041  0.07062  Biso   1.000  C
  C178     1.0000 0.38212  0.32019  0.07902  Biso   1.000  C
  C179     1.0000 0.50849  0.26538  0.11341  Biso   1.000  C
  H113     1.0000 0.42320  0.24030  0.03638  Biso   1.000  H
  C180     1.0000 0.40110  0.36518  0.13021  Biso   1.000  C
  H114     1.0000 0.33348  0.32361  0.05039  Biso   1.000  H
  C181     1.0000 0.52738  0.31028  0.16450  Biso   1.000  C
  H115     1.0000 0.54442  0.23200  0.10779  Biso   1.000  H
  C182     1.0000 0.47372  0.36021  0.17290  Biso   1.000  C
  H116     1.0000 0.36510  0.39861  0.13582  Biso   1.000  H
  C183     1.0000 0.60267  0.30750  0.21459  Biso   1.000  C
  H117     1.0000 0.48642  0.39032  0.20709  Biso   1.000  H
  C184     1.0000 0.66998  0.35259  0.20291  Biso   1.000  C
  H118     1.0000 0.62302  0.26309  0.21598  Biso   1.000  H
  H119     1.0000 0.58838  0.31721  0.25798  Biso   1.000  H
  C185     1.0000 0.74111  0.34771  0.26220  Biso   1.000  C
  H120     1.0000 0.65027  0.39710  0.19879  Biso   1.000  H
  H121     1.0000 0.68911  0.34078  0.16181  Biso   1.000  H
  C186     1.0000 0.81509  0.38139  0.24719  Biso   1.000  C
  H122     1.0000 0.75453  0.30130  0.26871  Biso   1.000  H
  C187     1.0000 0.71662  0.37270  0.32671  Biso   1.000  C
  C188     1.0000 0.81339  0.43858  0.21022  Biso   1.000  C
  C189     1.0000 0.88828  0.35640  0.27801  Biso   1.000  C
  C190     1.0000 0.75439  0.34288  0.38451  Biso   1.000  C
  C191     1.0000 0.66398  0.42448  0.33059  Biso   1.000  C
  C192     1.0000 0.88488  0.47069  0.20411  Biso   1.000  C
  H123     1.0000 0.76452  0.45542  0.18950  Biso   1.000  H
  C193     1.0000 0.95979  0.38851  0.27199  Biso   1.000  C
  O28      1.0000 0.89698  0.30062  0.31250  Biso   1.000  O
  O29      1.0000 0.80567  0.28920  0.38490  Biso   1.000  O
  C194     1.0000 0.73962  0.36489  0.44608  Biso   1.000  C
  H124     1.0000 0.63873  0.44449  0.29202  Biso   1.000  H
  C195     1.0000 0.64921  0.44649  0.39221  Biso   1.000  C
  C196     1.0000 0.88337  0.53789  0.16658  Biso   1.000  C
  C197     1.0000 0.95809  0.44571  0.23502  Biso   1.000  C
  O30      1.0000 0.03562  0.37358  0.30812  Biso   1.000  O
  C198     1.0000 0.88567  0.29872  0.38128  Biso   1.000  C
  C199     1.0000 0.68698  0.41672  0.45001  Biso   1.000  C
  O31      1.0000 0.78560  0.34308  0.50641  Biso   1.000  O
  C200     1.0000 0.59808  0.50569  0.39658  Biso   1.000  C
  C201     1.0000 0.88099  0.59202  0.21608  Biso   1.000  C
  H125     1.0000 0.93477  0.54170  0.14969  Biso   1.000  H
  C202     1.0000 0.81621  0.53829  0.10551  Biso   1.000  C
  O32      1.0000 0.03140  0.47762  0.22841  Biso   1.000  O
  C203     1.0000 0.08910  0.34518  0.26941  Biso   1.000  C
  C204     1.0000 0.09598  0.33141  0.29232  Biso   1.000  C
  H126     1.0000 0.91729  0.26338  0.40389  Biso   1.000  H
  H127     1.0000 0.90382  0.33932  0.40290  Biso   1.000  H
  O33      1.0000 0.67083  0.43912  0.51352  Biso   1.000  O
  C205     1.0000 0.74788  0.34752  0.56381  Biso   1.000  C
  C206     1.0000 0.74892  0.28378  0.51968  Biso   1.000  C
  C207     1.0000 0.64282  0.56830  0.40290  Biso   1.000  C
  H128     1.0000 0.57641  0.50100  0.43838  Biso   1.000  H
  C208     1.0000 0.52383  0.50388  0.34172  Biso   1.000  C
  C209     1.0000 0.80868  0.61842  0.22910  Biso   1.000  C
  C210     1.0000 0.95370  0.61378  0.25112  Biso   1.000  C
  H129     1.0000 0.76372  0.53721  0.12002  Biso   1.000  H
  H130     1.0000 0.82113  0.49998  0.07832  Biso   1.000  H
  C211     1.0000 0.82388  0.60158  0.06371  Biso   1.000  C
  C212     1.0000 0.05250  0.53189  0.26712  Biso   1.000  C
  C213     1.0000 0.16712  0.32800  0.31260  Biso   1.000  C
  C214     1.0000 0.17710  0.34781  0.33128  Biso   1.000  C
  C215     1.0000 0.70747  0.49641  0.53718  Biso   1.000  C
  C216     1.0000 0.80298  0.32492  0.62509  Biso   1.000  C
  C217     1.0000 0.78012  0.26182  0.58911  Biso   1.000  C
  C218     1.0000 0.67967  0.58611  0.46611  Biso   1.000  C
  C219     1.0000 0.65788  0.60358  0.34778  Biso   1.000  C
  H131     1.0000 0.54101  0.51442  0.29948  Biso   1.000  H
  H132     1.0000 0.50237  0.45991  0.33849  Biso   1.000  H
  C220     1.0000 0.45622  0.55102  0.35310  Biso   1.000  C
  C221     1.0000 0.80901  0.66668  0.27711  Biso   1.000  C
  H133     1.0000 0.76008  0.60392  0.20560  Biso   1.000  H
  C222     1.0000 0.95398  0.66210  0.29918  Biso   1.000  C
  O34      1.0000 0.02822  0.59172  0.23969  Biso   1.000  O
  H134     1.0000 0.77550  0.60588  0.03131  Biso   1.000  H
  H135     1.0000 0.82617  0.63891  0.09318  Biso   1.000  H
  C223     1.0000 0.89329  0.60431  0.02868  Biso   1.000  C
  H136     1.0000 0.11082  0.53248  0.27860  Biso   1.000  H
  H137     1.0000 0.03027  0.52701  0.30822  Biso   1.000  H
  C224     1.0000 0.15271  0.28652  0.37029  Biso   1.000  C
  C225     1.0000 0.22127  0.28900  0.36219  Biso   1.000  C
  H138     1.0000 0.71889  0.49339  0.58518  Biso   1.000  H
  H139     1.0000 0.75888  0.49949  0.52098  Biso   1.000  H
  O35      1.0000 0.66642  0.55278  0.52132  Biso   1.000  O
  C226     1.0000 0.83057  0.25660  0.61560  Biso   1.000  C
  C227     1.0000 0.87018  0.25719  0.59880  Biso   1.000  C
  C228     1.0000 0.73159  0.63940  0.47421  Biso   1.000  C
  C229     1.0000 0.70980  0.65692  0.35588  Biso   1.000  C
  H140     1.0000 0.63321  0.59172  0.30549  Biso   1.000  H
  H141     1.0000 0.43992  0.54058  0.39559  Biso   1.000  H
  H142     1.0000 0.47809  0.59490  0.35628  Biso   1.000  H
  C230     1.0000 0.38121  0.55102  0.30062  Biso   1.000  C
  C231     1.0000 0.88172  0.68850  0.31220  Biso   1.000  C
  C232     1.0000 0.73298  0.69328  0.29431  Biso   1.000  C
  O36      1.0000 0.02581  0.67581  0.34241  Biso   1.000  O
  C233     1.0000 0.96658  0.63018  0.05839  Biso   1.000  C
  C234     1.0000 0.88651  0.57689  0.96561  Biso   1.000  C
  C235     1.0000 0.21872  0.29130  0.42869  Biso   1.000  C
  C236     1.0000 0.23299  0.28842  0.43659  Biso   1.000  C
  C237     1.0000 0.88719  0.23361  0.67538  Biso   1.000  C
  C238     1.0000 0.91020  0.28178  0.66559  Biso   1.000  C
  C239     1.0000 0.74672  0.67469  0.41910  Biso   1.000  C
  O37      1.0000 0.77828  0.64960  0.53608  Biso   1.000  O
  C240     1.0000 0.34037  0.49319  0.28238  Biso   1.000  C
  C241     1.0000 0.35358  0.60939  0.27080  Biso   1.000  C
  O38      1.0000 0.88581  0.73881  0.35439  Biso   1.000  O
  H143     1.0000 0.74508  0.73832  0.30892  Biso   1.000  H
  C242     1.0000 0.66817  0.69831  0.23238  Biso   1.000  C
  C243     1.0000 0.02880  0.74242  0.32721  Biso   1.000  C
  C244     1.0000 0.08980  0.71822  0.33441  Biso   1.000  C
  H144     1.0000 0.97120  0.64848  0.10059  Biso   1.000  H
  C245     1.0000 0.03300  0.62881  0.02490  Biso   1.000  C
  H145     1.0000 0.83751  0.55961  0.94578  Biso   1.000  H
  C246     1.0000 0.95283  0.57552  0.93221  Biso   1.000  C
  O39      1.0000 0.22172  0.35040  0.46392  Biso   1.000  O
  C247     1.0000 0.97119  0.25758  0.67280  Biso   1.000  C
  O40      1.0000 0.97419  0.32419  0.65759  Biso   1.000  O
  O41      1.0000 0.79190  0.72891  0.42849  Biso   1.000  O
  C248     1.0000 0.78133  0.70870  0.57132  Biso   1.000  C
  C249     1.0000 0.76701  0.71158  0.56342  Biso   1.000  C
  H146     1.0000 0.35883  0.45410  0.30241  Biso   1.000  H
  C250     1.0000 0.27198  0.49378  0.23442  Biso   1.000  C
  C251     1.0000 0.28529  0.61012  0.22279  Biso   1.000  C
  H147     1.0000 0.38102  0.64809  0.28298  Biso   1.000  H
  C252     1.0000 0.87200  0.72710  0.42218  Biso   1.000  C
  H148     1.0000 0.69198  0.71612  0.19571  Biso   1.000  H
  H149     1.0000 0.64768  0.65512  0.21981  Biso   1.000  H
  C253     1.0000 0.60700  0.73691  0.24441  Biso   1.000  C
  C254     1.0000 0.11281  0.76639  0.32462  Biso   1.000  C
  C255     1.0000 0.16942  0.74340  0.38441  Biso   1.000  C
  C256     1.0000 0.12981  0.74281  0.40121  Biso   1.000  C
  C257     1.0000 0.02611  0.60139  0.96188  Biso   1.000  C
  H150     1.0000 0.08200  0.64609  0.04478  Biso   1.000  H
  H151     1.0000 0.94820  0.55722  0.89002  Biso   1.000  H
  C258     1.0000 0.26840  0.36060  0.52580  Biso   1.000  C
  C259     1.0000 0.04601  0.33790  0.70078  Biso   1.000  C
  C260     1.0000 0.84729  0.71348  0.62971  Biso   1.000  C
  C261     1.0000 0.77872  0.71100  0.63781  Biso   1.000  C
  H152     1.0000 0.24472  0.45522  0.22230  Biso   1.000  H
  C262     1.0000 0.24440  0.55229  0.20460  Biso   1.000  C
  H153     1.0000 0.26680  0.64921  0.20291  Biso   1.000  H
  H154     1.0000 0.89389  0.68479  0.43659  Biso   1.000  H
  H155     1.0000 0.90059  0.75989  0.45100  Biso   1.000  H
  H156     1.0000 0.62811  0.77439  0.27050  Biso   1.000  H
  H157     1.0000 0.57191  0.71290  0.26961  Biso   1.000  H
  C263     1.0000 0.55552  0.76131  0.17359  Biso   1.000  C
  C264     1.0000 0.19701  0.67508  0.37492  Biso   1.000  C
  C265     1.0000 0.21988  0.73818  0.41090  Biso   1.000  C
  H158     1.0000 0.07048  0.60041  0.93952  Biso   1.000  H
  C266     1.0000 0.25328  0.32531  0.58091  Biso   1.000  C
  C267     1.0000 0.32032  0.41389  0.53390  Biso   1.000  C
  C268     1.0000 0.11833  0.31150  0.68781  Biso   1.000  C
  C269     1.0000 0.04629  0.38622  0.74889  Biso   1.000  C
  C270     1.0000 0.83288  0.67200  0.68741  Biso   1.000  C
  C271     1.0000 0.82289  0.65219  0.66868  Biso   1.000  C
  H159     1.0000 0.19869  0.55268  0.17250  Biso   1.000  H
  C272     1.0000 0.48772  0.72271  0.15530  Biso   1.000  C
  C273     1.0000 0.56941  0.81509  0.13518  Biso   1.000  C
  C274     1.0000 0.25211  0.65248  0.43619  Biso   1.000  C
  C275     1.0000 0.25113  0.71622  0.48032  Biso   1.000  C
  O42      1.0000 0.20810  0.27109  0.57152  Biso   1.000  O
  C276     1.0000 0.29018  0.34308  0.64408  Biso   1.000  C
  O43      1.0000 0.33358  0.44722  0.47868  Biso   1.000  O
  C277     1.0000 0.35718  0.43170  0.59711  Biso   1.000  C
  C278     1.0000 0.19099  0.33332  0.72290  Biso   1.000  C
  O44      1.0000 0.11418  0.26119  0.64562  Biso   1.000  O
  O45      1.0000 0.97178  0.40828  0.76032  Biso   1.000  O
  C279     1.0000 0.11900  0.40798  0.78392  Biso   1.000  C
  C280     1.0000 0.91089  0.65482  0.73060  Biso   1.000  C
  C281     1.0000 0.90401  0.66859  0.70769  Biso   1.000  C
  H160     1.0000 0.47840  0.68669  0.18090  Biso   1.000  H
  C282     1.0000 0.43370  0.73788  0.09860  Biso   1.000  C
  C283     1.0000 0.51541  0.83032  0.07862  Biso   1.000  C
  H161     1.0000 0.61471  0.84100  0.14750  Biso   1.000  H
  O46      1.0000 0.21439  0.65692  0.49359  Biso   1.000  O
  C284     1.0000 0.12799  0.27290  0.57778  Biso   1.000  C
  C285     1.0000 0.34210  0.39642  0.65218  Biso   1.000  C
  C286     1.0000 0.26701  0.30672  0.70570  Biso   1.000  C
  C287     1.0000 0.29251  0.50359  0.46278  Biso   1.000  C
  C288     1.0000 0.40191  0.49431  0.60342  Biso   1.000  C
  C289     1.0000 0.19132  0.38158  0.77090  Biso   1.000  C
  C290     1.0000 0.94750  0.46811  0.73288  Biso   1.000  C
  C291     1.0000 0.11662  0.46211  0.83342  Biso   1.000  C
  O47      1.0000 0.96437  0.62642  0.69188  Biso   1.000  O
  H162     1.0000 0.38829  0.71202  0.08632  Biso   1.000  H
  C292     1.0000 0.44747  0.79162  0.06018  Biso   1.000  C
  H163     1.0000 0.52459  0.86619  0.05288  Biso   1.000  H
  C293     1.0000 0.26038  0.63511  0.55392  Biso   1.000  C
  H164     1.0000 0.10610  0.31521  0.56342  Biso   1.000  H
  H165     1.0000 0.09941  0.24011  0.54900  Biso   1.000  H
  H166     1.0000 0.36679  0.40828  0.69452  Biso   1.000  H
  H167     1.0000 0.25492  0.26168  0.69109  Biso   1.000  H
  C294     1.0000 0.33183  0.30169  0.76762  Biso   1.000  C
  O48      1.0000 0.32923  0.56088  0.48649  Biso   1.000  O
  H168     1.0000 0.28111  0.50661  0.41482  Biso   1.000  H
  H169     1.0000 0.24111  0.50051  0.47898  Biso   1.000  H
  C295     1.0000 0.35079  0.55351  0.60780  Biso   1.000  C
  H170     1.0000 0.42358  0.49900  0.56158  Biso   1.000  H
  C296     1.0000 0.47622  0.49612  0.65829  Biso   1.000  C
  H171     1.0000 0.23992  0.39608  0.79441  Biso   1.000  H
  O49      1.0000 0.96860  0.52238  0.77160  Biso   1.000  O
  H172     1.0000 0.88918  0.46752  0.72140  Biso   1.000  H
  H173     1.0000 0.96972  0.47299  0.69178  Biso   1.000  H
  C297     1.0000 0.11511  0.52931  0.79590  Biso   1.000  C
  H174     1.0000 0.06523  0.45830  0.85032  Biso   1.000  H
  C298     1.0000 0.18378  0.46171  0.89450  Biso   1.000  C
  C299     1.0000 0.04020  0.61149  0.72801  Biso   1.000  C
  H175     1.0000 0.41138  0.80182  0.02231  Biso   1.000  H
  C300     1.0000 0.24560  0.65712  0.61550  Biso   1.000  C
  C301     1.0000 0.31302  0.58328  0.55000  Biso   1.000  C
  H176     1.0000 0.30802  0.28388  0.80430  Biso   1.000  H
  H177     1.0000 0.35231  0.34488  0.78020  Biso   1.000  H
  C302     1.0000 0.39300  0.26309  0.75560  Biso   1.000  C
  C303     1.0000 0.33602  0.57552  0.66942  Biso   1.000  C
  H178     1.0000 0.45897  0.48558  0.70048  Biso   1.000  H
  H179     1.0000 0.49762  0.54009  0.66152  Biso   1.000  H
  C304     1.0000 0.54377  0.44898  0.64691  Biso   1.000  C
  C305     1.0000 0.04191  0.55429  0.76499  Biso   1.000  C
  C306     1.0000 0.18661  0.56142  0.78979  Biso   1.000  C
  H180     1.0000 0.23627  0.46279  0.87999  Biso   1.000  H
  H181     1.0000 0.17893  0.50002  0.92168  Biso   1.000  H
  C307     1.0000 0.17612  0.39842  0.93629  Biso   1.000  C
  C308     1.0000 0.11171  0.64360  0.72200  Biso   1.000  C
  O50      1.0000 0.19432  0.71080  0.61510  Biso   1.000  O
  C309     1.0000 0.28337  0.62730  0.67330  Biso   1.000  C
  H182     1.0000 0.37188  0.22561  0.72950  Biso   1.000  H
  H183     1.0000 0.42809  0.28710  0.73040  Biso   1.000  H
  C310     1.0000 0.44448  0.23869  0.82641  Biso   1.000  C
  H184     1.0000 0.36132  0.55551  0.70799  Biso   1.000  H
  H185     1.0000 0.56008  0.45942  0.60442  Biso   1.000  H
  H186     1.0000 0.52190  0.40510  0.64368  Biso   1.000  H
  C311     1.0000 0.61878  0.44898  0.69939  Biso   1.000  C
  C312     1.0000 0.18490  0.61861  0.75281  Biso   1.000  C
  H187     1.0000 0.23553  0.54458  0.81051  Biso   1.000  H
  H188     1.0000 0.22450  0.39412  0.96870  Biso   1.000  H
  H189     1.0000 0.17382  0.36109  0.90682  Biso   1.000  H
  C313     1.0000 0.10669  0.39569  0.97128  Biso   1.000  C
  O51      1.0000 0.10301  0.69938  0.68751  Biso   1.000  O
  C314     1.0000 0.11431  0.70128  0.61868  Biso   1.000  C
  C315     1.0000 0.25888  0.65229  0.73780  Biso   1.000  C
  C316     1.0000 0.51227  0.27729  0.84470  Biso   1.000  C
  C317     1.0000 0.43058  0.18491  0.86478  Biso   1.000  C
  C318     1.0000 0.65961  0.50681  0.71758  Biso   1.000  C
  C319     1.0000 0.64642  0.39061  0.72921  Biso   1.000  C
  C320     1.0000 0.03342  0.36982  0.94161  Biso   1.000  C
  C321     1.0000 0.11348  0.42311  0.03440  Biso   1.000  C
  H190     1.0000 0.08270  0.73662  0.59612  Biso   1.000  H
  H191     1.0000 0.09618  0.66068  0.59711  Biso   1.000  H
  H192     1.0000 0.24553  0.69870  0.73129  Biso   1.000  H
  C322     1.0000 0.33001  0.64741  0.79709  Biso   1.000  C
  H193     1.0000 0.52159  0.31331  0.81911  Biso   1.000  H
  C323     1.0000 0.56629  0.26212  0.90141  Biso   1.000  C
  C324     1.0000 0.48458  0.16968  0.92139  Biso   1.000  C
  H194     1.0000 0.38529  0.15900  0.85251  Biso   1.000  H
  H195     1.0000 0.64123  0.54590  0.69760  Biso   1.000  H
  C325     1.0000 0.72802  0.50622  0.76559  Biso   1.000  C
  C326     1.0000 0.71471  0.38988  0.77721  Biso   1.000  C
  H196     1.0000 0.61902  0.35191  0.71698  Biso   1.000  H
  C327     1.0000 0.96700  0.37119  0.97511  Biso   1.000  C
  H197     1.0000 0.02879  0.35152  0.89942  Biso   1.000  H
  H198     1.0000 0.16247  0.44039  0.05418  Biso   1.000  H
  C328     1.0000 0.04722  0.42448  0.06779  Biso   1.000  C
  H199     1.0000 0.34972  0.60290  0.80122  Biso   1.000  H
  H200     1.0000 0.31089  0.65922  0.83819  Biso   1.000  H
  C329     1.0000 0.39732  0.69250  0.78541  Biso   1.000  C
  H201     1.0000 0.61170  0.28798  0.91368  Biso   1.000  H
  C330     1.0000 0.55252  0.20838  0.93982  Biso   1.000  C
  H202     1.0000 0.47540  0.13381  0.94708  Biso   1.000  H
  H203     1.0000 0.75528  0.54478  0.77771  Biso   1.000  H
  C331     1.0000 0.75560  0.44771  0.79540  Biso   1.000  C
  H204     1.0000 0.73319  0.35079  0.79709  Biso   1.000  H
  H205     1.0000 0.91798  0.35391  0.95518  Biso   1.000  H
  C332     1.0000 0.97389  0.39861  0.03812  Biso   1.000  C
  H206     1.0000 0.05179  0.44278  0.10999  Biso   1.000  H
  H207     1.0000 0.37698  0.73691  0.78402  Biso   1.000  H
  H208     1.0000 0.41161  0.68279  0.74198  Biso   1.000  H
  C333     1.0000 0.47261  0.68972  0.83551  Biso   1.000  C
  H209     1.0000 0.58861  0.19818  0.97769  Biso   1.000  H
  H210     1.0000 0.80130  0.44732  0.82751  Biso   1.000  H
  H211     1.0000 0.92952  0.39959  0.06049  Biso   1.000  H
  C334     1.0000 0.52628  0.63979  0.82711  Biso   1.000  C
  C335     1.0000 0.49151  0.73462  0.88660  Biso   1.000  C
  H212     1.0000 0.51358  0.60968  0.79292  Biso   1.000  H
  C336     1.0000 0.59890  0.63482  0.86980  Biso   1.000  C
  C337     1.0000 0.56421  0.72959  0.92939  Biso   1.000  C
  H213     1.0000 0.45557  0.76800  0.89221  Biso   1.000  H
  H214     1.0000 0.63489  0.60139  0.86418  Biso   1.000  H
  C338     1.0000 0.61787  0.67981  0.92099  Biso   1.000  C
  H215     1.0000 0.57679  0.75970  0.96358  Biso   1.000  H
  H216     1.0000 0.66651  0.67639  0.94961  Biso   1.000  H
