data_image0
_cell_length_a       12.081
_cell_length_b       16.789
_cell_length_c       19.29
_cell_angle_alpha    110.85
_cell_angle_beta     92.19
_cell_angle_gamma    98.64

_symmetry_space_group_name_H-M    "P 1"
_symmetry_int_tables_number       1

loop_
  _symmetry_equiv_pos_as_xyz
  'x, y, z'

loop_
  _atom_site_label
  _atom_site_occupancy
  _atom_site_fract_x
  _atom_site_fract_y
  _atom_site_fract_z
  _atom_site_thermal_displace_type
  _atom_site_B_iso_or_equiv
  _atom_site_type_symbol
  C1       1.0000 0.44075  0.17586  0.84531  Biso   1.000  C
  C2       1.0000 0.32553  0.11370  0.81799  Biso   1.000  C
  N1       1.0000 0.52012  0.11818  0.82273  Biso   1.000  N
  C3       1.0000 0.32544  0.11364  0.81799  Biso   1.000  C
  N2       1.0000 0.52003  0.11816  0.82267  Biso   1.000  N
  C4       1.0000 0.32545  0.11370  0.81799  Biso   1.000  C
  N3       1.0000 0.43719  0.21466  0.92553  Biso   1.000  N
  N4       1.0000 0.43710  0.21464  0.92547  Biso   1.000  N
  H1       1.0000 0.45019  0.22044  0.82178  Biso   1.000  H
  H2       1.0000 0.28027  0.12847  0.78131  Biso   1.000  H
  N5       1.0000 0.27241  0.12740  0.88679  Biso   1.000  N
  C5       1.0000 0.44083  0.17586  0.84531  Biso   1.000  C
  N6       1.0000 0.35616  0.02948  0.78471  Biso   1.000  N
  N7       1.0000 0.27240  0.12734  0.88679  Biso   1.000  N
  N8       1.0000 0.35615  0.02942  0.78471  Biso   1.000  N
  C6       1.0000 0.33591  0.18798  0.94694  Biso   1.000  C
  C7       1.0000 0.51470  0.29137  0.97303  Biso   1.000  C
  C8       1.0000 0.33582  0.18795  0.94688  Biso   1.000  C
  C9       1.0000 0.51461  0.29134  0.97297  Biso   1.000  C
  C10      1.0000 0.63953  0.14895  0.82680  Biso   1.000  C
  C11      1.0000 0.47083  0.03371  0.78700  Biso   1.000  C
  C12      1.0000 0.47082  0.03365  0.78700  Biso   1.000  C
  C13      1.0000 0.15565  0.09047  0.88890  Biso   1.000  C
  C14      1.0000 0.15573  0.09047  0.88890  Biso   1.000  C
  C15      1.0000 0.27705  0.95062  0.74290  Biso   1.000  C
  C16      1.0000 0.27706  0.95068  0.74290  Biso   1.000  C
  O1       1.0000 0.30773  0.21587  0.01099  Biso   1.000  O
  O2       1.0000 0.30783  0.21593  0.01099  Biso   1.000  O
  H3       1.0000 0.53395  0.32957  0.94471  Biso   1.000  H
  H4       1.0000 0.53403  0.32957  0.94471  Biso   1.000  H
  H5       1.0000 0.47602  0.32307  0.01601  Biso   1.000  H
  H6       1.0000 0.47592  0.32301  0.01601  Biso   1.000  H
  N9       1.0000 0.61795  0.27347  0.00079  Biso   1.000  N
  H7       1.0000 0.47594  0.32307  0.01601  Biso   1.000  H
  H8       1.0000 0.67350  0.10398  0.78990  Biso   1.000  H
  H9       1.0000 0.65087  0.20124  0.81348  Biso   1.000  H
  N10      1.0000 0.69662  0.17008  0.90072  Biso   1.000  N
  H10      1.0000 0.67340  0.10392  0.78990  Biso   1.000  H
  O3       1.0000 0.51920  0.97252  0.76068  Biso   1.000  O
  O4       1.0000 0.51928  0.97252  0.76068  Biso   1.000  O
  N11      1.0000 0.14073  0.00481  0.89136  Biso   1.000  N
  H11      1.0000 0.12624  0.12930  0.93333  Biso   1.000  H
  H12      1.0000 0.11039  0.08850  0.84431  Biso   1.000  H
  N12      1.0000 0.14064  0.00475  0.89136  Biso   1.000  N
  H13      1.0000 0.11037  0.08844  0.84431  Biso   1.000  H
  H14      1.0000 0.12616  0.12930  0.93333  Biso   1.000  H
  H15      1.0000 0.12614  0.12921  0.93328  Biso   1.000  H
  H16      1.0000 0.11029  0.08844  0.84431  Biso   1.000  H
  N13      1.0000 0.22684  0.90733  0.78973  Biso   1.000  N
  H17      1.0000 0.31668  0.91068  0.70549  Biso   1.000  H
  H18      1.0000 0.21668  0.96513  0.71581  Biso   1.000  H
  N14      1.0000 0.22693  0.90739  0.78973  Biso   1.000  N
  H19      1.0000 0.21669  0.96519  0.71581  Biso   1.000  H
  N15      1.0000 0.22684  0.90736  0.78967  Biso   1.000  N
  C17      1.0000 0.71259  0.25610  0.95753  Biso   1.000  C
  C18      1.0000 0.71256  0.25602  0.95747  Biso   1.000  C
  C19      1.0000 0.63790  0.27812  0.07181  Biso   1.000  C
  C20      1.0000 0.77273  0.12190  0.91282  Biso   1.000  C
  C21      1.0000 0.77263  0.12184  0.91282  Biso   1.000  C
  C22      1.0000 0.12853  0.99033  0.95664  Biso   1.000  C
  C23      1.0000 0.12608  0.92587  0.82641  Biso   1.000  C
  C24      1.0000 0.12862  0.99037  0.95658  Biso   1.000  C
  C25      1.0000 0.12863  0.99040  0.95664  Biso   1.000  C
  C26      1.0000 0.12854  0.99037  0.95658  Biso   1.000  C
  C27      1.0000 0.25971  0.83499  0.79318  Biso   1.000  C
  H20      1.0000 0.73677  0.30190  0.93674  Biso   1.000  H
  H21      1.0000 0.73675  0.30182  0.93668  Biso   1.000  H
  C28      1.0000 0.80428  0.25392  0.01489  Biso   1.000  C
  N16      1.0000 0.74683  0.26501  0.08123  Biso   1.000  N
  O5       1.0000 0.57233  0.29256  0.11981  Biso   1.000  O
  N17      1.0000 0.74672  0.26493  0.08118  Biso   1.000  N
  N18      1.0000 0.74681  0.26495  0.08123  Biso   1.000  N
  O6       1.0000 0.57243  0.29262  0.11981  Biso   1.000  O
  N19      1.0000 0.74682  0.26499  0.08118  Biso   1.000  N
  O7       1.0000 0.78404  0.05061  0.87140  Biso   1.000  O
  N20      1.0000 0.83404  0.16921  0.97988  Biso   1.000  N
  O8       1.0000 0.78394  0.05055  0.87140  Biso   1.000  O
  N21      1.0000 0.83395  0.16915  0.97988  Biso   1.000  N
  H22      1.0000 0.06224  0.92244  0.79029  Biso   1.000  H
  C29      1.0000 0.10152  0.85383  0.86030  Biso   1.000  C
  H23      1.0000 0.06232  0.92244  0.79029  Biso   1.000  H
  C30      1.0000 0.10161  0.85383  0.86030  Biso   1.000  C
  N22      1.0000 0.10923  0.90257  0.93924  Biso   1.000  N
  N23      1.0000 0.10931  0.90255  0.93919  Biso   1.000  N
  N24      1.0000 0.10933  0.90263  0.93924  Biso   1.000  N
  O9       1.0000 0.13198  0.04586  0.01852  Biso   1.000  O
  O10      1.0000 0.13197  0.04584  0.01846  Biso   1.000  O
  O11      1.0000 0.13207  0.04590  0.01846  Biso   1.000  O
  N25      1.0000 0.19113  0.80422  0.83672  Biso   1.000  N
  O12      1.0000 0.33600  0.80104  0.76236  Biso   1.000  O
  N26      1.0000 0.19122  0.80428  0.83672  Biso   1.000  N
  O13      1.0000 0.33601  0.80110  0.76236  Biso   1.000  O
  H24      1.0000 0.87056  0.30115  0.02381  Biso   1.000  H
  H25      1.0000 0.87065  0.30121  0.02381  Biso   1.000  H
  C31      1.0000 0.80264  0.27666  0.15298  Biso   1.000  C
  C32      1.0000 0.80273  0.27672  0.15298  Biso   1.000  C
  C33      1.0000 0.92336  0.13686  0.00781  Biso   1.000  C
  C34      1.0000 0.92345  0.13692  0.00781  Biso   1.000  C
  H26      1.0000 0.02550  0.81720  0.84118  Biso   1.000  H
  H27      1.0000 0.02559  0.81726  0.84118  Biso   1.000  H
  C35      1.0000 0.07660  0.86321  0.99220  Biso   1.000  C
  C36      1.0000 0.19722  0.72336  0.84704  Biso   1.000  C
  C37      1.0000 0.19730  0.72333  0.84698  Biso   1.000  C
  C38      1.0000 0.19732  0.72342  0.84704  Biso   1.000  C
  N27      1.0000 0.80882  0.19579  0.16330  Biso   1.000  N
  H28      1.0000 0.88000  0.30908  0.15811  Biso   1.000  H
  H29      1.0000 0.76197  0.31206  0.19290  Biso   1.000  H
  N28      1.0000 0.80881  0.19573  0.16330  Biso   1.000  N
  H30      1.0000 0.87998  0.30902  0.15811  Biso   1.000  H
  H31      1.0000 0.76207  0.31212  0.19290  Biso   1.000  H
  H32      1.0000 0.95099  0.09377  0.96511  Biso   1.000  H
  N29      1.0000 0.89071  0.09744  0.06078  Biso   1.000  N
  N30      1.0000 0.89073  0.09750  0.06078  Biso   1.000  N
  H33      1.0000 0.98678  0.18548  0.03162  Biso   1.000  H
  H34      1.0000 0.01325  0.81454  0.96840  Biso   1.000  H
  H35      1.0000 0.01335  0.81460  0.96840  Biso   1.000  H
  N31      1.0000 0.16608  0.83087  0.02013  Biso   1.000  N
  N32      1.0000 0.16600  0.83087  0.02013  Biso   1.000  N
  H36      1.0000 0.04895  0.90625  0.03491  Biso   1.000  H
  H37      1.0000 0.04904  0.90625  0.03491  Biso   1.000  H
  N33      1.0000 0.25312  0.73500  0.91878  Biso   1.000  N
  H38      1.0000 0.23797  0.68795  0.80712  Biso   1.000  H
  N34      1.0000 0.25321  0.73506  0.91878  Biso   1.000  N
  H39      1.0000 0.23807  0.68801  0.80712  Biso   1.000  H
  H40      1.0000 0.11996  0.69099  0.84191  Biso   1.000  H
  C39      1.0000 0.74033  0.16508  0.20684  Biso   1.000  C
  C40      1.0000 0.89842  0.14619  0.13971  Biso   1.000  C
  C41      1.0000 0.74024  0.16506  0.20678  Biso   1.000  C
  C42      1.0000 0.74034  0.16512  0.20678  Biso   1.000  C
  C43      1.0000 0.87140  0.00962  0.04338  Biso   1.000  C
  C44      1.0000 0.87150  0.00968  0.04338  Biso   1.000  C
  C45      1.0000 0.19565  0.74604  0.98512  Biso   1.000  C
  C46      1.0000 0.19574  0.74610  0.98512  Biso   1.000  C
  C47      1.0000 0.22731  0.87818  0.08720  Biso   1.000  C
  C48      1.0000 0.36205  0.72196  0.92821  Biso   1.000  C
  C49      1.0000 0.36215  0.72202  0.92821  Biso   1.000  C
  O14      1.0000 0.66395  0.19897  0.23766  Biso   1.000  O
  N35      1.0000 0.77310  0.09263  0.21029  Biso   1.000  N
  O15      1.0000 0.66404  0.19903  0.23766  Biso   1.000  O
  N36      1.0000 0.77319  0.09269  0.21029  Biso   1.000  N
  C50      1.0000 0.87396  0.07420  0.17361  Biso   1.000  C
  C51      1.0000 0.87386  0.07414  0.17361  Biso   1.000  C
  H41      1.0000 0.97434  0.18273  0.15878  Biso   1.000  H
  H42      1.0000 0.97444  0.18279  0.15878  Biso   1.000  H
  O16      1.0000 0.86805  0.95415  0.98150  Biso   1.000  O
  O17      1.0000 0.86806  0.95421  0.98150  Biso   1.000  O
  N37      1.0000 0.85931  0.99526  0.10866  Biso   1.000  N
  H43      1.0000 0.12938  0.69887  0.97621  Biso   1.000  H
  H44      1.0000 0.12948  0.69893  0.97621  Biso   1.000  H
  C52      1.0000 0.28737  0.74398  0.04249  Biso   1.000  C
  O18      1.0000 0.21600  0.94946  0.12862  Biso   1.000  O
  N38      1.0000 0.30332  0.82994  0.09930  Biso   1.000  N
  O19      1.0000 0.42753  0.70746  0.88021  Biso   1.000  O
  N39      1.0000 0.38200  0.72655  0.99923  Biso   1.000  N
  N40      1.0000 0.38200  0.72659  0.99917  Biso   1.000  N
  O20      1.0000 0.42763  0.70752  0.88021  Biso   1.000  O
  N41      1.0000 0.38209  0.72661  0.99923  Biso   1.000  N
  C53      1.0000 0.72289  0.04940  0.25712  Biso   1.000  C
  H45      1.0000 0.93769  0.07755  0.20968  Biso   1.000  H
  H46      1.0000 0.93779  0.07761  0.20968  Biso   1.000  H
  C54      1.0000 0.84429  0.90955  0.11112  Biso   1.000  C
  C55      1.0000 0.84431  0.90961  0.11112  Biso   1.000  C
  H47      1.0000 0.26318  0.69817  0.06328  Biso   1.000  H
  C56      1.0000 0.36059  0.85112  0.17322  Biso   1.000  C
  C57      1.0000 0.36050  0.85106  0.17322  Biso   1.000  C
  C58      1.0000 0.48532  0.70865  0.02699  Biso   1.000  C
  N42      1.0000 0.64378  0.97053  0.21531  Biso   1.000  N
  H48      1.0000 0.78327  0.03489  0.28421  Biso   1.000  H
  H49      1.0000 0.68328  0.08940  0.29453  Biso   1.000  H
  H50      1.0000 0.68336  0.08938  0.29447  Biso   1.000  H
  H51      1.0000 0.78336  0.03495  0.28421  Biso   1.000  H
  N43      1.0000 0.72763  0.87268  0.11323  Biso   1.000  N
  N44      1.0000 0.72762  0.87265  0.11318  Biso   1.000  N
  H52      1.0000 0.87379  0.87072  0.06668  Biso   1.000  H
  H53      1.0000 0.88957  0.91158  0.15571  Biso   1.000  H
  H54      1.0000 0.32654  0.89609  0.21012  Biso   1.000  H
  N45      1.0000 0.47991  0.88183  0.17729  Biso   1.000  N
  H55      1.0000 0.32653  0.89607  0.21007  Biso   1.000  H
  H56      1.0000 0.34906  0.79875  0.18649  Biso   1.000  H
  H57      1.0000 0.52402  0.67700  0.98401  Biso   1.000  H
  N46      1.0000 0.56284  0.78535  0.07449  Biso   1.000  N
  H58      1.0000 0.46609  0.67050  0.05531  Biso   1.000  H
  H59      1.0000 0.46600  0.67044  0.05531  Biso   1.000  H
  C59      1.0000 0.52929  0.96637  0.21302  Biso   1.000  C
  C60      1.0000 0.67459  0.88638  0.18203  Biso   1.000  C
  C61      1.0000 0.52920  0.96635  0.21297  Biso   1.000  C
  C62      1.0000 0.52921  0.96637  0.21302  Biso   1.000  C
  C63      1.0000 0.67451  0.88638  0.18203  Biso   1.000  C
  C64      1.0000 0.66412  0.81204  0.05308  Biso   1.000  C
  C65      1.0000 0.55929  0.82422  0.15471  Biso   1.000  C
  C66      1.0000 0.55921  0.82422  0.15471  Biso   1.000  C
  O21      1.0000 0.48075  0.02750  0.23934  Biso   1.000  O
  O22      1.0000 0.48066  0.02748  0.23928  Biso   1.000  O
  O23      1.0000 0.48074  0.02748  0.23928  Biso   1.000  O
  H60      1.0000 0.71976  0.87155  0.21871  Biso   1.000  H
  H61      1.0000 0.71967  0.87155  0.21871  Biso   1.000  H
  O24      1.0000 0.69223  0.78421  0.98903  Biso   1.000  O
  H62      1.0000 0.54977  0.77964  0.17824  Biso   1.000  H
  H63      1.0000 0.54975  0.77955  0.17818  Biso   1.000  H
  H64      1.0000 0.54975  0.77958  0.17824  Biso   1.000  H
  O25      1.0000 0.22617  0.41533  0.65638  Biso   1.000  O
  C67      1.0000 0.16471  0.34844  0.61468  Biso   1.000  C
  N47      1.0000 0.19276  0.29274  0.54856  Biso   1.000  N
  N48      1.0000 0.06014  0.31674  0.62627  Biso   1.000  N
  O26      1.0000 0.22609  0.41533  0.65638  Biso   1.000  O
  C68      1.0000 0.30106  0.30652  0.52091  Biso   1.000  C
  C69      1.0000 0.10894  0.21524  0.51578  Biso   1.000  C
  C70      1.0000 0.01854  0.22994  0.57248  Biso   1.000  C
  C71      1.0000 0.01405  0.35214  0.69680  Biso   1.000  C
  N49      1.0000 0.29901  0.34423  0.46421  Biso   1.000  N
  H65      1.0000 0.32723  0.25045  0.50012  Biso   1.000  H
  H66      1.0000 0.35606  0.34512  0.56322  Biso   1.000  H
  N50      1.0000 0.04712  0.20802  0.44721  Biso   1.000  N
  H67      1.0000 0.14066  0.16184  0.51021  Biso   1.000  H
  N51      1.0000 0.91682  0.22025  0.52587  Biso   1.000  N
  H68      1.0000 0.01193  0.18606  0.59678  Biso   1.000  H
  H69      1.0000 0.07542  0.39081  0.73448  Biso   1.000  H
  N52      1.0000 0.92538  0.39983  0.69462  Biso   1.000  N
  H70      1.0000 0.98465  0.30406  0.71307  Biso   1.000  H
  N53      1.0000 0.92546  0.39983  0.69462  Biso   1.000  N
  C72      1.0000 0.27127  0.29420  0.38550  Biso   1.000  C
  C73      1.0000 0.33577  0.43021  0.47938  Biso   1.000  C
  C74      1.0000 0.33585  0.43021  0.47938  Biso   1.000  C
  C75      1.0000 0.09361  0.18625  0.37602  Biso   1.000  C
  C76      1.0000 0.93470  0.20812  0.45340  Biso   1.000  C
  C77      1.0000 0.80711  0.22582  0.55230  Biso   1.000  C
  C78      1.0000 0.80893  0.36067  0.66881  Biso   1.000  C
  C79      1.0000 0.94393  0.48891  0.71837  Biso   1.000  C
  C80      1.0000 0.29581  0.36393  0.34971  Biso   1.000  C
  N54      1.0000 0.15192  0.26061  0.36359  Biso   1.000  N
  H71      1.0000 0.31791  0.24791  0.36688  Biso   1.000  H
  N55      1.0000 0.32849  0.44364  0.41321  Biso   1.000  N
  O27      1.0000 0.37144  0.48453  0.54042  Biso   1.000  O
  H72      1.0000 0.03195  0.15604  0.33572  Biso   1.000  H
  H73      1.0000 0.14651  0.14579  0.37340  Biso   1.000  H
  O28      1.0000 0.86323  0.19613  0.40295  Biso   1.000  O
  H74      1.0000 0.74922  0.19539  0.50948  Biso   1.000  H
  H75      1.0000 0.79774  0.19521  0.58770  Biso   1.000  H
  N56      1.0000 0.78776  0.31353  0.58898  Biso   1.000  N
  H76      1.0000 0.77721  0.32485  0.69752  Biso   1.000  H
  C81      1.0000 0.75019  0.44000  0.68141  Biso   1.000  C
  O29      1.0000 0.03381  0.53692  0.74385  Biso   1.000  O
  N57      1.0000 0.84331  0.51381  0.70962  Biso   1.000  N
  N58      1.0000 0.18901  0.35600  0.30879  Biso   1.000  N
  H77      1.0000 0.35715  0.35243  0.31598  Biso   1.000  H
  C82      1.0000 0.10646  0.29618  0.31760  Biso   1.000  C
  C83      1.0000 0.10654  0.29618  0.31760  Biso   1.000  C
  C84      1.0000 0.37954  0.52502  0.40707  Biso   1.000  C
  C85      1.0000 0.72093  0.35053  0.55542  Biso   1.000  C
  N59      1.0000 0.70078  0.42529  0.60699  Biso   1.000  N
  H78      1.0000 0.69221  0.44357  0.71742  Biso   1.000  H
  C86      1.0000 0.82649  0.60163  0.74401  Biso   1.000  C
  C87      1.0000 0.17345  0.39838  0.25600  Biso   1.000  C
  C88      1.0000 0.17353  0.39838  0.25600  Biso   1.000  C
  O30      1.0000 0.00982  0.27634  0.28850  Biso   1.000  O
  N60      1.0000 0.29917  0.57472  0.39302  Biso   1.000  N
  H79      1.0000 0.42912  0.51233  0.36632  Biso   1.000  H
  H80      1.0000 0.42727  0.56070  0.45401  Biso   1.000  H
  H81      1.0000 0.42735  0.56070  0.45401  Biso   1.000  H
  O31      1.0000 0.68471  0.32002  0.48819  Biso   1.000  O
  C89      1.0000 0.62049  0.47503  0.59288  Biso   1.000  C
  N61      1.0000 0.81101  0.64401  0.69122  Biso   1.000  N
  H82      1.0000 0.75959  0.60243  0.77211  Biso   1.000  H
  H83      1.0000 0.89240  0.63515  0.78019  Biso   1.000  H
  N62      1.0000 0.15664  0.48620  0.29039  Biso   1.000  N
  H84      1.0000 0.10756  0.36492  0.21981  Biso   1.000  H
  N63      1.0000 0.15672  0.48620  0.29039  Biso   1.000  N
  H85      1.0000 0.24044  0.39758  0.22790  Biso   1.000  H
  H86      1.0000 0.10764  0.36492  0.21981  Biso   1.000  H
  C90      1.0000 0.24984  0.56000  0.31860  Biso   1.000  C
  C91      1.0000 0.27910  0.64947  0.44459  Biso   1.000  C
  N64      1.0000 0.67155  0.55643  0.58680  Biso   1.000  N
  H87      1.0000 0.57267  0.43931  0.54600  Biso   1.000  H
  H88      1.0000 0.57092  0.48774  0.63369  Biso   1.000  H
  C92      1.0000 0.89348  0.70383  0.68241  Biso   1.000  C
  C93      1.0000 0.70415  0.63614  0.65030  Biso   1.000  C
  C94      1.0000 0.70423  0.63614  0.65030  Biso   1.000  C
  C95      1.0000 0.05608  0.51107  0.28158  Biso   1.000  C
  C96      1.0000 0.19103  0.63940  0.33120  Biso   1.000  C
  H89      1.0000 0.30775  0.55650  0.28259  Biso   1.000  H
  C97      1.0000 0.19111  0.63940  0.33120  Biso   1.000  C
  H90      1.0000 0.30783  0.55650  0.28259  Biso   1.000  H
  N65      1.0000 0.21228  0.68654  0.41103  Biso   1.000  N
  O32      1.0000 0.31533  0.68005  0.51182  Biso   1.000  O
  C98      1.0000 0.66417  0.56978  0.52058  Biso   1.000  C
  N66      1.0000 0.84803  0.73940  0.63642  Biso   1.000  N
  N67      1.0000 0.84811  0.73940  0.63642  Biso   1.000  N
  O33      1.0000 0.99022  0.72373  0.71151  Biso   1.000  O
  C99      1.0000 0.72876  0.70581  0.61451  Biso   1.000  C
  H91      1.0000 0.64287  0.64762  0.68397  Biso   1.000  H
  N68      1.0000 0.07457  0.60018  0.30539  Biso   1.000  N
  O34      1.0000 0.96621  0.46309  0.25616  Biso   1.000  O
  H92      1.0000 0.22274  0.67521  0.30249  Biso   1.000  H
  H93      1.0000 0.22283  0.67521  0.30249  Biso   1.000  H
  C100     1.0000 0.19283  0.77419  0.44771  Biso   1.000  C
  C101     1.0000 0.19292  0.77419  0.44771  Biso   1.000  C
  N69      1.0000 0.70094  0.65584  0.53580  Biso   1.000  N
  N70      1.0000 0.70102  0.65584  0.53580  Biso   1.000  N
  O35      1.0000 0.62859  0.51554  0.45959  Biso   1.000  O
  C102     1.0000 0.90634  0.81382  0.62399  Biso   1.000  C
  C103     1.0000 0.90643  0.81382  0.62399  Biso   1.000  C
  H94      1.0000 0.68202  0.75208  0.63308  Biso   1.000  H
  H95      1.0000 0.68210  0.75208  0.63308  Biso   1.000  H
  C104     1.0000 0.98598  0.64793  0.30321  Biso   1.000  C
  H96      1.0000 0.25079  0.80459  0.49047  Biso   1.000  H
  H97      1.0000 0.20228  0.80480  0.41231  Biso   1.000  H
  N71      1.0000 0.08313  0.77982  0.47414  Biso   1.000  N
  N72      1.0000 0.08321  0.77982  0.47414  Biso   1.000  N
  C105     1.0000 0.69897  0.69349  0.47910  Biso   1.000  C
  N73      1.0000 0.95291  0.79203  0.55274  Biso   1.000  N
  H98      1.0000 0.96809  0.84403  0.66429  Biso   1.000  H
  H99      1.0000 0.85352  0.85422  0.62661  Biso   1.000  H
  H100     1.0000 0.01538  0.69599  0.28688  Biso   1.000  H
  H101     1.0000 0.92452  0.60917  0.26547  Biso   1.000  H
  N74      1.0000 0.93989  0.68331  0.37368  Biso   1.000  N
  H102     1.0000 0.92460  0.60917  0.26547  Biso   1.000  H
  C106     1.0000 0.98149  0.77010  0.42748  Biso   1.000  C
  C107     1.0000 0.06524  0.79189  0.54661  Biso   1.000  C
  C108     1.0000 0.06532  0.79189  0.54661  Biso   1.000  C
  N75      1.0000 0.80727  0.70727  0.45145  Biso   1.000  N
  H103     1.0000 0.64396  0.65489  0.43679  Biso   1.000  H
  H104     1.0000 0.67272  0.74962  0.49989  Biso   1.000  H
  H105     1.0000 0.67280  0.74962  0.49989  Biso   1.000  H
  C109     1.0000 0.89109  0.78481  0.48417  Biso   1.000  C
  C110     1.0000 0.83523  0.65161  0.38528  Biso   1.000  C
  C111     1.0000 0.83532  0.65161  0.38528  Biso   1.000  C
  H106     1.0000 0.98810  0.81401  0.40323  Biso   1.000  H
  O36      1.0000 0.13680  0.80392  0.59701  Biso   1.000  O
  H107     1.0000 0.85938  0.83823  0.48980  Biso   1.000  H
  O37      1.0000 0.77386  0.58468  0.34363  Biso   1.000  O
  Ne1      1.0000 0.00510  0.51543  0.49828  Biso   1.000  Ne
  He1      1.0000 0.20246  0.61152  0.63979  Biso   1.000  He
  He2      1.0000 0.81022  0.39637  0.36923  Biso   1.000  He
  Ar1      1.0000 0.99834  0.50269  0.50115  Biso   1.000  Ar
  Ne2      1.0000 0.48470  0.00654  0.99554  Biso   1.000  Ne
  He3      1.0000 0.38722  0.12842  0.13249  Biso   1.000  He
  He4      1.0000 0.60591  0.87888  0.87523  Biso   1.000  He
  Ar2      1.0000 0.49991  0.99625  0.99720  Biso   1.000  Ar
