data_image0
_cell_length_a       12.081
_cell_length_b       16.789
_cell_length_c       19.29
_cell_angle_alpha    110.85
_cell_angle_beta     92.19
_cell_angle_gamma    98.64

_symmetry_space_group_name_H-M    "P 1"
_symmetry_int_tables_number       1

loop_
  _symmetry_equiv_pos_as_xyz
  'x, y, z'

loop_
  _atom_site_label
  _atom_site_occupancy
  _atom_site_fract_x
  _atom_site_fract_y
  _atom_site_fract_z
  _atom_site_thermal_displace_type
  _atom_site_B_iso_or_equiv
  _atom_site_type_symbol
  C1       1.0000 0.80893  0.36067  0.66881  Biso   1.000  C
  C2       1.0000 0.75019  0.44000  0.68141  Biso   1.000  C
  N1       1.0000 0.78776  0.31353  0.58898  Biso   1.000  N
  N2       1.0000 0.92546  0.39983  0.69462  Biso   1.000  N
  H1       1.0000 0.77721  0.32485  0.69752  Biso   1.000  H
  N3       1.0000 0.70078  0.42529  0.60699  Biso   1.000  N
  N4       1.0000 0.84331  0.51381  0.70962  Biso   1.000  N
  H2       1.0000 0.69221  0.44357  0.71742  Biso   1.000  H
  C3       1.0000 0.72093  0.35053  0.55542  Biso   1.000  C
  C4       1.0000 0.80711  0.22582  0.55230  Biso   1.000  C
  C5       1.0000 0.94393  0.48891  0.71837  Biso   1.000  C
  C6       1.0000 0.01405  0.35214  0.69680  Biso   1.000  C
  C7       1.0000 0.62049  0.47503  0.59288  Biso   1.000  C
  C8       1.0000 0.82649  0.60163  0.74401  Biso   1.000  C
  O1       1.0000 0.68471  0.32002  0.48819  Biso   1.000  O
  N5       1.0000 0.91682  0.22025  0.52587  Biso   1.000  N
  H3       1.0000 0.74922  0.19539  0.50948  Biso   1.000  H
  H4       1.0000 0.79774  0.19521  0.58770  Biso   1.000  H
  O2       1.0000 0.03381  0.53692  0.74385  Biso   1.000  O
  H5       1.0000 0.98465  0.30406  0.71307  Biso   1.000  H
  N6       1.0000 0.06014  0.31674  0.62627  Biso   1.000  N
  H6       1.0000 0.07542  0.39081  0.73448  Biso   1.000  H
  N7       1.0000 0.67155  0.55643  0.58680  Biso   1.000  N
  H7       1.0000 0.57267  0.43931  0.54600  Biso   1.000  H
  H8       1.0000 0.57092  0.48774  0.63369  Biso   1.000  H
  N8       1.0000 0.81101  0.64401  0.69122  Biso   1.000  N
  H9       1.0000 0.75959  0.60243  0.77211  Biso   1.000  H
  H10      1.0000 0.89240  0.63515  0.78019  Biso   1.000  H
  C9       1.0000 0.93470  0.20812  0.45340  Biso   1.000  C
  C10      1.0000 0.01854  0.22994  0.57248  Biso   1.000  C
  C11      1.0000 0.16471  0.34844  0.61468  Biso   1.000  C
  C12      1.0000 0.66417  0.56978  0.52058  Biso   1.000  C
  C13      1.0000 0.70423  0.63614  0.65030  Biso   1.000  C
  C14      1.0000 0.89348  0.70383  0.68241  Biso   1.000  C
  O3       1.0000 0.86323  0.19613  0.40295  Biso   1.000  O
  N9       1.0000 0.04712  0.20802  0.44721  Biso   1.000  N
  H11      1.0000 0.01193  0.18606  0.59678  Biso   1.000  H
  C15      1.0000 0.10894  0.21524  0.51578  Biso   1.000  C
  N10      1.0000 0.19276  0.29274  0.54856  Biso   1.000  N
  O4       1.0000 0.22609  0.41533  0.65638  Biso   1.000  O
  O5       1.0000 0.62859  0.51554  0.45959  Biso   1.000  O
  N11      1.0000 0.70102  0.65584  0.53580  Biso   1.000  N
  C16      1.0000 0.72876  0.70581  0.61451  Biso   1.000  C
  H12      1.0000 0.64287  0.64762  0.68397  Biso   1.000  H
  N12      1.0000 0.84811  0.73940  0.63642  Biso   1.000  N
  O6       1.0000 0.99022  0.72373  0.71151  Biso   1.000  O
  C17      1.0000 0.09361  0.18625  0.37602  Biso   1.000  C
  H13      1.0000 0.14066  0.16184  0.51021  Biso   1.000  H
  C18      1.0000 0.30097  0.30652  0.52091  Biso   1.000  C
  C19      1.0000 0.69897  0.69349  0.47910  Biso   1.000  C
  H14      1.0000 0.68210  0.75208  0.63308  Biso   1.000  H
  C20      1.0000 0.90643  0.81382  0.62399  Biso   1.000  C
  N13      1.0000 0.15192  0.26061  0.36359  Biso   1.000  N
  H15      1.0000 0.03195  0.15604  0.33572  Biso   1.000  H
  H16      1.0000 0.14651  0.14579  0.37340  Biso   1.000  H
  N14      1.0000 0.29901  0.34423  0.46421  Biso   1.000  N
  H17      1.0000 0.35598  0.34512  0.56322  Biso   1.000  H
  H18      1.0000 0.32723  0.25045  0.50012  Biso   1.000  H
  N15      1.0000 0.80727  0.70727  0.45145  Biso   1.000  N
  H19      1.0000 0.64396  0.65489  0.43679  Biso   1.000  H
  H20      1.0000 0.67280  0.74962  0.49989  Biso   1.000  H
  N16      1.0000 0.95291  0.79203  0.55274  Biso   1.000  N
  H21      1.0000 0.96809  0.84403  0.66429  Biso   1.000  H
  H22      1.0000 0.85352  0.85422  0.62661  Biso   1.000  H
  C21      1.0000 0.27118  0.29420  0.38550  Biso   1.000  C
  C22      1.0000 0.10646  0.29618  0.31760  Biso   1.000  C
  C23      1.0000 0.33577  0.43021  0.47938  Biso   1.000  C
  C24      1.0000 0.83532  0.65161  0.38528  Biso   1.000  C
  C25      1.0000 0.89109  0.78481  0.48417  Biso   1.000  C
  C26      1.0000 0.06524  0.79189  0.54661  Biso   1.000  C
  C27      1.0000 0.29581  0.36393  0.34971  Biso   1.000  C
  H23      1.0000 0.31791  0.24791  0.36688  Biso   1.000  H
  N17      1.0000 0.18901  0.35600  0.30879  Biso   1.000  N
  O7       1.0000 0.00982  0.27634  0.28850  Biso   1.000  O
  N18      1.0000 0.32849  0.44364  0.41321  Biso   1.000  N
  O8       1.0000 0.37136  0.48453  0.54042  Biso   1.000  O
  O9       1.0000 0.77386  0.58468  0.34363  Biso   1.000  O
  N19      1.0000 0.93989  0.68331  0.37368  Biso   1.000  N
  C28      1.0000 0.98149  0.77010  0.42748  Biso   1.000  C
  H24      1.0000 0.85938  0.83823  0.48980  Biso   1.000  H
  N20      1.0000 0.08313  0.77982  0.47414  Biso   1.000  N
  O10      1.0000 0.13680  0.80392  0.59701  Biso   1.000  O
  H25      1.0000 0.35707  0.35243  0.31598  Biso   1.000  H
  C29      1.0000 0.17345  0.39838  0.25600  Biso   1.000  C
  C30      1.0000 0.37946  0.52502  0.40707  Biso   1.000  C
  C31      1.0000 0.98598  0.64793  0.30321  Biso   1.000  C
  H26      1.0000 0.98810  0.81401  0.40323  Biso   1.000  H
  C32      1.0000 0.19283  0.77419  0.44771  Biso   1.000  C
  N21      1.0000 0.15664  0.48620  0.29039  Biso   1.000  N
  H27      1.0000 0.24036  0.39758  0.22790  Biso   1.000  H
  H28      1.0000 0.10756  0.36492  0.21981  Biso   1.000  H
  N22      1.0000 0.29917  0.57472  0.39302  Biso   1.000  N
  H29      1.0000 0.42727  0.56070  0.45401  Biso   1.000  H
  H30      1.0000 0.42912  0.51233  0.36632  Biso   1.000  H
  H31      1.0000 0.92460  0.60917  0.26547  Biso   1.000  H
  N23      1.0000 0.07457  0.60018  0.30539  Biso   1.000  N
  H32      1.0000 0.01538  0.69599  0.28688  Biso   1.000  H
  N24      1.0000 0.21228  0.68654  0.41103  Biso   1.000  N
  H33      1.0000 0.25079  0.80459  0.49047  Biso   1.000  H
  H34      1.0000 0.20228  0.80480  0.41231  Biso   1.000  H
  C33      1.0000 0.05608  0.51107  0.28158  Biso   1.000  C
  C34      1.0000 0.24975  0.56000  0.31860  Biso   1.000  C
  C35      1.0000 0.27910  0.64947  0.44459  Biso   1.000  C
  C36      1.0000 0.19103  0.63940  0.33120  Biso   1.000  C
  O11      1.0000 0.96621  0.46309  0.25616  Biso   1.000  O
  H35      1.0000 0.30775  0.55650  0.28259  Biso   1.000  H
  O12      1.0000 0.31533  0.68005  0.51182  Biso   1.000  O
  H36      1.0000 0.22274  0.67521  0.30249  Biso   1.000  H
  C37      1.0000 0.44075  0.17586  0.84531  Biso   1.000  C
  C38      1.0000 0.32544  0.11364  0.81799  Biso   1.000  C
  N25      1.0000 0.43718  0.21464  0.92547  Biso   1.000  N
  N26      1.0000 0.52003  0.11816  0.82267  Biso   1.000  N
  H37      1.0000 0.45027  0.22044  0.82178  Biso   1.000  H
  N27      1.0000 0.27232  0.12734  0.88679  Biso   1.000  N
  N28      1.0000 0.35616  0.02948  0.78471  Biso   1.000  N
  H38      1.0000 0.28027  0.12847  0.78131  Biso   1.000  H
  C39      1.0000 0.33582  0.18795  0.94688  Biso   1.000  C
  C40      1.0000 0.51461  0.29134  0.97297  Biso   1.000  C
  C41      1.0000 0.47074  0.03365  0.78700  Biso   1.000  C
  C42      1.0000 0.63945  0.14895  0.82680  Biso   1.000  C
  C43      1.0000 0.15565  0.09047  0.88890  Biso   1.000  C
  C44      1.0000 0.27705  0.95062  0.74290  Biso   1.000  C
  O13      1.0000 0.30781  0.21587  0.01099  Biso   1.000  O
  H39      1.0000 0.53395  0.32957  0.94471  Biso   1.000  H
  N29      1.0000 0.61803  0.27347  0.00079  Biso   1.000  N
  H40      1.0000 0.47602  0.32307  0.01601  Biso   1.000  H
  O14      1.0000 0.51928  0.97252  0.76068  Biso   1.000  O
  N30      1.0000 0.69671  0.17008  0.90072  Biso   1.000  N
  H41      1.0000 0.67348  0.10392  0.78990  Biso   1.000  H
  H42      1.0000 0.65087  0.20124  0.81348  Biso   1.000  H
  N31      1.0000 0.14064  0.00475  0.89136  Biso   1.000  N
  H43      1.0000 0.12615  0.12927  0.93328  Biso   1.000  H
  H44      1.0000 0.11037  0.08844  0.84431  Biso   1.000  H
  N32      1.0000 0.22684  0.90736  0.78967  Biso   1.000  N
  H45      1.0000 0.31666  0.91062  0.70549  Biso   1.000  H
  H46      1.0000 0.21668  0.96513  0.71581  Biso   1.000  H
  C45      1.0000 0.71256  0.25602  0.95747  Biso   1.000  C
  C46      1.0000 0.63789  0.27806  0.07181  Biso   1.000  C
  C47      1.0000 0.77263  0.12184  0.91282  Biso   1.000  C
  C48      1.0000 0.12608  0.92587  0.82641  Biso   1.000  C
  C49      1.0000 0.12854  0.99037  0.95658  Biso   1.000  C
  C50      1.0000 0.25969  0.83493  0.79318  Biso   1.000  C
  H47      1.0000 0.73675  0.30182  0.93668  Biso   1.000  H
  C51      1.0000 0.80429  0.25398  0.01489  Biso   1.000  C
  O15      1.0000 0.57241  0.29256  0.11981  Biso   1.000  O
  N33      1.0000 0.74683  0.26501  0.08123  Biso   1.000  N
  O16      1.0000 0.78394  0.05055  0.87140  Biso   1.000  O
  N34      1.0000 0.83395  0.16915  0.97988  Biso   1.000  N
  H48      1.0000 0.06224  0.92244  0.79029  Biso   1.000  H
  C52      1.0000 0.10161  0.85383  0.86030  Biso   1.000  C
  N35      1.0000 0.10931  0.90255  0.93919  Biso   1.000  N
  O17      1.0000 0.13198  0.04586  0.01852  Biso   1.000  O
  O18      1.0000 0.33600  0.80104  0.76236  Biso   1.000  O
  N36      1.0000 0.19122  0.80428  0.83672  Biso   1.000  N
  H49      1.0000 0.87056  0.30115  0.02381  Biso   1.000  H
  C53      1.0000 0.80272  0.27666  0.15298  Biso   1.000  C
  C54      1.0000 0.92344  0.13686  0.00781  Biso   1.000  C
  H50      1.0000 0.02559  0.81726  0.84118  Biso   1.000  H
  C55      1.0000 0.07659  0.86315  0.99220  Biso   1.000  C
  C56      1.0000 0.19730  0.72333  0.84698  Biso   1.000  C
  N37      1.0000 0.80882  0.19579  0.16330  Biso   1.000  N
  H51      1.0000 0.88000  0.30908  0.15811  Biso   1.000  H
  H52      1.0000 0.76197  0.31206  0.19290  Biso   1.000  H
  H53      1.0000 0.95099  0.09377  0.96511  Biso   1.000  H
  N38      1.0000 0.89071  0.09744  0.06078  Biso   1.000  N
  H54      1.0000 0.98669  0.18548  0.03162  Biso   1.000  H
  H55      1.0000 0.01325  0.81454  0.96840  Biso   1.000  H
  N39      1.0000 0.16600  0.83087  0.02013  Biso   1.000  N
  H56      1.0000 0.04904  0.90625  0.03491  Biso   1.000  H
  N40      1.0000 0.25321  0.73506  0.91878  Biso   1.000  N
  H57      1.0000 0.11996  0.69099  0.84191  Biso   1.000  H
  H58      1.0000 0.23797  0.68795  0.80712  Biso   1.000  H
  C57      1.0000 0.74033  0.16508  0.20684  Biso   1.000  C
  C58      1.0000 0.89842  0.14619  0.13971  Biso   1.000  C
  C59      1.0000 0.87141  0.00968  0.04338  Biso   1.000  C
  C60      1.0000 0.19574  0.74607  0.98507  Biso   1.000  C
  C61      1.0000 0.22731  0.87818  0.08720  Biso   1.000  C
  C62      1.0000 0.36214  0.72196  0.92821  Biso   1.000  C
  O19      1.0000 0.66403  0.19897  0.23766  Biso   1.000  O
  N41      1.0000 0.77311  0.09269  0.21029  Biso   1.000  N
  C63      1.0000 0.87396  0.07420  0.17361  Biso   1.000  C
  H59      1.0000 0.97445  0.18281  0.15884  Biso   1.000  H
  O20      1.0000 0.86796  0.95415  0.98150  Biso   1.000  O
  N42      1.0000 0.85931  0.99526  0.10866  Biso   1.000  N
  H60      1.0000 0.12938  0.69887  0.97621  Biso   1.000  H
  C64      1.0000 0.28745  0.74398  0.04249  Biso   1.000  C
  O21      1.0000 0.21600  0.94946  0.12862  Biso   1.000  O
  N43      1.0000 0.30333  0.83000  0.09930  Biso   1.000  N
  O22      1.0000 0.42761  0.70746  0.88021  Biso   1.000  O
  N44      1.0000 0.38200  0.72659  0.99917  Biso   1.000  N
  C65      1.0000 0.72297  0.04940  0.25712  Biso   1.000  C
  H61      1.0000 0.93770  0.07757  0.20973  Biso   1.000  H
  C66      1.0000 0.84431  0.90961  0.11112  Biso   1.000  C
  H62      1.0000 0.26327  0.69817  0.06328  Biso   1.000  H
  C67      1.0000 0.36050  0.85106  0.17322  Biso   1.000  C
  C68      1.0000 0.48532  0.70865  0.02699  Biso   1.000  C
  N45      1.0000 0.64388  0.97059  0.21531  Biso   1.000  N
  H63      1.0000 0.68336  0.08940  0.29453  Biso   1.000  H
  H64      1.0000 0.78335  0.03489  0.28421  Biso   1.000  H
  N46      1.0000 0.72763  0.87268  0.11323  Biso   1.000  N
  H65      1.0000 0.87380  0.87078  0.06668  Biso   1.000  H
  H66      1.0000 0.88965  0.91158  0.15571  Biso   1.000  H
  N47      1.0000 0.47992  0.88189  0.17729  Biso   1.000  N
  H67      1.0000 0.32654  0.89609  0.21012  Biso   1.000  H
  H68      1.0000 0.34916  0.79881  0.18649  Biso   1.000  H
  H69      1.0000 0.52402  0.67700  0.98401  Biso   1.000  H
  N48      1.0000 0.56284  0.78535  0.07449  Biso   1.000  N
  H70      1.0000 0.46609  0.67050  0.05531  Biso   1.000  H
  C69      1.0000 0.52921  0.96637  0.21302  Biso   1.000  C
  C70      1.0000 0.67451  0.88638  0.18203  Biso   1.000  C
  C71      1.0000 0.66413  0.81210  0.05308  Biso   1.000  C
  C72      1.0000 0.55921  0.82422  0.15471  Biso   1.000  C
  O23      1.0000 0.48075  0.02750  0.23934  Biso   1.000  O
  H71      1.0000 0.71977  0.87161  0.21871  Biso   1.000  H
  O24      1.0000 0.69221  0.78414  0.98903  Biso   1.000  O
  H72      1.0000 0.54975  0.77958  0.17824  Biso   1.000  H
