data_image0
_cell_length_a       7.891
_cell_length_b       14.053
_cell_length_c       14.186
_cell_angle_alpha    81.88
_cell_angle_beta     79.67
_cell_angle_gamma    89.43

_symmetry_space_group_name_H-M    "P 1"
_symmetry_int_tables_number       1

loop_
  _symmetry_equiv_pos_as_xyz
  'x, y, z'

loop_
  _atom_site_label
  _atom_site_occupancy
  _atom_site_fract_x
  _atom_site_fract_y
  _atom_site_fract_z
  _atom_site_thermal_displace_type
  _atom_site_B_iso_or_equiv
  _atom_site_type_symbol
  C1       1.0000 0.69489  0.45508  0.57119  Biso   1.000  C
  C2       1.0000 0.77079  0.45910  0.47390  Biso   1.000  C
  H1       1.0000 0.66260  0.39476  0.60941  Biso   1.000  H
  C3       1.0000 0.66660  0.53930  0.61187  Biso   1.000  C
  C4       1.0000 0.81909  0.54620  0.41679  Biso   1.000  C
  H2       1.0000 0.78951  0.40118  0.44654  Biso   1.000  H
  C5       1.0000 0.71047  0.62829  0.55345  Biso   1.000  C
  O1       1.0000 0.59856  0.54494  0.70626  Biso   1.000  O
  C6       1.0000 0.91104  0.54847  0.31422  Biso   1.000  C
  C7       1.0000 0.78612  0.63100  0.45740  Biso   1.000  C
  O2       1.0000 0.68449  0.71310  0.59203  Biso   1.000  O
  C8       1.0000 0.54100  0.45807  0.76930  Biso   1.000  C
  O3       1.0000 0.84560  0.62978  0.25682  Biso   1.000  O
  H3       1.0000 0.88890  0.48799  0.28990  Biso   1.000  H
  H4       1.0000 0.03671  0.55599  0.31038  Biso   1.000  H
  H5       1.0000 0.81588  0.69129  0.41838  Biso   1.000  H
  C9       1.0000 0.50540  0.73649  0.62149  Biso   1.000  C
  H6       1.0000 0.46453  0.42046  0.73970  Biso   1.000  H
  H7       1.0000 0.64021  0.41806  0.78255  Biso   1.000  H
  C10      1.0000 0.44439  0.48874  0.86130  Biso   1.000  C
  C11      1.0000 0.93689  0.65924  0.16938  Biso   1.000  C
  C12      1.0000 0.46712  0.75619  0.72421  Biso   1.000  C
  H8       1.0000 0.47698  0.79373  0.57835  Biso   1.000  H
  H9       1.0000 0.43159  0.68234  0.61440  Biso   1.000  H
  O4       1.0000 0.28814  0.53109  0.84205  Biso   1.000  O
  H10      1.0000 0.51465  0.53577  0.88410  Biso   1.000  H
  H11      1.0000 0.41981  0.43245  0.91233  Biso   1.000  H
  C13      1.0000 0.85027  0.74066  0.11676  Biso   1.000  C
  O5       1.0000 0.07407  0.62766  0.13594  Biso   1.000  O
  O6       1.0000 0.55277  0.84294  0.73326  Biso   1.000  O
  H12      1.0000 0.50610  0.70183  0.76706  Biso   1.000  H
  H13      1.0000 0.34131  0.76235  0.74462  Biso   1.000  H
  C14      1.0000 0.19914  0.57696  0.91907  Biso   1.000  C
  N1       1.0000 0.68312  0.75354  0.15063  Biso   1.000  N
  C15      1.0000 0.94594  0.79854  0.03771  Biso   1.000  C
  C16      1.0000 0.48488  0.87688  0.82171  Biso   1.000  C
  H14      1.0000 0.17812  0.53092  0.97972  Biso   1.000  H
  H15      1.0000 0.26883  0.63163  0.92906  Biso   1.000  H
  C17      1.0000 0.03021  0.61228  0.89315  Biso   1.000  C
  C18      1.0000 0.60629  0.82664  0.10503  Biso   1.000  C
  C19      1.0000 0.86306  0.87386  0.99153  Biso   1.000  C
  H16      1.0000 0.06427  0.78672  0.01607  Biso   1.000  H
  C20      1.0000 0.32871  0.93847  0.81491  Biso   1.000  C
  H17      1.0000 0.45304  0.82123  0.87281  Biso   1.000  H
  H18      1.0000 0.57501  0.91477  0.84075  Biso   1.000  H
  O7       1.0000 0.06168  0.69366  0.82055  Biso   1.000  O
  H19      1.0000 0.95365  0.62986  0.95121  Biso   1.000  H
  H20      1.0000 0.97249  0.56080  0.86905  Biso   1.000  H
  C21      1.0000 0.69055  0.88887  0.02541  Biso   1.000  C
  C22      1.0000 0.42006  0.84443  0.14397  Biso   1.000  C
  H21      1.0000 0.92393  0.91488  0.93724  Biso   1.000  H
  H22      1.0000 0.27042  0.94904  0.88034  Biso   1.000  H
  H23      1.0000 0.24615  0.90643  0.78421  Biso   1.000  H
  O8       1.0000 0.38602  0.02789  0.75801  Biso   1.000  O
  C23      1.0000 0.91945  0.71504  0.77234  Biso   1.000  C
  H24      1.0000 0.63109  0.93996  0.99515  Biso   1.000  H
  O9       1.0000 0.33646  0.90387  0.10286  Biso   1.000  O
  O10      1.0000 0.36125  0.78740  0.22656  Biso   1.000  O
  C24      1.0000 0.26025  0.07933  0.71212  Biso   1.000  C
  H25      1.0000 0.89125  0.65895  0.74259  Biso   1.000  H
  H26      1.0000 0.81724  0.72956  0.81932  Biso   1.000  H
  C25      1.0000 0.96641  0.80037  0.69547  Biso   1.000  C
  C26      1.0000 0.18337  0.80120  0.27361  Biso   1.000  C
  C27      1.0000 0.26536  0.05846  0.61013  Biso   1.000  C
  H27      1.0000 0.14458  0.06223  0.75070  Biso   1.000  H
  H28      1.0000 0.27929  0.14915  0.71053  Biso   1.000  H
  O11      1.0000 0.10728  0.77312  0.62519  Biso   1.000  O
  H29      1.0000 0.00122  0.85557  0.72442  Biso   1.000  H
  H30      1.0000 0.86643  0.81944  0.66413  Biso   1.000  H
  H31      1.0000 0.12263  0.84246  0.22823  Biso   1.000  H
  H32      1.0000 0.12217  0.73830  0.29120  Biso   1.000  H
  C28      1.0000 0.18184  0.84738  0.36308  Biso   1.000  C
  O12      1.0000 0.20427  0.96185  0.61549  Biso   1.000  O
  H33      1.0000 0.38460  0.06587  0.57321  Biso   1.000  H
  H34      1.0000 0.19144  0.10402  0.57669  Biso   1.000  H
  C29      1.0000 0.14116  0.83285  0.53803  Biso   1.000  C
  C30      1.0000 0.22726  0.94340  0.35686  Biso   1.000  C
  C31      1.0000 0.13767  0.79290  0.45436  Biso   1.000  C
  C32      1.0000 0.19418  0.92896  0.53065  Biso   1.000  C
  H35      1.0000 0.25344  0.98176  0.29518  Biso   1.000  H
  C33      1.0000 0.23470  0.98405  0.43966  Biso   1.000  C
  H36      1.0000 0.10468  0.72738  0.45928  Biso   1.000  H
  H37      1.0000 0.26758  0.04977  0.43431  Biso   1.000  H
  C34      1.0000 0.30527  0.54485  0.42888  Biso   1.000  C
  C35      1.0000 0.33358  0.46064  0.38813  Biso   1.000  C
  C36      1.0000 0.22939  0.54085  0.52609  Biso   1.000  C
  H38      1.0000 0.33758  0.60518  0.39059  Biso   1.000  H
  C37      1.0000 0.28959  0.37158  0.44654  Biso   1.000  C
  O13      1.0000 0.40149  0.45493  0.29374  Biso   1.000  O
  C38      1.0000 0.18097  0.45374  0.58320  Biso   1.000  C
  H39      1.0000 0.21065  0.59875  0.55352  Biso   1.000  H
  O14      1.0000 0.31569  0.28685  0.40796  Biso   1.000  O
  C39      1.0000 0.21406  0.36887  0.54259  Biso   1.000  C
  C40      1.0000 0.45918  0.54180  0.23069  Biso   1.000  C
  C41      1.0000 0.08899  0.45146  0.68584  Biso   1.000  C
  C42      1.0000 0.49476  0.26344  0.37857  Biso   1.000  C
  H40      1.0000 0.18418  0.30865  0.58161  Biso   1.000  H
  H41      1.0000 0.53553  0.57948  0.26029  Biso   1.000  H
  H42      1.0000 0.35982  0.58187  0.21752  Biso   1.000  H
  C43      1.0000 0.55564  0.51119  0.13876  Biso   1.000  C
  O15      1.0000 0.15443  0.37015  0.74324  Biso   1.000  O
  H43      1.0000 0.11128  0.51195  0.71009  Biso   1.000  H
  H44      1.0000 0.96334  0.44396  0.68961  Biso   1.000  H
  C44      1.0000 0.53304  0.24375  0.27586  Biso   1.000  C
  H45      1.0000 0.52318  0.20613  0.42171  Biso   1.000  H
  H46      1.0000 0.56859  0.31761  0.38559  Biso   1.000  H
  O16      1.0000 0.71189  0.46877  0.15802  Biso   1.000  O
  H47      1.0000 0.48540  0.46417  0.11589  Biso   1.000  H
  H48      1.0000 0.58022  0.56748  0.08773  Biso   1.000  H
  C45      1.0000 0.06329  0.34070  0.83061  Biso   1.000  C
  O17      1.0000 0.44739  0.15699  0.26681  Biso   1.000  O
  H49      1.0000 0.49393  0.29810  0.23301  Biso   1.000  H
  H50      1.0000 0.65887  0.23759  0.25537  Biso   1.000  H
  C46      1.0000 0.80104  0.42298  0.08093  Biso   1.000  C
  C47      1.0000 0.14989  0.25927  0.88331  Biso   1.000  C
  O18      1.0000 0.92597  0.37227  0.86413  Biso   1.000  O
  C48      1.0000 0.51528  0.12305  0.17836  Biso   1.000  C
  H51      1.0000 0.82193  0.46903  0.02027  Biso   1.000  H
  H52      1.0000 0.73120  0.36830  0.07101  Biso   1.000  H
  C49      1.0000 0.96995  0.38759  0.10691  Biso   1.000  C
  N2       1.0000 0.31704  0.24639  0.84943  Biso   1.000  N
  C50      1.0000 0.05422  0.20139  0.96235  Biso   1.000  C
  C51      1.0000 0.67132  0.06146  0.18516  Biso   1.000  C
  H53      1.0000 0.54702  0.17872  0.12718  Biso   1.000  H
  H54      1.0000 0.42515  0.08517  0.15932  Biso   1.000  H
  O19      1.0000 0.93850  0.30628  0.17944  Biso   1.000  O
  H55      1.0000 0.04640  0.37008  0.04879  Biso   1.000  H
  H56      1.0000 0.02767  0.43906  0.13102  Biso   1.000  H
  C52      1.0000 0.39376  0.17323  0.89496  Biso   1.000  C
  H57      1.0000 0.93579  0.21322  0.98392  Biso   1.000  H
  C53      1.0000 0.13710  0.12600  0.00853  Biso   1.000  C
  H58      1.0000 0.72973  0.05089  0.11972  Biso   1.000  H
  H59      1.0000 0.75390  0.09351  0.21578  Biso   1.000  H
  O20      1.0000 0.61401  0.97204  0.24205  Biso   1.000  O
  C54      1.0000 0.08061  0.28491  0.22765  Biso   1.000  C
  C55      1.0000 0.58012  0.15552  0.85602  Biso   1.000  C
  C56      1.0000 0.30948  0.11106  0.97466  Biso   1.000  C
  H60      1.0000 0.07610  0.08505  0.06282  Biso   1.000  H
  C57      1.0000 0.73978  0.92060  0.28795  Biso   1.000  C
  C58      1.0000 0.03364  0.19958  0.30452  Biso   1.000  C
  H61      1.0000 0.10880  0.34099  0.25740  Biso   1.000  H
  H62      1.0000 0.18294  0.27039  0.18067  Biso   1.000  H
  O21      1.0000 0.63879  0.21254  0.77350  Biso   1.000  O
  O22      1.0000 0.66372  0.09607  0.89713  Biso   1.000  O
  H63      1.0000 0.36907  0.05990  0.00491  Biso   1.000  H
  C59      1.0000 0.73480  0.94140  0.38994  Biso   1.000  C
  H64      1.0000 0.85560  0.93772  0.24929  Biso   1.000  H
  H65      1.0000 0.72074  0.85078  0.28954  Biso   1.000  H
  O23      1.0000 0.89290  0.22676  0.37481  Biso   1.000  O
  H66      1.0000 0.99881  0.14436  0.27564  Biso   1.000  H
  H67      1.0000 0.13372  0.18049  0.33594  Biso   1.000  H
  C60      1.0000 0.81668  0.19875  0.72638  Biso   1.000  C
  O24      1.0000 0.79589  0.03808  0.38458  Biso   1.000  O
  H68      1.0000 0.61546  0.93408  0.42678  Biso   1.000  H
  H69      1.0000 0.80861  0.89592  0.42330  Biso   1.000  H
  C61      1.0000 0.85889  0.16709  0.46196  Biso   1.000  C
  C62      1.0000 0.81834  0.15249  0.63691  Biso   1.000  C
  H70      1.0000 0.87740  0.15741  0.77184  Biso   1.000  H
  H71      1.0000 0.87801  0.26164  0.70879  Biso   1.000  H
  C63      1.0000 0.80588  0.07098  0.46934  Biso   1.000  C
  C64      1.0000 0.86238  0.20704  0.54563  Biso   1.000  C
  C65      1.0000 0.77292  0.05654  0.64314  Biso   1.000  C
  C66      1.0000 0.76533  0.01589  0.56040  Biso   1.000  C
  H72      1.0000 0.89551  0.27257  0.54071  Biso   1.000  H
  H73      1.0000 0.74662  0.01811  0.70481  Biso   1.000  H
  H74      1.0000 0.73260  0.95017  0.56569  Biso   1.000  H
