data_image0
_cell_length_a       10.545
_cell_length_b       13.057
_cell_length_c       19.973
_cell_angle_alpha    80.93
_cell_angle_beta     75.01
_cell_angle_gamma    71.65

_symmetry_space_group_name_H-M    "P 1"
_symmetry_int_tables_number       1

loop_
  _symmetry_equiv_pos_as_xyz
  'x, y, z'

loop_
  _atom_site_label
  _atom_site_occupancy
  _atom_site_fract_x
  _atom_site_fract_y
  _atom_site_fract_z
  _atom_site_thermal_displace_type
  _atom_site_B_iso_or_equiv
  _atom_site_type_symbol
  C1       1.0000 0.69712  0.31271  0.66751  Biso   1.000  C
  C2       1.0000 0.73021  0.21642  0.70891  Biso   1.000  C
  H1       1.0000 0.71658  0.31198  0.61831  Biso   1.000  H
  C3       1.0000 0.63506  0.41049  0.69820  Biso   1.000  C
  O1       1.0000 0.78423  0.11533  0.68509  Biso   1.000  O
  C4       1.0000 0.70587  0.21837  0.78048  Biso   1.000  C
  H2       1.0000 0.61181  0.47614  0.66980  Biso   1.000  H
  C5       1.0000 0.60736  0.41274  0.76940  Biso   1.000  C
  C6       1.0000 0.80621  0.10568  0.61249  Biso   1.000  C
  O2       1.0000 0.74123  0.11921  0.81663  Biso   1.000  O
  C7       1.0000 0.64570  0.31670  0.81133  Biso   1.000  C
  C8       1.0000 0.53974  0.51791  0.80342  Biso   1.000  C
  C9       1.0000 0.80612  0.99320  0.60500  Biso   1.000  C
  H3       1.0000 0.89518  0.11779  0.58752  Biso   1.000  H
  H4       1.0000 0.73246  0.15992  0.59309  Biso   1.000  H
  C10      1.0000 0.73307  0.11412  0.88960  Biso   1.000  C
  H5       1.0000 0.63107  0.31821  0.86011  Biso   1.000  H
  O3       1.0000 0.40540  0.56590  0.78490  Biso   1.000  O
  H6       1.0000 0.52762  0.50428  0.85449  Biso   1.000  H
  H7       1.0000 0.59729  0.56777  0.78662  Biso   1.000  H
  O4       1.0000 0.66775  0.98929  0.62653  Biso   1.000  O
  H8       1.0000 0.84388  0.97590  0.55600  Biso   1.000  H
  H9       1.0000 0.86320  0.93987  0.63428  Biso   1.000  H
  C11      1.0000 0.74491  0.99867  0.91878  Biso   1.000  C
  H10      1.0000 0.64457  0.16263  0.91259  Biso   1.000  H
  H11      1.0000 0.80816  0.13728  0.89772  Biso   1.000  H
  C12      1.0000 0.36698  0.67347  0.77232  Biso   1.000  C
  C13      1.0000 0.65402  0.88366  0.62903  Biso   1.000  C
  O5       1.0000 0.62443  0.96808  0.92133  Biso   1.000  O
  H12      1.0000 0.82496  0.94989  0.88981  Biso   1.000  H
  H13      1.0000 0.76095  0.98960  0.96642  Biso   1.000  H
  C14      1.0000 0.22378  0.71833  0.76238  Biso   1.000  C
  O6       1.0000 0.43778  0.73087  0.77086  Biso   1.000  O
  C15      1.0000 0.50430  0.89459  0.63558  Biso   1.000  C
  H14      1.0000 0.68620  0.83811  0.66928  Biso   1.000  H
  H15      1.0000 0.70977  0.84896  0.58601  Biso   1.000  H
  C16      1.0000 0.63151  0.91970  0.86058  Biso   1.000  C
  N1       1.0000 0.14689  0.65037  0.77190  Biso   1.000  N
  C17      1.0000 0.17591  0.82979  0.74662  Biso   1.000  C
  O7       1.0000 0.47121  0.94577  0.57124  Biso   1.000  O
  H16      1.0000 0.48830  0.82240  0.64478  Biso   1.000  H
  H17      1.0000 0.44679  0.93887  0.67438  Biso   1.000  H
  C18      1.0000 0.50473  0.88473  0.87077  Biso   1.000  C
  H18      1.0000 0.71378  0.85640  0.85278  Biso   1.000  H
  H19      1.0000 0.63807  0.97264  0.81939  Biso   1.000  H
  C19      1.0000 0.01624  0.69608  0.76722  Biso   1.000  C
  C20      1.0000 0.04167  0.87352  0.74038  Biso   1.000  C
  H20      1.0000 0.23445  0.87467  0.74028  Biso   1.000  H
  C21      1.0000 0.33648  0.95291  0.56531  Biso   1.000  C
  O8       1.0000 0.39222  0.97701  0.86479  Biso   1.000  O
  H21      1.0000 0.51773  0.83501  0.83541  Biso   1.000  H
  H22      1.0000 0.48659  0.84570  0.91738  Biso   1.000  H
  C22      1.0000 0.92301  0.62422  0.78319  Biso   1.000  C
  C23      1.0000 0.95965  0.80527  0.75151  Biso   1.000  C
  H23      1.0000 0.00631  0.94879  0.72868  Biso   1.000  H
  C24      1.0000 0.23379  0.05878  0.58518  Biso   1.000  C
  H24      1.0000 0.30623  0.89333  0.59548  Biso   1.000  H
  H25      1.0000 0.33952  0.94298  0.51668  Biso   1.000  H
  C25      1.0000 0.26617  0.94946  0.88190  Biso   1.000  C
  O9       1.0000 0.99064  0.51948  0.77513  Biso   1.000  O
  O10      1.0000 0.79987  0.65953  0.80087  Biso   1.000  O
  H26      1.0000 0.86643  0.83303  0.74839  Biso   1.000  H
  O11      1.0000 0.21173  0.06318  0.65846  Biso   1.000  O
  H27      1.0000 0.26851  0.11960  0.55980  Biso   1.000  H
  H28      1.0000 0.14654  0.06500  0.57270  Biso   1.000  H
  C26      1.0000 0.15653  0.04727  0.86432  Biso   1.000  C
  H29      1.0000 0.24342  0.92626  0.93210  Biso   1.000  H
  H30      1.0000 0.27430  0.88917  0.85522  Biso   1.000  H
  C27      1.0000 0.90100  0.44860  0.78782  Biso   1.000  C
  C28      1.0000 0.13188  0.15883  0.68629  Biso   1.000  C
  O12      1.0000 0.18138  0.06217  0.78974  Biso   1.000  O
  H31      1.0000 0.06495  0.03634  0.88399  Biso   1.000  H
  H32      1.0000 0.16026  0.11163  0.88331  Biso   1.000  H
  C29      1.0000 0.98126  0.34659  0.75240  Biso   1.000  C
  H33      1.0000 0.81854  0.48543  0.76888  Biso   1.000  H
  H34      1.0000 0.87109  0.43108  0.83842  Biso   1.000  H
  C30      1.0000 0.11338  0.15851  0.75859  Biso   1.000  C
  C31      1.0000 0.07269  0.25210  0.64832  Biso   1.000  C
  C32      1.0000 0.03857  0.25137  0.79172  Biso   1.000  C
  C33      1.0000 0.99840  0.34574  0.68229  Biso   1.000  C
  H35      1.0000 0.08259  0.25243  0.59959  Biso   1.000  H
  H36      1.0000 0.02578  0.25118  0.84061  Biso   1.000  H
  H37      1.0000 0.95887  0.40988  0.65618  Biso   1.000  H
  C34      1.0000 0.30290  0.68730  0.33251  Biso   1.000  C
  C35      1.0000 0.36486  0.58952  0.30182  Biso   1.000  C
  C36      1.0000 0.26980  0.78359  0.29111  Biso   1.000  C
  H38      1.0000 0.28334  0.68803  0.38171  Biso   1.000  H
  C37      1.0000 0.39256  0.58728  0.23062  Biso   1.000  C
  H39      1.0000 0.38821  0.52387  0.33022  Biso   1.000  H
  C38      1.0000 0.29421  0.78157  0.21949  Biso   1.000  C
  O13      1.0000 0.21581  0.88469  0.31488  Biso   1.000  O
  C39      1.0000 0.46018  0.48210  0.19660  Biso   1.000  C
  C40      1.0000 0.35432  0.68332  0.18870  Biso   1.000  C
  O14      1.0000 0.25881  0.88081  0.18334  Biso   1.000  O
  C41      1.0000 0.19383  0.89434  0.38748  Biso   1.000  C
  O15      1.0000 0.59464  0.43412  0.21507  Biso   1.000  O
  H40      1.0000 0.47242  0.49574  0.14548  Biso   1.000  H
  H41      1.0000 0.40273  0.43224  0.21340  Biso   1.000  H
  H42      1.0000 0.36886  0.68180  0.13991  Biso   1.000  H
  C42      1.0000 0.26686  0.88589  0.11042  Biso   1.000  C
  H43      1.0000 0.10474  0.88222  0.41250  Biso   1.000  H
  H44      1.0000 0.26749  0.84010  0.40688  Biso   1.000  H
  C43      1.0000 0.19392  0.00682  0.39497  Biso   1.000  C
  C44      1.0000 0.63294  0.32654  0.22771  Biso   1.000  C
  H45      1.0000 0.35537  0.83739  0.08738  Biso   1.000  H
  H46      1.0000 0.19176  0.86273  0.10231  Biso   1.000  H
  C45      1.0000 0.25507  0.00127  0.08119  Biso   1.000  C
  O16      1.0000 0.33229  0.01073  0.37344  Biso   1.000  O
  H47      1.0000 0.15604  0.02411  0.44402  Biso   1.000  H
  H48      1.0000 0.13677  0.06007  0.36569  Biso   1.000  H
  O17      1.0000 0.56218  0.26906  0.22916  Biso   1.000  O
  C46      1.0000 0.77617  0.28169  0.23759  Biso   1.000  C
  O18      1.0000 0.37559  0.03193  0.07869  Biso   1.000  O
  H49      1.0000 0.17496  0.05012  0.11021  Biso   1.000  H
  H50      1.0000 0.23898  0.01041  0.03360  Biso   1.000  H
  C47      1.0000 0.34603  0.11627  0.37100  Biso   1.000  C
  N2       1.0000 0.85307  0.34956  0.22812  Biso   1.000  N
  C48      1.0000 0.82411  0.17023  0.25340  Biso   1.000  C
  C49      1.0000 0.36853  0.08032  0.13939  Biso   1.000  C
  H51      1.0000 0.31384  0.16191  0.33069  Biso   1.000  H
  H52      1.0000 0.29019  0.15097  0.41401  Biso   1.000  H
  C50      1.0000 0.49574  0.10543  0.36439  Biso   1.000  C
  C51      1.0000 0.98381  0.30394  0.23275  Biso   1.000  C
  C52      1.0000 0.95827  0.12650  0.25959  Biso   1.000  C
  H53      1.0000 0.76562  0.12527  0.25969  Biso   1.000  H
  C53      1.0000 0.49531  0.11529  0.12920  Biso   1.000  C
  H54      1.0000 0.28617  0.14362  0.14719  Biso   1.000  H
  H55      1.0000 0.36187  0.02738  0.18058  Biso   1.000  H
  O19      1.0000 0.52886  0.05417  0.42873  Biso   1.000  O
  H56      1.0000 0.51174  0.17762  0.35519  Biso   1.000  H
  H57      1.0000 0.55319  0.06106  0.32559  Biso   1.000  H
  C54      1.0000 0.07703  0.37580  0.21678  Biso   1.000  C
  C55      1.0000 0.04040  0.19466  0.24851  Biso   1.000  C
  H58      1.0000 0.99373  0.05123  0.27129  Biso   1.000  H
  O20      1.0000 0.60780  0.02300  0.13523  Biso   1.000  O
  H59      1.0000 0.48229  0.16501  0.16462  Biso   1.000  H
  H60      1.0000 0.51336  0.15432  0.08259  Biso   1.000  H
  C56      1.0000 0.66354  0.04710  0.43471  Biso   1.000  C
  O21      1.0000 0.00938  0.48054  0.22490  Biso   1.000  O
  O22      1.0000 0.20008  0.34049  0.19910  Biso   1.000  O
  H61      1.0000 0.13361  0.16699  0.25158  Biso   1.000  H
  C57      1.0000 0.73378  0.05047  0.11812  Biso   1.000  C
  C58      1.0000 0.76616  0.94123  0.41479  Biso   1.000  C
  H62      1.0000 0.69381  0.10669  0.40449  Biso   1.000  H
  H63      1.0000 0.66053  0.05704  0.48329  Biso   1.000  H
  C59      1.0000 0.09901  0.55141  0.21221  Biso   1.000  C
  C60      1.0000 0.84349  0.95274  0.13570  Biso   1.000  C
  H64      1.0000 0.75665  0.07368  0.06787  Biso   1.000  H
  H65      1.0000 0.72575  0.11076  0.14480  Biso   1.000  H
  O23      1.0000 0.78829  0.93683  0.34156  Biso   1.000  O
  H66      1.0000 0.73151  0.88041  0.44022  Biso   1.000  H
  H67      1.0000 0.85348  0.93501  0.42733  Biso   1.000  H
  C61      1.0000 0.01869  0.65343  0.24757  Biso   1.000  C
  H68      1.0000 0.18150  0.51459  0.23109  Biso   1.000  H
  H69      1.0000 0.12892  0.56893  0.16160  Biso   1.000  H
  O24      1.0000 0.81858  0.93776  0.21028  Biso   1.000  O
  H70      1.0000 0.93499  0.96368  0.11599  Biso   1.000  H
  H71      1.0000 0.83966  0.88839  0.11671  Biso   1.000  H
  C62      1.0000 0.86816  0.84119  0.31368  Biso   1.000  C
  C63      1.0000 0.96136  0.74864  0.20831  Biso   1.000  C
  C64      1.0000 0.00164  0.65428  0.31769  Biso   1.000  C
  C65      1.0000 0.88657  0.84151  0.24138  Biso   1.000  C
  C66      1.0000 0.92733  0.74792  0.35170  Biso   1.000  C
  H72      1.0000 0.97414  0.74883  0.15941  Biso   1.000  H
  H73      1.0000 0.04107  0.59014  0.34380  Biso   1.000  H
  H74      1.0000 0.91746  0.74759  0.40038  Biso   1.000  H
  Ne1      1.0000 0.63098  0.73198  0.25122  Biso   1.000  Ne
  He1      1.0000 0.64930  0.68723  0.28341  Biso   1.000  He
  He2      1.0000 0.00000  0.00000  0.00000  Biso   1.000  He
  He3      1.0000 0.63354  0.76817  0.19800  Biso   1.000  He
  Ar1      1.0000 0.63441  0.70907  0.24949  Biso   1.000  Ar
  Ne2      1.0000 0.36902  0.26802  0.74877  Biso   1.000  Ne
  He4      1.0000 0.36116  0.23389  0.81298  Biso   1.000  He
  He5      1.0000 0.40682  0.84639  0.76621  Biso   1.000  He
  He6      1.0000 0.34687  0.31823  0.70961  Biso   1.000  He
  Ar2      1.0000 0.36799  0.28759  0.74740  Biso   1.000  Ar
