data_image0
_cell_length_a       8.402
_cell_length_b       8.402
_cell_length_c       26.022
_cell_angle_alpha    90
_cell_angle_beta     90
_cell_angle_gamma    120

_symmetry_space_group_name_H-M    "P 1"
_symmetry_int_tables_number       1

loop_
  _symmetry_equiv_pos_as_xyz
  'x, y, z'

loop_
  _atom_site_label
  _atom_site_occupancy
  _atom_site_fract_x
  _atom_site_fract_y
  _atom_site_fract_z
  _atom_site_thermal_displace_type
  _atom_site_B_iso_or_equiv
  _atom_site_type_symbol
  C1       1.0000 0.82879  0.16794  0.60929  Biso   1.000  C
  H1       1.0000 0.75313  0.20656  0.59100  Biso   1.000  H
  C2       1.0000 0.85128  0.03106  0.57674  Biso   1.000  C
  H2       1.0000 0.94837  0.27569  0.61502  Biso   1.000  H
  N1       1.0000 0.74407  0.08919  0.65883  Biso   1.000  N
  C3       1.0000 0.85116  0.03106  0.57674  Biso   1.000  C
  N2       1.0000 0.00000  0.00000  0.59488  Biso   1.000  N
  H3       1.0000 0.87679  0.07518  0.54162  Biso   1.000  H
  H4       1.0000 0.73657  0.91493  0.57678  Biso   1.000  H
  H5       1.0000 0.73645  0.91493  0.57678  Biso   1.000  H
  H6       1.0000 0.63218  0.00014  0.65829  Biso   1.000  H
  C4       1.0000 0.82175  0.14100  0.70371  Biso   1.000  C
  H7       1.0000 0.63206  0.00014  0.65829  Biso   1.000  H
  C5       1.0000 0.82163  0.14100  0.70371  Biso   1.000  C
  C6       1.0000 0.96903  0.82024  0.57674  Biso   1.000  C
  C7       1.0000 0.17975  0.14884  0.57674  Biso   1.000  C
  C8       1.0000 0.73450  0.06624  0.75002  Biso   1.000  C
  C9       1.0000 0.73457  0.06638  0.75002  Biso   1.000  C
  H8       1.0000 0.94382  0.23446  0.70479  Biso   1.000  H
  C10      1.0000 0.83214  0.66096  0.60929  Biso   1.000  C
  H9       1.0000 0.92488  0.80169  0.54162  Biso   1.000  H
  H10      1.0000 0.92470  0.80155  0.54162  Biso   1.000  H
  H11      1.0000 0.08505  0.82161  0.57678  Biso   1.000  H
  H12      1.0000 0.08517  0.82161  0.57678  Biso   1.000  H
  H13      1.0000 0.17838  0.26346  0.57678  Biso   1.000  H
  H14      1.0000 0.19832  0.12314  0.54162  Biso   1.000  H
  C11      1.0000 0.33913  0.17124  0.60929  Biso   1.000  C
  H15      1.0000 0.19839  0.12328  0.54162  Biso   1.000  H
  H16      1.0000 0.61632  0.96509  0.75002  Biso   1.000  H
  C12      1.0000 0.82175  0.14100  0.79629  Biso   1.000  C
  C13      1.0000 0.82163  0.14100  0.79629  Biso   1.000  C
  H17      1.0000 0.72432  0.67264  0.61502  Biso   1.000  H
  H18      1.0000 0.79354  0.54661  0.59100  Biso   1.000  H
  N3       1.0000 0.91082  0.65477  0.65883  Biso   1.000  N
  N4       1.0000 0.34523  0.25604  0.65883  Biso   1.000  N
  H19      1.0000 0.45340  0.24696  0.59100  Biso   1.000  H
  H20      1.0000 0.32731  0.05167  0.61502  Biso   1.000  H
  N5       1.0000 0.74407  0.08919  0.84117  Biso   1.000  N
  H21      1.0000 0.94382  0.23446  0.79521  Biso   1.000  H
  H22      1.0000 0.99993  0.63210  0.65829  Biso   1.000  H
  C14      1.0000 0.85894  0.68075  0.70371  Biso   1.000  C
  H23      1.0000 0.36796  0.36790  0.65829  Biso   1.000  H
  C15      1.0000 0.31938  0.17839  0.70371  Biso   1.000  C
  C16      1.0000 0.31919  0.17825  0.70371  Biso   1.000  C
  C17      1.0000 0.82879  0.16794  0.89071  Biso   1.000  C
  H24      1.0000 0.63218  0.00014  0.84171  Biso   1.000  H
  H25      1.0000 0.63206  0.00014  0.84171  Biso   1.000  H
  C18      1.0000 0.93374  0.66824  0.75002  Biso   1.000  C
  H26      1.0000 0.76547  0.70947  0.70479  Biso   1.000  H
  H27      1.0000 0.29059  0.05607  0.70479  Biso   1.000  H
  C19      1.0000 0.33176  0.26552  0.75002  Biso   1.000  C
  H28      1.0000 0.75313  0.20656  0.90900  Biso   1.000  H
  C20      1.0000 0.85128  0.03106  0.92326  Biso   1.000  C
  H29      1.0000 0.94837  0.27569  0.88498  Biso   1.000  H
  C21      1.0000 0.85116  0.03106  0.92326  Biso   1.000  C
  C22      1.0000 0.85894  0.68075  0.79629  Biso   1.000  C
  H30      1.0000 0.03490  0.65134  0.75002  Biso   1.000  H
  H31      1.0000 0.34865  0.38357  0.75002  Biso   1.000  H
  C23      1.0000 0.31938  0.17839  0.79629  Biso   1.000  C
  C24      1.0000 0.31919  0.17825  0.79629  Biso   1.000  C
  N6       1.0000 0.00000  0.00000  0.90512  Biso   1.000  N
  H32      1.0000 0.87679  0.07518  0.95838  Biso   1.000  H
  H33      1.0000 0.73657  0.91493  0.92322  Biso   1.000  H
  H34      1.0000 0.73645  0.91493  0.92322  Biso   1.000  H
  N7       1.0000 0.91082  0.65477  0.84117  Biso   1.000  N
  H35      1.0000 0.76547  0.70947  0.79521  Biso   1.000  H
  N8       1.0000 0.34523  0.25604  0.84117  Biso   1.000  N
  H36      1.0000 0.29059  0.05607  0.79521  Biso   1.000  H
  C25      1.0000 0.96903  0.82024  0.92326  Biso   1.000  C
  C26      1.0000 0.17975  0.14884  0.92326  Biso   1.000  C
  C27      1.0000 0.83214  0.66096  0.89071  Biso   1.000  C
  H37      1.0000 0.99993  0.63210  0.84171  Biso   1.000  H
  C28      1.0000 0.33913  0.17124  0.89071  Biso   1.000  C
  H38      1.0000 0.36796  0.36790  0.84171  Biso   1.000  H
  H39      1.0000 0.92488  0.80169  0.95838  Biso   1.000  H
  H40      1.0000 0.92470  0.80155  0.95838  Biso   1.000  H
  H41      1.0000 0.08505  0.82161  0.92322  Biso   1.000  H
  H42      1.0000 0.08517  0.82161  0.92322  Biso   1.000  H
  H43      1.0000 0.17838  0.26346  0.92322  Biso   1.000  H
  H44      1.0000 0.19832  0.12314  0.95838  Biso   1.000  H
  H45      1.0000 0.19839  0.12328  0.95838  Biso   1.000  H
  H46      1.0000 0.72432  0.67264  0.88498  Biso   1.000  H
  H47      1.0000 0.79354  0.54661  0.90900  Biso   1.000  H
  H48      1.0000 0.45340  0.24696  0.90900  Biso   1.000  H
  H49      1.0000 0.32731  0.05167  0.88498  Biso   1.000  H
  N9       1.0000 0.25590  0.91076  0.34117  Biso   1.000  N
  C29      1.0000 0.14869  0.96889  0.42326  Biso   1.000  C
  H50      1.0000 0.24685  0.79339  0.40900  Biso   1.000  H
  C30      1.0000 0.14888  0.96903  0.42326  Biso   1.000  C
  H51      1.0000 0.24692  0.79353  0.40900  Biso   1.000  H
  H52      1.0000 0.05161  0.72426  0.38498  Biso   1.000  H
  C31      1.0000 0.14876  0.96903  0.42326  Biso   1.000  C
  C32      1.0000 0.17822  0.85895  0.29629  Biso   1.000  C
  H53      1.0000 0.36780  0.99982  0.34171  Biso   1.000  H
  C33      1.0000 0.17125  0.83215  0.39071  Biso   1.000  C
  H54      1.0000 0.36792  0.99982  0.34171  Biso   1.000  H
  N10      1.0000 0.99998  0.99995  0.40512  Biso   1.000  N
  H55      1.0000 0.12318  0.92478  0.45838  Biso   1.000  H
  H56      1.0000 0.26341  0.08502  0.42322  Biso   1.000  H
  C34      1.0000 0.26547  0.93371  0.25002  Biso   1.000  C
  H57      1.0000 0.05616  0.76549  0.29521  Biso   1.000  H
  C35      1.0000 0.82022  0.85111  0.42326  Biso   1.000  C
  C36      1.0000 0.03094  0.17971  0.42326  Biso   1.000  C
  C37      1.0000 0.17822  0.85895  0.20371  Biso   1.000  C
  H58      1.0000 0.38353  0.03486  0.25002  Biso   1.000  H
  H59      1.0000 0.82159  0.73650  0.42322  Biso   1.000  H
  H60      1.0000 0.80165  0.87681  0.45838  Biso   1.000  H
  C38      1.0000 0.66085  0.82871  0.39071  Biso   1.000  C
  H61      1.0000 0.80153  0.87681  0.45838  Biso   1.000  H
  H62      1.0000 0.91493  0.17834  0.42322  Biso   1.000  H
  H63      1.0000 0.91481  0.17834  0.42322  Biso   1.000  H
  H64      1.0000 0.07516  0.19840  0.45838  Biso   1.000  H
  C39      1.0000 0.16790  0.33913  0.39071  Biso   1.000  C
  H65      1.0000 0.05616  0.76549  0.20479  Biso   1.000  H
  N11      1.0000 0.25590  0.91076  0.15883  Biso   1.000  N
  H66      1.0000 0.67254  0.94828  0.38498  Biso   1.000  H
  H67      1.0000 0.54664  0.75313  0.40900  Biso   1.000  H
  N12      1.0000 0.65475  0.74392  0.34117  Biso   1.000  N
  H68      1.0000 0.67266  0.94828  0.38498  Biso   1.000  H
  H69      1.0000 0.27565  0.32731  0.38498  Biso   1.000  H
  H70      1.0000 0.20644  0.45334  0.40900  Biso   1.000  H
  N13      1.0000 0.08916  0.34518  0.34117  Biso   1.000  N
  H71      1.0000 0.36780  0.99982  0.15829  Biso   1.000  H
  C40      1.0000 0.17125  0.83215  0.10929  Biso   1.000  C
  H72      1.0000 0.36792  0.99982  0.15829  Biso   1.000  H
  H73      1.0000 0.63202  0.63205  0.34171  Biso   1.000  H
  C41      1.0000 0.68067  0.82170  0.29629  Biso   1.000  C
  H74      1.0000 0.63190  0.63205  0.34171  Biso   1.000  H
  H75      1.0000 0.00011  0.36799  0.34171  Biso   1.000  H
  C42      1.0000 0.14092  0.31921  0.29629  Biso   1.000  C
  C43      1.0000 0.14869  0.96889  0.07674  Biso   1.000  C
  H76      1.0000 0.24685  0.79339  0.09100  Biso   1.000  H
  C44      1.0000 0.14888  0.96903  0.07674  Biso   1.000  C
  H77      1.0000 0.24692  0.79353  0.09100  Biso   1.000  H
  H78      1.0000 0.05161  0.72426  0.11502  Biso   1.000  H
  C45      1.0000 0.14876  0.96903  0.07674  Biso   1.000  C
  H79      1.0000 0.70938  0.94388  0.29521  Biso   1.000  H
  C46      1.0000 0.66810  0.73443  0.25002  Biso   1.000  C
  C47      1.0000 0.06624  0.33171  0.25002  Biso   1.000  C
  H80      1.0000 0.23446  0.29062  0.29521  Biso   1.000  H
  N14      1.0000 0.99998  0.99995  0.09488  Biso   1.000  N
  H81      1.0000 0.12318  0.92478  0.04162  Biso   1.000  H
  H82      1.0000 0.26341  0.08502  0.07678  Biso   1.000  H
  C48      1.0000 0.68067  0.82170  0.20371  Biso   1.000  C
  H83      1.0000 0.65132  0.61638  0.25002  Biso   1.000  H
  C49      1.0000 0.14092  0.31921  0.20371  Biso   1.000  C
  H84      1.0000 0.96507  0.34862  0.25002  Biso   1.000  H
  C50      1.0000 0.82022  0.85111  0.07674  Biso   1.000  C
  C51      1.0000 0.03094  0.17971  0.07674  Biso   1.000  C
  N15      1.0000 0.65475  0.74392  0.15883  Biso   1.000  N
  H85      1.0000 0.70938  0.94388  0.20479  Biso   1.000  H
  N16      1.0000 0.08916  0.34518  0.15883  Biso   1.000  N
  H86      1.0000 0.23446  0.29062  0.20479  Biso   1.000  H
  H87      1.0000 0.82159  0.73650  0.07678  Biso   1.000  H
  H88      1.0000 0.80165  0.87681  0.04162  Biso   1.000  H
  C52      1.0000 0.66085  0.82871  0.10929  Biso   1.000  C
  H89      1.0000 0.80153  0.87681  0.04162  Biso   1.000  H
  H90      1.0000 0.91493  0.17834  0.07678  Biso   1.000  H
  H91      1.0000 0.91481  0.17834  0.07678  Biso   1.000  H
  H92      1.0000 0.07516  0.19840  0.04162  Biso   1.000  H
  C53      1.0000 0.16790  0.33913  0.10929  Biso   1.000  C
  H93      1.0000 0.63202  0.63205  0.15829  Biso   1.000  H
  H94      1.0000 0.63190  0.63205  0.15829  Biso   1.000  H
  H95      1.0000 0.00011  0.36799  0.15829  Biso   1.000  H
  H96      1.0000 0.67254  0.94828  0.11502  Biso   1.000  H
  H97      1.0000 0.54664  0.75313  0.09100  Biso   1.000  H
  H98      1.0000 0.67266  0.94828  0.11502  Biso   1.000  H
  H99      1.0000 0.27565  0.32731  0.11502  Biso   1.000  H
  H100     1.0000 0.20644  0.45334  0.09100  Biso   1.000  H
  Ne1      1.0000 0.01380  0.99427  0.25000  Biso   1.000  Ne
  He1      1.0000 0.97620  0.94617  0.32461  Biso   1.000  He
  He2      1.0000 0.85198  0.05316  0.25000  Biso   1.000  He
  He3      1.0000 0.27880  0.19788  0.25000  Biso   1.000  He
  Ar1      1.0000 0.99991  0.99991  0.25000  Biso   1.000  Ar
  Ne2      1.0000 0.99151  0.01716  0.75000  Biso   1.000  Ne
  He4      1.0000 0.78569  0.84273  0.75000  Biso   1.000  He
  He5      1.0000 0.05348  0.20215  0.75000  Biso   1.000  He
  He6      1.0000 0.19511  0.92101  0.75000  Biso   1.000  He
  Ar2      1.0000 0.00001  0.00000  0.75000  Biso   1.000  Ar
