data_image0
_cell_length_a       7.909
_cell_length_b       17.038
_cell_length_c       23.271
_cell_angle_alpha    90
_cell_angle_beta     91.04
_cell_angle_gamma    90

_symmetry_space_group_name_H-M    "P 1"
_symmetry_int_tables_number       1

loop_
  _symmetry_equiv_pos_as_xyz
  'x, y, z'

loop_
  _atom_site_label
  _atom_site_occupancy
  _atom_site_fract_x
  _atom_site_fract_y
  _atom_site_fract_z
  _atom_site_thermal_displace_type
  _atom_site_B_iso_or_equiv
  _atom_site_type_symbol
  C1       1.0000 0.54617  0.62337  0.46804  Biso   1.000  C
  N1       1.0000 0.72417  0.63863  0.48162  Biso   1.000  N
  H1       1.0000 0.53425  0.60823  0.42708  Biso   1.000  H
  H2       1.0000 0.50659  0.57882  0.49159  Biso   1.000  H
  C2       1.0000 0.43665  0.69480  0.47935  Biso   1.000  C
  C3       1.0000 0.80888  0.67719  0.43426  Biso   1.000  C
  C4       1.0000 0.81328  0.56779  0.50010  Biso   1.000  C
  H3       1.0000 0.32938  0.69005  0.45708  Biso   1.000  H
  H4       1.0000 0.49562  0.74252  0.46611  Biso   1.000  H
  N2       1.0000 0.39943  0.70290  0.54007  Biso   1.000  N
  H5       1.0000 0.85746  0.63693  0.40869  Biso   1.000  H
  H6       1.0000 0.72510  0.70783  0.41148  Biso   1.000  H
  C5       1.0000 0.94860  0.73137  0.45566  Biso   1.000  C
  H7       1.0000 0.77395  0.52301  0.47629  Biso   1.000  H
  H8       1.0000 0.93585  0.57460  0.49387  Biso   1.000  H
  C6       1.0000 0.78499  0.54960  0.56234  Biso   1.000  C
  C7       1.0000 0.44389  0.76617  0.56758  Biso   1.000  C
  N3       1.0000 0.87982  0.79962  0.48420  Biso   1.000  N
  H9       1.0000 0.01702  0.74850  0.42278  Biso   1.000  H
  H10      1.0000 0.02363  0.70255  0.48278  Biso   1.000  H
  H11      1.0000 0.81968  0.49484  0.57020  Biso   1.000  H
  H12      1.0000 0.66277  0.55400  0.57029  Biso   1.000  H
  N4       1.0000 0.87819  0.60160  0.60046  Biso   1.000  N
  H13      1.0000 0.50986  0.80391  0.54798  Biso   1.000  H
  C8       1.0000 0.40017  0.78208  0.62483  Biso   1.000  C
  H14      1.0000 0.80915  0.83061  0.46538  Biso   1.000  H
  C9       1.0000 0.92160  0.81547  0.53728  Biso   1.000  C
  H15      1.0000 0.98893  0.60324  0.59771  Biso   1.000  H
  C10      1.0000 0.80643  0.64697  0.63936  Biso   1.000  C
  H16      1.0000 0.34047  0.74363  0.64589  Biso   1.000  H
  C11      1.0000 0.44164  0.85186  0.65083  Biso   1.000  C
  H17      1.0000 0.99723  0.78061  0.55658  Biso   1.000  H
  C12      1.0000 0.86279  0.88039  0.56775  Biso   1.000  C
  H18      1.0000 0.68652  0.65013  0.63841  Biso   1.000  H
  C13      1.0000 0.89019  0.68952  0.68066  Biso   1.000  C
  H19      1.0000 0.51386  0.88262  0.62771  Biso   1.000  H
  N5       1.0000 0.38813  0.86730  0.70718  Biso   1.000  N
  N6       1.0000 0.41026  0.88455  0.69540  Biso   1.000  N
  H20      1.0000 0.78181  0.91425  0.55000  Biso   1.000  H
  C14      1.0000 0.91908  0.89658  0.62268  Biso   1.000  C
  C15      1.0000 0.80260  0.72908  0.72394  Biso   1.000  C
  H21      1.0000 0.01015  0.69239  0.68010  Biso   1.000  H
  H22      1.0000 0.33251  0.83144  0.72639  Biso   1.000  H
  C16      1.0000 0.42530  0.94272  0.73327  Biso   1.000  C
  C17      1.0000 0.44499  0.96332  0.71599  Biso   1.000  C
  H23      1.0000 0.35619  0.85491  0.72007  Biso   1.000  H
  H24      1.0000 0.98327  0.86090  0.64567  Biso   1.000  H
  N7       1.0000 0.86908  0.95545  0.66179  Biso   1.000  N
  N8       1.0000 0.87658  0.96302  0.63901  Biso   1.000  N
  H25      1.0000 0.68345  0.72274  0.72540  Biso   1.000  H
  N9       1.0000 0.86728  0.75332  0.76778  Biso   1.000  N
  N10      1.0000 0.88582  0.77955  0.76687  Biso   1.000  N
  H26      1.0000 0.48666  0.97570  0.70559  Biso   1.000  H
  H27      1.0000 0.31793  0.96954  0.74229  Biso   1.000  H
  C18      1.0000 0.53152  0.93432  0.78789  Biso   1.000  C
  H28      1.0000 0.33681  0.98985  0.72411  Biso   1.000  H
  C19      1.0000 0.55623  0.96414  0.76997  Biso   1.000  C
  H29      1.0000 0.50177  0.99331  0.68539  Biso   1.000  H
  C20      1.0000 0.94016  0.97065  0.71904  Biso   1.000  C
  H30      1.0000 0.80489  0.99331  0.61997  Biso   1.000  H
  C21      1.0000 0.95733  0.98492  0.69248  Biso   1.000  C
  C22      1.0000 0.76045  0.78313  0.81299  Biso   1.000  C
  C23      1.0000 0.78545  0.82005  0.80998  Biso   1.000  C
  N11      1.0000 0.70738  0.91660  0.77577  Biso   1.000  N
  H31      1.0000 0.48424  0.89183  0.81170  Biso   1.000  H
  H32      1.0000 0.52588  0.98374  0.81020  Biso   1.000  H
  N12      1.0000 0.73248  0.94383  0.75811  Biso   1.000  N
  H33      1.0000 0.51082  0.92622  0.79808  Biso   1.000  H
  H34      1.0000 0.55237  0.01702  0.78759  Biso   1.000  H
  C24      1.0000 0.80223  0.98721  0.76189  Biso   1.000  C
  C25      1.0000 0.82675  0.01039  0.73567  Biso   1.000  C
  H35      1.0000 0.00685  0.92452  0.73198  Biso   1.000  H
  H36      1.0000 0.02214  0.93984  0.70808  Biso   1.000  H
  H37      1.0000 0.01745  0.01620  0.71741  Biso   1.000  H
  H38      1.0000 0.03752  0.02852  0.68590  Biso   1.000  H
  H39      1.0000 0.64016  0.77321  0.80268  Biso   1.000  H
  H40      1.0000 0.78680  0.75514  0.84939  Biso   1.000  H
  C26      1.0000 0.78833  0.87064  0.82133  Biso   1.000  C
  H41      1.0000 0.66381  0.80960  0.80281  Biso   1.000  H
  H42      1.0000 0.81597  0.80015  0.84871  Biso   1.000  H
  C27      1.0000 0.81855  0.90762  0.80710  Biso   1.000  C
  H43      1.0000 0.72385  0.02712  0.74569  Biso   1.000  H
  H44      1.0000 0.85382  0.00898  0.79760  Biso   1.000  H
  H45      1.0000 0.88436  0.03797  0.76799  Biso   1.000  H
  H46      1.0000 0.74698  0.04772  0.71710  Biso   1.000  H
  H47      1.0000 0.91140  0.88173  0.82210  Biso   1.000  H
  H48      1.0000 0.74254  0.88672  0.85889  Biso   1.000  H
  H49      1.0000 0.77937  0.93262  0.84299  Biso   1.000  H
  H50      1.0000 0.94156  0.91695  0.80448  Biso   1.000  H
  C28      1.0000 0.45362  0.37669  0.53195  Biso   1.000  C
  N13      1.0000 0.27563  0.36137  0.51837  Biso   1.000  N
  H51      1.0000 0.46567  0.39183  0.57291  Biso   1.000  H
  H52      1.0000 0.49320  0.42123  0.50840  Biso   1.000  H
  C29      1.0000 0.56327  0.30526  0.52065  Biso   1.000  C
  C30      1.0000 0.18664  0.43221  0.49989  Biso   1.000  C
  C31      1.0000 0.19104  0.32287  0.56573  Biso   1.000  C
  H53      1.0000 0.67054  0.31001  0.54291  Biso   1.000  H
  H54      1.0000 0.50417  0.25748  0.53389  Biso   1.000  H
  N14      1.0000 0.60036  0.29710  0.45988  Biso   1.000  N
  C32      1.0000 0.21493  0.45040  0.43766  Biso   1.000  C
  H55      1.0000 0.22597  0.47699  0.52370  Biso   1.000  H
  H56      1.0000 0.06407  0.42540  0.50608  Biso   1.000  H
  H57      1.0000 0.14246  0.36313  0.59131  Biso   1.000  H
  H58      1.0000 0.27470  0.29223  0.58851  Biso   1.000  H
  C33      1.0000 0.05132  0.26863  0.54429  Biso   1.000  C
  C34      1.0000 0.55603  0.23389  0.43241  Biso   1.000  C
  N15      1.0000 0.12173  0.39840  0.39953  Biso   1.000  N
  H59      1.0000 0.18012  0.50522  0.42979  Biso   1.000  H
  H60      1.0000 0.33715  0.44600  0.42970  Biso   1.000  H
  N16      1.0000 0.11997  0.20043  0.51579  Biso   1.000  N
  H61      1.0000 0.98278  0.25150  0.57721  Biso   1.000  H
  H62      1.0000 0.97629  0.29751  0.51721  Biso   1.000  H
  C35      1.0000 0.59975  0.21792  0.37516  Biso   1.000  C
  H63      1.0000 0.49006  0.19609  0.45201  Biso   1.000  H
  C36      1.0000 0.19337  0.35303  0.36064  Biso   1.000  C
  H64      1.0000 0.01099  0.39682  0.40228  Biso   1.000  H
  C37      1.0000 0.07819  0.18459  0.46271  Biso   1.000  C
  H65      1.0000 0.19077  0.16939  0.53457  Biso   1.000  H
  C38      1.0000 0.55829  0.14814  0.34916  Biso   1.000  C
  H66      1.0000 0.65932  0.25643  0.35410  Biso   1.000  H
  C39      1.0000 0.10961  0.31048  0.31933  Biso   1.000  C
  H67      1.0000 0.31341  0.34992  0.36158  Biso   1.000  H
  C40      1.0000 0.13713  0.11961  0.43224  Biso   1.000  C
  H68      1.0000 0.00269  0.21939  0.44341  Biso   1.000  H
  N17      1.0000 0.61179  0.13270  0.29282  Biso   1.000  N
  N18      1.0000 0.58954  0.11551  0.30459  Biso   1.000  N
  H69      1.0000 0.48593  0.11738  0.37228  Biso   1.000  H
  C41      1.0000 0.19732  0.27098  0.27605  Biso   1.000  C
  H70      1.0000 0.98977  0.30761  0.31989  Biso   1.000  H
  C42      1.0000 0.08084  0.10347  0.37731  Biso   1.000  C
  H71      1.0000 0.21799  0.08581  0.44999  Biso   1.000  H
  C43      1.0000 0.57462  0.05728  0.26673  Biso   1.000  C
  C44      1.0000 0.55493  0.03668  0.28401  Biso   1.000  C
  H72      1.0000 0.66741  0.16862  0.27360  Biso   1.000  H
  H73      1.0000 0.64372  0.14509  0.27988  Biso   1.000  H
  H74      1.0000 0.31635  0.27732  0.27459  Biso   1.000  H
  N19      1.0000 0.13252  0.24668  0.23222  Biso   1.000  N
  N20      1.0000 0.11411  0.22051  0.23312  Biso   1.000  N
  N21      1.0000 0.13072  0.04461  0.33820  Biso   1.000  N
  N22      1.0000 0.12334  0.03698  0.36098  Biso   1.000  N
  H75      1.0000 0.01664  0.13910  0.35428  Biso   1.000  H
  C45      1.0000 0.46840  0.06568  0.21210  Biso   1.000  C
  C46      1.0000 0.44369  0.03592  0.22998  Biso   1.000  C
  H76      1.0000 0.51313  0.02430  0.29441  Biso   1.000  H
  H77      1.0000 0.68186  0.03052  0.25770  Biso   1.000  H
  H78      1.0000 0.66311  0.01021  0.27588  Biso   1.000  H
  H79      1.0000 0.49815  0.00669  0.31461  Biso   1.000  H
  C47      1.0000 0.23947  0.21693  0.18700  Biso   1.000  C
  C48      1.0000 0.21435  0.18001  0.19001  Biso   1.000  C
  C49      1.0000 0.05964  0.02940  0.28095  Biso   1.000  C
  C50      1.0000 0.04260  0.01508  0.30751  Biso   1.000  C
  H80      1.0000 0.19490  0.00669  0.37998  Biso   1.000  H
  N23      1.0000 0.29241  0.08346  0.22422  Biso   1.000  N
  N24      1.0000 0.26731  0.05623  0.24189  Biso   1.000  N
  H81      1.0000 0.51568  0.10823  0.18829  Biso   1.000  H
  H82      1.0000 0.47404  0.01632  0.18980  Biso   1.000  H
  H83      1.0000 0.48910  0.07378  0.20192  Biso   1.000  H
  H84      1.0000 0.44743  0.98304  0.21240  Biso   1.000  H
  H85      1.0000 0.35963  0.22679  0.19732  Biso   1.000  H
  H86      1.0000 0.21313  0.24492  0.15060  Biso   1.000  H
  C51      1.0000 0.21146  0.12942  0.17866  Biso   1.000  C
  H87      1.0000 0.33611  0.19040  0.19719  Biso   1.000  H
  H88      1.0000 0.18383  0.19991  0.15129  Biso   1.000  H
  C52      1.0000 0.18137  0.09238  0.19289  Biso   1.000  C
  C53      1.0000 0.19769  0.01279  0.23806  Biso   1.000  C
  C54      1.0000 0.17305  0.98961  0.26428  Biso   1.000  C
  H89      1.0000 0.98234  0.98380  0.28259  Biso   1.000  H
  H90      1.0000 0.99307  0.07548  0.26802  Biso   1.000  H
  H91      1.0000 0.97766  0.06022  0.29191  Biso   1.000  H
  H92      1.0000 0.96241  0.97153  0.31409  Biso   1.000  H
  H93      1.0000 0.08852  0.11832  0.17789  Biso   1.000  H
  H94      1.0000 0.25725  0.11328  0.14110  Biso   1.000  H
  H95      1.0000 0.22042  0.06738  0.15700  Biso   1.000  H
  H96      1.0000 0.05823  0.08311  0.19551  Biso   1.000  H
  H97      1.0000 0.27607  0.97294  0.25431  Biso   1.000  H
  H98      1.0000 0.14610  0.99102  0.20239  Biso   1.000  H
  H99      1.0000 0.11544  0.96203  0.23200  Biso   1.000  H
  H100     1.0000 0.25281  0.95234  0.28289  Biso   1.000  H
  C55      1.0000 0.68133  0.40762  0.69291  Biso   1.000  C
  N25      1.0000 0.79238  0.41660  0.72424  Biso   1.000  N
  H101     1.0000 0.58836  0.38173  0.67791  Biso   1.000  H
  H102     1.0000 0.72038  0.43262  0.65698  Biso   1.000  H
  C56      1.0000 0.69765  0.48721  0.73808  Biso   1.000  C
  N26      1.0000 0.76727  0.44383  0.74190  Biso   1.000  N
  C57      1.0000 0.71430  0.31999  0.68999  Biso   1.000  C
  H103     1.0000 0.55819  0.41689  0.69549  Biso   1.000  H
  C58      1.0000 0.71142  0.37058  0.67864  Biso   1.000  C
  C59      1.0000 0.96836  0.43432  0.71208  Biso   1.000  C
  C60      1.0000 0.94365  0.46414  0.73000  Biso   1.000  C
  C61      1.0000 0.55960  0.47060  0.78093  Biso   1.000  C
  H104     1.0000 0.77603  0.52712  0.75428  Biso   1.000  H
  H105     1.0000 0.64606  0.50904  0.70241  Biso   1.000  H
  H106     1.0000 0.61540  0.53803  0.73198  Biso   1.000  H
  C62      1.0000 0.67301  0.51039  0.76430  Biso   1.000  C
  N27      1.0000 0.63248  0.25332  0.73219  Biso   1.000  N
  N28      1.0000 0.61407  0.27949  0.73309  Biso   1.000  N
  H107     1.0000 0.83607  0.30960  0.69721  Biso   1.000  H
  H108     1.0000 0.68379  0.30009  0.65130  Biso   1.000  H
  C63      1.0000 0.73943  0.28313  0.68698  Biso   1.000  C
  H109     1.0000 0.75721  0.38672  0.64108  Biso   1.000  H
  H110     1.0000 0.97387  0.48374  0.68977  Biso   1.000  H
  C64      1.0000 0.07445  0.44272  0.76670  Biso   1.000  C
  H111     1.0000 0.01564  0.39183  0.68831  Biso   1.000  H
  H112     1.0000 0.98906  0.42622  0.70189  Biso   1.000  H
  H113     1.0000 0.94739  0.51702  0.71238  Biso   1.000  H
  C65      1.0000 0.05477  0.46332  0.78398  Biso   1.000  C
  N29      1.0000 0.63068  0.45539  0.83822  Biso   1.000  N
  H114     1.0000 0.49303  0.42452  0.76799  Biso   1.000  H
  H115     1.0000 0.48231  0.51620  0.78260  Biso   1.000  H
  H116     1.0000 0.47762  0.43984  0.79189  Biso   1.000  H
  C66      1.0000 0.54243  0.48492  0.80749  Biso   1.000  C
  H117     1.0000 0.75277  0.54772  0.78291  Biso   1.000  H
  C67      1.0000 0.69715  0.22908  0.77607  Biso   1.000  C
  H118     1.0000 0.85959  0.27321  0.69729  Biso   1.000  H
  H119     1.0000 0.71296  0.25514  0.65057  Biso   1.000  H
  N30      1.0000 0.11163  0.36730  0.79279  Biso   1.000  N
  H120     1.0000 0.01309  0.47570  0.79438  Biso   1.000  H
  H121     1.0000 0.18182  0.46954  0.75768  Biso   1.000  H
  N31      1.0000 0.08950  0.38449  0.80461  Biso   1.000  N
  H122     1.0000 0.16294  0.48979  0.77590  Biso   1.000  H
  H123     1.0000 0.99811  0.49331  0.81458  Biso   1.000  H
  C68      1.0000 0.58080  0.39653  0.87729  Biso   1.000  C
  H124     1.0000 0.69487  0.49331  0.88000  Biso   1.000  H
  N32      1.0000 0.62330  0.46302  0.86100  Biso   1.000  N
  H125     1.0000 0.46224  0.52852  0.81411  Biso   1.000  H
  C69      1.0000 0.60957  0.18952  0.81931  Biso   1.000  C
  H126     1.0000 0.81631  0.22268  0.77457  Biso   1.000  H
  C70      1.0000 0.05825  0.35186  0.84918  Biso   1.000  C
  H127     1.0000 0.16725  0.33144  0.77358  Biso   1.000  H
  H128     1.0000 0.14356  0.35491  0.77990  Biso   1.000  H
  C71      1.0000 0.63709  0.38039  0.93226  Biso   1.000  C
  H129     1.0000 0.51661  0.36090  0.85429  Biso   1.000  H
  C72      1.0000 0.69333  0.14697  0.86065  Biso   1.000  C
  H130     1.0000 0.48973  0.19239  0.81987  Biso   1.000  H
  H131     1.0000 0.98589  0.38262  0.87230  Biso   1.000  H
  C73      1.0000 0.09971  0.28208  0.87514  Biso   1.000  C
  C74      1.0000 0.57815  0.31547  0.96269  Biso   1.000  C
  H132     1.0000 0.71795  0.41419  0.95001  Biso   1.000  H
  N33      1.0000 0.62156  0.10160  0.89951  Biso   1.000  N
  H133     1.0000 0.81324  0.15008  0.86160  Biso   1.000  H
  C75      1.0000 0.05586  0.26617  0.93239  Biso   1.000  C
  H134     1.0000 0.15928  0.24363  0.85408  Biso   1.000  H
  H135     1.0000 0.50252  0.28061  0.94339  Biso   1.000  H
  N34      1.0000 0.62018  0.29962  0.01577  Biso   1.000  N
  C76      1.0000 0.71489  0.04960  0.93763  Biso   1.000  C
  H136     1.0000 0.51082  0.10318  0.90230  Biso   1.000  H
  H137     1.0000 0.99002  0.30391  0.95199  Biso   1.000  H
  N35      1.0000 0.10032  0.20290  0.95989  Biso   1.000  N
  C77      1.0000 0.55141  0.23137  0.04430  Biso   1.000  C
  H138     1.0000 0.69086  0.33061  0.03459  Biso   1.000  H
  C78      1.0000 0.68660  0.06779  0.99986  Biso   1.000  C
  H139     1.0000 0.83711  0.05400  0.92968  Biso   1.000  H
  H140     1.0000 0.68008  0.99484  0.92981  Biso   1.000  H
  C79      1.0000 0.06336  0.19474  0.02062  Biso   1.000  C
  C80      1.0000 0.69113  0.17719  0.06571  Biso   1.000  C
  H141     1.0000 0.48299  0.24850  0.07718  Biso   1.000  H
  H142     1.0000 0.47637  0.20249  0.01718  Biso   1.000  H
  N36      1.0000 0.77584  0.13863  0.01834  Biso   1.000  N
  H143     1.0000 0.72606  0.02301  0.02367  Biso   1.000  H
  H144     1.0000 0.56416  0.07460  0.00610  Biso   1.000  H
  C81      1.0000 0.95384  0.12331  0.03197  Biso   1.000  C
  H145     1.0000 0.17063  0.18999  0.04289  Biso   1.000  H
  H146     1.0000 0.00439  0.24252  0.03390  Biso   1.000  H
  H147     1.0000 0.64255  0.13693  0.09128  Biso   1.000  H
  H148     1.0000 0.77491  0.20783  0.08849  Biso   1.000  H
  H149     1.0000 0.96576  0.10823  0.07289  Biso   1.000  H
  H150     1.0000 0.99341  0.07882  0.00837  Biso   1.000  H
  C82      1.0000 0.31859  0.59244  0.30709  Biso   1.000  C
  N37      1.0000 0.23252  0.55623  0.25809  Biso   1.000  N
  C83      1.0000 0.30227  0.51279  0.26191  Biso   1.000  C
  N38      1.0000 0.20742  0.58346  0.27575  Biso   1.000  N
  H151     1.0000 0.41144  0.61832  0.32208  Biso   1.000  H
  C84      1.0000 0.28562  0.68001  0.31001  Biso   1.000  C
  H152     1.0000 0.44173  0.58311  0.30451  Biso   1.000  H
  H153     1.0000 0.27941  0.56744  0.34302  Biso   1.000  H
  C85      1.0000 0.32691  0.48961  0.23570  Biso   1.000  C
  C86      1.0000 0.03156  0.56574  0.28792  Biso   1.000  C
  C87      1.0000 0.05627  0.53592  0.26999  Biso   1.000  C
  C88      1.0000 0.44032  0.52940  0.21906  Biso   1.000  C
  H154     1.0000 0.22389  0.47294  0.24571  Biso   1.000  H
  H155     1.0000 0.38452  0.46203  0.26802  Biso   1.000  H
  H156     1.0000 0.35386  0.49102  0.29759  Biso   1.000  H
  C89      1.0000 0.28850  0.62942  0.32135  Biso   1.000  C
  N39      1.0000 0.36732  0.74674  0.26780  Biso   1.000  N
  N40      1.0000 0.38586  0.72051  0.26690  Biso   1.000  N
  H157     1.0000 0.16385  0.69040  0.30279  Biso   1.000  H
  H158     1.0000 0.31600  0.69991  0.34869  Biso   1.000  H
  C90      1.0000 0.45737  0.51514  0.19250  Biso   1.000  C
  H159     1.0000 0.24702  0.45234  0.21709  Biso   1.000  H
  H160     1.0000 0.02592  0.51632  0.31018  Biso   1.000  H
  C91      1.0000 0.92534  0.55734  0.23329  Biso   1.000  C
  H161     1.0000 0.98428  0.60823  0.31168  Biso   1.000  H
  H162     1.0000 0.01086  0.57383  0.29810  Biso   1.000  H
  H163     1.0000 0.05241  0.48304  0.28762  Biso   1.000  H
  C92      1.0000 0.94503  0.53674  0.21601  Biso   1.000  C
  N41      1.0000 0.36924  0.54461  0.16177  Biso   1.000  N
  H164     1.0000 0.50689  0.57554  0.23200  Biso   1.000  H
  H165     1.0000 0.51762  0.48380  0.21739  Biso   1.000  H
  H166     1.0000 0.52230  0.56022  0.20810  Biso   1.000  H
  C93      1.0000 0.26049  0.71693  0.31302  Biso   1.000  C
  H167     1.0000 0.24271  0.61333  0.35887  Biso   1.000  H
  C94      1.0000 0.30264  0.77098  0.22392  Biso   1.000  C
  N42      1.0000 0.37662  0.53703  0.13899  Biso   1.000  N
  H168     1.0000 0.53755  0.47153  0.18588  Biso   1.000  H
  N43      1.0000 0.88817  0.63270  0.20720  Biso   1.000  N
  H169     1.0000 0.98683  0.52430  0.20561  Biso   1.000  H
  H170     1.0000 0.81810  0.53052  0.24232  Biso   1.000  H
  N44      1.0000 0.91042  0.61551  0.19538  Biso   1.000  N
  H171     1.0000 0.83685  0.51021  0.22409  Biso   1.000  H
  H172     1.0000 0.00181  0.50669  0.18541  Biso   1.000  H
  C95      1.0000 0.41912  0.60347  0.12271  Biso   1.000  C
  H173     1.0000 0.30493  0.50669  0.12000  Biso   1.000  H
  H174     1.0000 0.14020  0.72685  0.30270  Biso   1.000  H
  H175     1.0000 0.28683  0.74492  0.34938  Biso   1.000  H
  C96      1.0000 0.39023  0.81054  0.18064  Biso   1.000  C
  H176     1.0000 0.18361  0.77732  0.22538  Biso   1.000  H
  C97      1.0000 0.94167  0.64814  0.15081  Biso   1.000  C
  H177     1.0000 0.83255  0.66862  0.22641  Biso   1.000  H
  H178     1.0000 0.85624  0.64515  0.22010  Biso   1.000  H
  C98      1.0000 0.36283  0.61967  0.06773  Biso   1.000  C
  H179     1.0000 0.48332  0.63910  0.14570  Biso   1.000  H
  C99      1.0000 0.30659  0.85309  0.13934  Biso   1.000  C
  H180     1.0000 0.51019  0.80761  0.18008  Biso   1.000  H
  H181     1.0000 0.01403  0.61744  0.12769  Biso   1.000  H
  C100     1.0000 0.90021  0.71792  0.12485  Biso   1.000  C
  C101     1.0000 0.42176  0.68459  0.03726  Biso   1.000  C
  H182     1.0000 0.28185  0.58581  0.04998  Biso   1.000  H
  N45      1.0000 0.37823  0.89846  0.10048  Biso   1.000  N
  H183     1.0000 0.18655  0.84992  0.13839  Biso   1.000  H
  C102     1.0000 0.94393  0.73389  0.06761  Biso   1.000  C
  H184     1.0000 0.84064  0.75643  0.14591  Biso   1.000  H
  H185     1.0000 0.49727  0.71939  0.05660  Biso   1.000  H
  N46      1.0000 0.37973  0.70043  0.98418  Biso   1.000  N
  C103     1.0000 0.28503  0.95040  0.06236  Biso   1.000  C
  H186     1.0000 0.48897  0.89682  0.09769  Biso   1.000  H
  H187     1.0000 0.00990  0.69609  0.04801  Biso   1.000  H
  N47      1.0000 0.89960  0.79716  0.04010  Biso   1.000  N
  C104     1.0000 0.44839  0.76863  0.95569  Biso   1.000  C
  H188     1.0000 0.30906  0.66944  0.96540  Biso   1.000  H
  C105     1.0000 0.31332  0.93221  0.00013  Biso   1.000  C
  H189     1.0000 0.16281  0.94600  0.07031  Biso   1.000  H
  H190     1.0000 0.31984  0.00522  0.07018  Biso   1.000  H
  C106     1.0000 0.93656  0.80526  0.97937  Biso   1.000  C
  C107     1.0000 0.30867  0.82287  0.93429  Biso   1.000  C
  H191     1.0000 0.51693  0.75150  0.92281  Biso   1.000  H
  H192     1.0000 0.52355  0.79751  0.98281  Biso   1.000  H
  N48      1.0000 0.22408  0.86137  0.98160  Biso   1.000  N
  H193     1.0000 0.27386  0.97705  0.97628  Biso   1.000  H
  H194     1.0000 0.43576  0.92540  0.99390  Biso   1.000  H
  C108     1.0000 0.04609  0.87669  0.96802  Biso   1.000  C
  H195     1.0000 0.82917  0.81001  0.95711  Biso   1.000  H
  H196     1.0000 0.99553  0.75754  0.96609  Biso   1.000  H
  H197     1.0000 0.35737  0.86313  0.90871  Biso   1.000  H
  H198     1.0000 0.22501  0.79223  0.91151  Biso   1.000  H
  H199     1.0000 0.03417  0.89183  0.92711  Biso   1.000  H
  H200     1.0000 0.00650  0.92123  0.99158  Biso   1.000  H
  Ne1      1.0000 0.28031  0.18259  0.34412  Biso   1.000  Ne
  He1      1.0000 0.32397  0.10403  0.35019  Biso   1.000  He
  He2      1.0000 0.09289  0.22349  0.37969  Biso   1.000  He
  He3      1.0000 0.38553  0.27378  0.34042  Biso   1.000  He
  Ar1      1.0000 0.28762  0.21125  0.36665  Biso   1.000  Ar
  Ne2      1.0000 0.21960  0.68261  0.15587  Biso   1.000  Ne
  He4      1.0000 0.11513  0.77342  0.15935  Biso   1.000  He
  He5      1.0000 0.39908  0.72334  0.12013  Biso   1.000  He
  He6      1.0000 0.17716  0.60500  0.14938  Biso   1.000  He
  Ar2      1.0000 0.21485  0.70972  0.13333  Biso   1.000  Ar
  Ne3      1.0000 0.71956  0.81743  0.65586  Biso   1.000  Ne
  He7      1.0000 0.60905  0.72314  0.66121  Biso   1.000  He
  He8      1.0000 0.04585  0.77192  0.62604  Biso   1.000  He
  He9      1.0000 0.67835  0.87970  0.62062  Biso   1.000  He
  Ar3      1.0000 0.71646  0.79004  0.63331  Biso   1.000  Ar
  Ne4      1.0000 0.78028  0.31742  0.84412  Biso   1.000  Ne
  He10     1.0000 0.82535  0.41063  0.86559  Biso   1.000  He
  He11     1.0000 0.55577  0.23236  0.89787  Biso   1.000  He
  He12     1.0000 0.89834  0.21991  0.83614  Biso   1.000  He
  Ar4      1.0000 0.78338  0.31633  0.84350  Biso   1.000  Ar
