data_image0
_cell_length_a       8.04
_cell_length_b       8.04
_cell_length_c       33.925
_cell_angle_alpha    90
_cell_angle_beta     90
_cell_angle_gamma    120

_symmetry_space_group_name_H-M    "P 1"
_symmetry_int_tables_number       1

loop_
  _symmetry_equiv_pos_as_xyz
  'x, y, z'

loop_
  _atom_site_label
  _atom_site_occupancy
  _atom_site_fract_x
  _atom_site_fract_y
  _atom_site_fract_z
  _atom_site_thermal_displace_type
  _atom_site_B_iso_or_equiv
  _atom_site_type_symbol
  C1       1.0000 0.32225  0.48630  0.38794  Biso   1.000  C
  C2       1.0000 0.41785  0.42425  0.35800  Biso   1.000  C
  N1       1.0000 0.33334  0.66668  0.37651  Biso   1.000  N
  H1       1.0000 0.38534  0.50252  0.41391  Biso   1.000  H
  H2       1.0000 0.18595  0.38533  0.39069  Biso   1.000  H
  N2       1.0000 0.30853  0.37427  0.32147  Biso   1.000  N
  H3       1.0000 0.42399  0.31165  0.36799  Biso   1.000  H
  H4       1.0000 0.55058  0.52952  0.35319  Biso   1.000  H
  C3       1.0000 0.51365  0.83601  0.38794  Biso   1.000  C
  C4       1.0000 0.16399  0.67774  0.38794  Biso   1.000  C
  C5       1.0000 0.39340  0.38705  0.28681  Biso   1.000  C
  H5       1.0000 0.21070  0.25076  0.32401  Biso   1.000  H
  H6       1.0000 0.18495  0.33506  0.32221  Biso   1.000  H
  H7       1.0000 0.49751  0.88283  0.41391  Biso   1.000  H
  H8       1.0000 0.61470  0.80053  0.39069  Biso   1.000  H
  C6       1.0000 0.57576  0.99356  0.35800  Biso   1.000  C
  H9       1.0000 0.11717  0.61469  0.41391  Biso   1.000  H
  H10      1.0000 0.19943  0.81404  0.39069  Biso   1.000  H
  C7       1.0000 0.00642  0.58223  0.35800  Biso   1.000  C
  C8       1.0000 0.28778  0.34397  0.24999  Biso   1.000  C
  H11      1.0000 0.52587  0.42511  0.28631  Biso   1.000  H
  N3       1.0000 0.62570  0.93424  0.32147  Biso   1.000  N
  H12      1.0000 0.68818  0.11219  0.36799  Biso   1.000  H
  H13      1.0000 0.47045  0.02099  0.35319  Biso   1.000  H
  N4       1.0000 0.06572  0.69138  0.32147  Biso   1.000  N
  H14      1.0000 0.88771  0.57591  0.36799  Biso   1.000  H
  H15      1.0000 0.97905  0.44939  0.35319  Biso   1.000  H
  C9       1.0000 0.39340  0.38705  0.21318  Biso   1.000  C
  H16      1.0000 0.15205  0.28868  0.24999  Biso   1.000  H
  H17      1.0000 0.74918  0.95981  0.32401  Biso   1.000  H
  H18      1.0000 0.66490  0.84994  0.32221  Biso   1.000  H
  C10      1.0000 0.61300  0.00634  0.28681  Biso   1.000  C
  H19      1.0000 0.04019  0.78933  0.32401  Biso   1.000  H
  H20      1.0000 0.15006  0.81504  0.32221  Biso   1.000  H
  C11      1.0000 0.99362  0.60665  0.28681  Biso   1.000  C
  N5       1.0000 0.30853  0.37427  0.17851  Biso   1.000  N
  H21      1.0000 0.52587  0.42511  0.21371  Biso   1.000  H
  C12      1.0000 0.65594  0.94372  0.24999  Biso   1.000  C
  H22      1.0000 0.57485  0.10070  0.28631  Biso   1.000  H
  C13      1.0000 0.05623  0.71221  0.24999  Biso   1.000  C
  H23      1.0000 0.89923  0.47409  0.28631  Biso   1.000  H
  C14      1.0000 0.41785  0.42425  0.14199  Biso   1.000  C
  H24      1.0000 0.21070  0.25076  0.17601  Biso   1.000  H
  H25      1.0000 0.18495  0.33506  0.17780  Biso   1.000  H
  C15      1.0000 0.61300  0.00634  0.21318  Biso   1.000  C
  H26      1.0000 0.71125  0.86330  0.24999  Biso   1.000  H
  C16      1.0000 0.99362  0.60665  0.21318  Biso   1.000  C
  H27      1.0000 0.13665  0.84793  0.24999  Biso   1.000  H
  C17      1.0000 0.32225  0.48630  0.11207  Biso   1.000  C
  H28      1.0000 0.42399  0.31165  0.13200  Biso   1.000  H
  H29      1.0000 0.55058  0.52952  0.14679  Biso   1.000  H
  N6       1.0000 0.62570  0.93424  0.17851  Biso   1.000  N
  H30      1.0000 0.57485  0.10070  0.21371  Biso   1.000  H
  N7       1.0000 0.06572  0.69138  0.17851  Biso   1.000  N
  H31      1.0000 0.89923  0.47409  0.21371  Biso   1.000  H
  N8       1.0000 0.33334  0.66668  0.12348  Biso   1.000  N
  H32      1.0000 0.38534  0.50252  0.08610  Biso   1.000  H
  H33      1.0000 0.18595  0.38533  0.10930  Biso   1.000  H
  C18      1.0000 0.57576  0.99356  0.14199  Biso   1.000  C
  H34      1.0000 0.74918  0.95981  0.17601  Biso   1.000  H
  H35      1.0000 0.66490  0.84994  0.17780  Biso   1.000  H
  C19      1.0000 0.00642  0.58223  0.14199  Biso   1.000  C
  H36      1.0000 0.04019  0.78933  0.17601  Biso   1.000  H
  H37      1.0000 0.15006  0.81504  0.17780  Biso   1.000  H
  C20      1.0000 0.51365  0.83601  0.11207  Biso   1.000  C
  C21      1.0000 0.16399  0.67774  0.11207  Biso   1.000  C
  H38      1.0000 0.68818  0.11219  0.13200  Biso   1.000  H
  H39      1.0000 0.47045  0.02099  0.14679  Biso   1.000  H
  H40      1.0000 0.88771  0.57591  0.13200  Biso   1.000  H
  H41      1.0000 0.97905  0.44939  0.14679  Biso   1.000  H
  H42      1.0000 0.49751  0.88283  0.08610  Biso   1.000  H
  H43      1.0000 0.61470  0.80053  0.10930  Biso   1.000  H
  H44      1.0000 0.11717  0.61469  0.08610  Biso   1.000  H
  H45      1.0000 0.19943  0.81404  0.10930  Biso   1.000  H
  C22      1.0000 0.32225  0.48630  0.38794  Biso   1.000  C
  C23      1.0000 0.41785  0.42425  0.35800  Biso   1.000  C
  N9       1.0000 0.33334  0.66668  0.37651  Biso   1.000  N
  H46      1.0000 0.38534  0.50252  0.41391  Biso   1.000  H
  H47      1.0000 0.18595  0.38533  0.39069  Biso   1.000  H
  N10      1.0000 0.30853  0.37427  0.32147  Biso   1.000  N
  H48      1.0000 0.42399  0.31165  0.36799  Biso   1.000  H
  H49      1.0000 0.55058  0.52952  0.35319  Biso   1.000  H
  C24      1.0000 0.51365  0.83601  0.38794  Biso   1.000  C
  C25      1.0000 0.16399  0.67774  0.38794  Biso   1.000  C
  H50      1.0000 0.21070  0.25076  0.32401  Biso   1.000  H
  C26      1.0000 0.39340  0.38705  0.28681  Biso   1.000  C
  H51      1.0000 0.18495  0.33506  0.32221  Biso   1.000  H
  H52      1.0000 0.49751  0.88283  0.41391  Biso   1.000  H
  H53      1.0000 0.61470  0.80053  0.39069  Biso   1.000  H
  C27      1.0000 0.57576  0.99356  0.35800  Biso   1.000  C
  H54      1.0000 0.11717  0.61469  0.41391  Biso   1.000  H
  H55      1.0000 0.19943  0.81404  0.39069  Biso   1.000  H
  C28      1.0000 0.00642  0.58223  0.35800  Biso   1.000  C
  C29      1.0000 0.28778  0.34397  0.24999  Biso   1.000  C
  H56      1.0000 0.52587  0.42511  0.28631  Biso   1.000  H
  N11      1.0000 0.62570  0.93424  0.32147  Biso   1.000  N
  H57      1.0000 0.68818  0.11219  0.36799  Biso   1.000  H
  H58      1.0000 0.47045  0.02099  0.35319  Biso   1.000  H
  N12      1.0000 0.06572  0.69138  0.32147  Biso   1.000  N
  H59      1.0000 0.88771  0.57591  0.36799  Biso   1.000  H
  H60      1.0000 0.97905  0.44939  0.35319  Biso   1.000  H
  C30      1.0000 0.39340  0.38705  0.21318  Biso   1.000  C
  H61      1.0000 0.15205  0.28868  0.24999  Biso   1.000  H
  H62      1.0000 0.74918  0.95981  0.32401  Biso   1.000  H
  H63      1.0000 0.66490  0.84994  0.32221  Biso   1.000  H
  C31      1.0000 0.61300  0.00634  0.28681  Biso   1.000  C
  C32      1.0000 0.99362  0.60665  0.28681  Biso   1.000  C
  H64      1.0000 0.04019  0.78933  0.32401  Biso   1.000  H
  H65      1.0000 0.15006  0.81504  0.32221  Biso   1.000  H
  N13      1.0000 0.30853  0.37427  0.17851  Biso   1.000  N
  H66      1.0000 0.52587  0.42511  0.21371  Biso   1.000  H
  C33      1.0000 0.65594  0.94372  0.24999  Biso   1.000  C
  H67      1.0000 0.57485  0.10070  0.28631  Biso   1.000  H
  H68      1.0000 0.89923  0.47409  0.28631  Biso   1.000  H
  C34      1.0000 0.05623  0.71221  0.24999  Biso   1.000  C
  C35      1.0000 0.41785  0.42425  0.14199  Biso   1.000  C
  H69      1.0000 0.21070  0.25076  0.17601  Biso   1.000  H
  H70      1.0000 0.18495  0.33506  0.17780  Biso   1.000  H
  H71      1.0000 0.71125  0.86330  0.24999  Biso   1.000  H
  C36      1.0000 0.61300  0.00634  0.21318  Biso   1.000  C
  C37      1.0000 0.99362  0.60665  0.21318  Biso   1.000  C
  H72      1.0000 0.13665  0.84793  0.24999  Biso   1.000  H
  C38      1.0000 0.32225  0.48630  0.11207  Biso   1.000  C
  H73      1.0000 0.42399  0.31165  0.13200  Biso   1.000  H
  H74      1.0000 0.55058  0.52952  0.14679  Biso   1.000  H
  N14      1.0000 0.62570  0.93424  0.17851  Biso   1.000  N
  H75      1.0000 0.57485  0.10070  0.21371  Biso   1.000  H
  N15      1.0000 0.06572  0.69138  0.17851  Biso   1.000  N
  H76      1.0000 0.89923  0.47409  0.21371  Biso   1.000  H
  N16      1.0000 0.33334  0.66668  0.12348  Biso   1.000  N
  H77      1.0000 0.38534  0.50252  0.08610  Biso   1.000  H
  H78      1.0000 0.18595  0.38533  0.10930  Biso   1.000  H
  C39      1.0000 0.57576  0.99356  0.14199  Biso   1.000  C
  H79      1.0000 0.74918  0.95981  0.17601  Biso   1.000  H
  H80      1.0000 0.66490  0.84994  0.17780  Biso   1.000  H
  C40      1.0000 0.00642  0.58223  0.14199  Biso   1.000  C
  H81      1.0000 0.04019  0.78933  0.17601  Biso   1.000  H
  H82      1.0000 0.15006  0.81504  0.17780  Biso   1.000  H
  C41      1.0000 0.51365  0.83601  0.11207  Biso   1.000  C
  C42      1.0000 0.16399  0.67774  0.11207  Biso   1.000  C
  H83      1.0000 0.68818  0.11219  0.13200  Biso   1.000  H
  H84      1.0000 0.47045  0.02099  0.14679  Biso   1.000  H
  H85      1.0000 0.88771  0.57591  0.13200  Biso   1.000  H
  H86      1.0000 0.97905  0.44939  0.14679  Biso   1.000  H
  H87      1.0000 0.49751  0.88283  0.08610  Biso   1.000  H
  H88      1.0000 0.61470  0.80053  0.10930  Biso   1.000  H
  H89      1.0000 0.11717  0.61469  0.08610  Biso   1.000  H
  H90      1.0000 0.19943  0.81404  0.10930  Biso   1.000  H
  C43      1.0000 0.16404  0.48630  0.61206  Biso   1.000  C
  N17      1.0000 0.33334  0.66668  0.62349  Biso   1.000  N
  H91      1.0000 0.11718  0.50252  0.58609  Biso   1.000  H
  H92      1.0000 0.19938  0.38533  0.60931  Biso   1.000  H
  C44      1.0000 0.00640  0.42425  0.64200  Biso   1.000  C
  C45      1.0000 0.51375  0.67774  0.61206  Biso   1.000  C
  C46      1.0000 0.32236  0.83601  0.61206  Biso   1.000  C
  N18      1.0000 0.06574  0.37427  0.67853  Biso   1.000  N
  H93      1.0000 0.88767  0.31165  0.63201  Biso   1.000  H
  H94      1.0000 0.97894  0.52952  0.64681  Biso   1.000  H
  H95      1.0000 0.49752  0.61469  0.58609  Biso   1.000  H
  H96      1.0000 0.61460  0.81404  0.60931  Biso   1.000  H
  C47      1.0000 0.57582  0.58223  0.64200  Biso   1.000  C
  H97      1.0000 0.38532  0.88283  0.58609  Biso   1.000  H
  H98      1.0000 0.18584  0.80053  0.60931  Biso   1.000  H
  C48      1.0000 0.41780  0.99356  0.64200  Biso   1.000  C
  H99      1.0000 0.04006  0.25076  0.67599  Biso   1.000  H
  H100     1.0000 0.15012  0.33506  0.67779  Biso   1.000  H
  C49      1.0000 0.99365  0.38705  0.71319  Biso   1.000  C
  H101     1.0000 0.68821  0.57591  0.63201  Biso   1.000  H
  H102     1.0000 0.47034  0.44939  0.64681  Biso   1.000  H
  N19      1.0000 0.62567  0.69138  0.67853  Biso   1.000  N
  N20      1.0000 0.30854  0.93424  0.67853  Biso   1.000  N
  H103     1.0000 0.42401  0.11219  0.63201  Biso   1.000  H
  H104     1.0000 0.55055  0.02099  0.64681  Biso   1.000  H
  C50      1.0000 0.05619  0.34397  0.75001  Biso   1.000  C
  H105     1.0000 0.89925  0.42511  0.71369  Biso   1.000  H
  H106     1.0000 0.74914  0.78933  0.67599  Biso   1.000  H
  C51      1.0000 0.61303  0.60665  0.71319  Biso   1.000  C
  H107     1.0000 0.66498  0.81504  0.67779  Biso   1.000  H
  H108     1.0000 0.21063  0.95981  0.67599  Biso   1.000  H
  H109     1.0000 0.18504  0.84994  0.67779  Biso   1.000  H
  C52      1.0000 0.39334  0.00634  0.71319  Biso   1.000  C
  H110     1.0000 0.13663  0.28868  0.75001  Biso   1.000  H
  C53      1.0000 0.99365  0.38705  0.78682  Biso   1.000  C
  H111     1.0000 0.57485  0.47409  0.71369  Biso   1.000  H
  C54      1.0000 0.65598  0.71221  0.75001  Biso   1.000  C
  C55      1.0000 0.28778  0.94372  0.75001  Biso   1.000  C
  H112     1.0000 0.52585  0.10070  0.71369  Biso   1.000  H
  N21      1.0000 0.06574  0.37427  0.82149  Biso   1.000  N
  H113     1.0000 0.89925  0.42511  0.78629  Biso   1.000  H
  H114     1.0000 0.71128  0.84793  0.75001  Biso   1.000  H
  C56      1.0000 0.61303  0.60665  0.78682  Biso   1.000  C
  H115     1.0000 0.15205  0.86330  0.75001  Biso   1.000  H
  C57      1.0000 0.39334  0.00634  0.78682  Biso   1.000  C
  C58      1.0000 0.00640  0.42425  0.85801  Biso   1.000  C
  H116     1.0000 0.04006  0.25076  0.82399  Biso   1.000  H
  H117     1.0000 0.15012  0.33506  0.82220  Biso   1.000  H
  N22      1.0000 0.62567  0.69138  0.82149  Biso   1.000  N
  H118     1.0000 0.57485  0.47409  0.78629  Biso   1.000  H
  N23      1.0000 0.30854  0.93424  0.82149  Biso   1.000  N
  H119     1.0000 0.52585  0.10070  0.78629  Biso   1.000  H
  C59      1.0000 0.16404  0.48630  0.88793  Biso   1.000  C
  H120     1.0000 0.88767  0.31165  0.86800  Biso   1.000  H
  H121     1.0000 0.97894  0.52952  0.85321  Biso   1.000  H
  C60      1.0000 0.57582  0.58223  0.85801  Biso   1.000  C
  H122     1.0000 0.74914  0.78933  0.82399  Biso   1.000  H
  H123     1.0000 0.66498  0.81504  0.82220  Biso   1.000  H
  C61      1.0000 0.41780  0.99356  0.85801  Biso   1.000  C
  H124     1.0000 0.21063  0.95981  0.82399  Biso   1.000  H
  H125     1.0000 0.18504  0.84994  0.82220  Biso   1.000  H
  N24      1.0000 0.33334  0.66668  0.87652  Biso   1.000  N
  H126     1.0000 0.11718  0.50252  0.91390  Biso   1.000  H
  H127     1.0000 0.19938  0.38533  0.89070  Biso   1.000  H
  C62      1.0000 0.51375  0.67774  0.88793  Biso   1.000  C
  H128     1.0000 0.68821  0.57591  0.86800  Biso   1.000  H
  H129     1.0000 0.47034  0.44939  0.85321  Biso   1.000  H
  C63      1.0000 0.32236  0.83601  0.88793  Biso   1.000  C
  H130     1.0000 0.42401  0.11219  0.86800  Biso   1.000  H
  H131     1.0000 0.55055  0.02099  0.85321  Biso   1.000  H
  H132     1.0000 0.49752  0.61469  0.91390  Biso   1.000  H
  H133     1.0000 0.61460  0.81404  0.89070  Biso   1.000  H
  H134     1.0000 0.38532  0.88283  0.91390  Biso   1.000  H
  H135     1.0000 0.18584  0.80053  0.89070  Biso   1.000  H
  C64      1.0000 0.16404  0.48630  0.61206  Biso   1.000  C
  C65      1.0000 0.00640  0.42425  0.64200  Biso   1.000  C
  N25      1.0000 0.33334  0.66668  0.62349  Biso   1.000  N
  H136     1.0000 0.11718  0.50252  0.58609  Biso   1.000  H
  H137     1.0000 0.19938  0.38533  0.60931  Biso   1.000  H
  N26      1.0000 0.06574  0.37427  0.67853  Biso   1.000  N
  H138     1.0000 0.88767  0.31165  0.63201  Biso   1.000  H
  H139     1.0000 0.97894  0.52952  0.64681  Biso   1.000  H
  C66      1.0000 0.51375  0.67774  0.61206  Biso   1.000  C
  C67      1.0000 0.32236  0.83601  0.61206  Biso   1.000  C
  C68      1.0000 0.99365  0.38705  0.71319  Biso   1.000  C
  H140     1.0000 0.04006  0.25076  0.67599  Biso   1.000  H
  H141     1.0000 0.15012  0.33506  0.67779  Biso   1.000  H
  H142     1.0000 0.49752  0.61469  0.58609  Biso   1.000  H
  H143     1.0000 0.61460  0.81404  0.60931  Biso   1.000  H
  C69      1.0000 0.57582  0.58223  0.64200  Biso   1.000  C
  H144     1.0000 0.38532  0.88283  0.58609  Biso   1.000  H
  H145     1.0000 0.18584  0.80053  0.60931  Biso   1.000  H
  C70      1.0000 0.41780  0.99356  0.64200  Biso   1.000  C
  H146     1.0000 0.89925  0.42511  0.71369  Biso   1.000  H
  C71      1.0000 0.05619  0.34397  0.75001  Biso   1.000  C
  N27      1.0000 0.62567  0.69138  0.67853  Biso   1.000  N
  H147     1.0000 0.68821  0.57591  0.63201  Biso   1.000  H
  H148     1.0000 0.47034  0.44939  0.64681  Biso   1.000  H
  N28      1.0000 0.30854  0.93424  0.67853  Biso   1.000  N
  H149     1.0000 0.42401  0.11219  0.63201  Biso   1.000  H
  H150     1.0000 0.55055  0.02099  0.64681  Biso   1.000  H
  C72      1.0000 0.99365  0.38705  0.78682  Biso   1.000  C
  H151     1.0000 0.13663  0.28868  0.75001  Biso   1.000  H
  H152     1.0000 0.74914  0.78933  0.67599  Biso   1.000  H
  C73      1.0000 0.61303  0.60665  0.71319  Biso   1.000  C
  H153     1.0000 0.66498  0.81504  0.67779  Biso   1.000  H
  H154     1.0000 0.21063  0.95981  0.67599  Biso   1.000  H
  H155     1.0000 0.18504  0.84994  0.67779  Biso   1.000  H
  C74      1.0000 0.39334  0.00634  0.71319  Biso   1.000  C
  N29      1.0000 0.06574  0.37427  0.82149  Biso   1.000  N
  H156     1.0000 0.89925  0.42511  0.78629  Biso   1.000  H
  H157     1.0000 0.57485  0.47409  0.71369  Biso   1.000  H
  C75      1.0000 0.65598  0.71221  0.75001  Biso   1.000  C
  C76      1.0000 0.28778  0.94372  0.75001  Biso   1.000  C
  H158     1.0000 0.52585  0.10070  0.71369  Biso   1.000  H
  C77      1.0000 0.00640  0.42425  0.85801  Biso   1.000  C
  H159     1.0000 0.04006  0.25076  0.82399  Biso   1.000  H
  H160     1.0000 0.15012  0.33506  0.82220  Biso   1.000  H
  H161     1.0000 0.71128  0.84793  0.75001  Biso   1.000  H
  C78      1.0000 0.61303  0.60665  0.78682  Biso   1.000  C
  H162     1.0000 0.15205  0.86330  0.75001  Biso   1.000  H
  C79      1.0000 0.39334  0.00634  0.78682  Biso   1.000  C
  H163     1.0000 0.88767  0.31165  0.86800  Biso   1.000  H
  H164     1.0000 0.97894  0.52952  0.85321  Biso   1.000  H
  C80      1.0000 0.16404  0.48630  0.88793  Biso   1.000  C
  N30      1.0000 0.62567  0.69138  0.82149  Biso   1.000  N
  H165     1.0000 0.57485  0.47409  0.78629  Biso   1.000  H
  N31      1.0000 0.30854  0.93424  0.82149  Biso   1.000  N
  H166     1.0000 0.52585  0.10070  0.78629  Biso   1.000  H
  N32      1.0000 0.33334  0.66668  0.87652  Biso   1.000  N
  H167     1.0000 0.11718  0.50252  0.91390  Biso   1.000  H
  H168     1.0000 0.19938  0.38533  0.89070  Biso   1.000  H
  C81      1.0000 0.57582  0.58223  0.85801  Biso   1.000  C
  H169     1.0000 0.74914  0.78933  0.82399  Biso   1.000  H
  H170     1.0000 0.66498  0.81504  0.82220  Biso   1.000  H
  C82      1.0000 0.41780  0.99356  0.85801  Biso   1.000  C
  H171     1.0000 0.21063  0.95981  0.82399  Biso   1.000  H
  H172     1.0000 0.18504  0.84994  0.82220  Biso   1.000  H
  C83      1.0000 0.51375  0.67774  0.88793  Biso   1.000  C
  C84      1.0000 0.32236  0.83601  0.88793  Biso   1.000  C
  H173     1.0000 0.68821  0.57591  0.86800  Biso   1.000  H
  H174     1.0000 0.47034  0.44939  0.85321  Biso   1.000  H
  H175     1.0000 0.42401  0.11219  0.86800  Biso   1.000  H
  H176     1.0000 0.55055  0.02099  0.85321  Biso   1.000  H
  H177     1.0000 0.49752  0.61469  0.91390  Biso   1.000  H
  H178     1.0000 0.61460  0.81404  0.89070  Biso   1.000  H
  H179     1.0000 0.38532  0.88283  0.91390  Biso   1.000  H
  H180     1.0000 0.18584  0.80053  0.89070  Biso   1.000  H
