data_image0
_cell_length_a       15.364
_cell_length_b       15.497
_cell_length_c       18.115
_cell_angle_alpha    99.46
_cell_angle_beta     113.19
_cell_angle_gamma    103.02

_symmetry_space_group_name_H-M    "P 1"
_symmetry_int_tables_number       1

loop_
  _symmetry_equiv_pos_as_xyz
  'x, y, z'

loop_
  _atom_site_label
  _atom_site_occupancy
  _atom_site_fract_x
  _atom_site_fract_y
  _atom_site_fract_z
  _atom_site_thermal_displace_type
  _atom_site_B_iso_or_equiv
  _atom_site_type_symbol
  C1       1.0000 0.22308  0.58780  0.62118  Biso   1.000  C
  C2       1.0000 0.13159  0.51494  0.61204  Biso   1.000  C
  H1       1.0000 0.27131  0.55815  0.61636  Biso   1.000  H
  O1       1.0000 0.19317  0.63010  0.55695  Biso   1.000  O
  C3       1.0000 0.26957  0.65593  0.70677  Biso   1.000  C
  C4       1.0000 0.16207  0.46972  0.68285  Biso   1.000  C
  H2       1.0000 0.08430  0.54582  0.61718  Biso   1.000  H
  O2       1.0000 0.08330  0.44824  0.53297  Biso   1.000  O
  H3       1.0000 0.23729  0.67852  0.56885  Biso   1.000  H
  C5       1.0000 0.29358  0.60972  0.77632  Biso   1.000  C
  H4       1.0000 0.22406  0.69008  0.70965  Biso   1.000  H
  O3       1.0000 0.36176  0.71973  0.71766  Biso   1.000  O
  O4       1.0000 0.23025  0.42432  0.67446  Biso   1.000  O
  H5       1.0000 0.10270  0.42373  0.67703  Biso   1.000  H
  O5       1.0000 0.20545  0.53612  0.76117  Biso   1.000  O
  H6       1.0000 0.08761  0.39781  0.53904  Biso   1.000  H
  H7       1.0000 0.34668  0.58349  0.77864  Biso   1.000  H
  C6       1.0000 0.32566  0.67432  0.86034  Biso   1.000  C
  C7       1.0000 0.37496  0.81431  0.73807  Biso   1.000  C
  C8       1.0000 0.20761  0.33011  0.67096  Biso   1.000  C
  H8       1.0000 0.38845  0.72128  0.87587  Biso   1.000  H
  H9       1.0000 0.33715  0.64017  0.90166  Biso   1.000  H
  O6       1.0000 0.25435  0.71808  0.86197  Biso   1.000  O
  H10      1.0000 0.31374  0.82287  0.73813  Biso   1.000  H
  C9       1.0000 0.39299  0.85413  0.67246  Biso   1.000  C
  O7       1.0000 0.45552  0.86112  0.81815  Biso   1.000  O
  C10      1.0000 0.20641  0.27714  0.59239  Biso   1.000  C
  C11      1.0000 0.29066  0.31673  0.74746  Biso   1.000  C
  H11      1.0000 0.14251  0.30734  0.67058  Biso   1.000  H
  H12      1.0000 0.27580  0.77280  0.86541  Biso   1.000  H
  H13      1.0000 0.39906  0.91969  0.68623  Biso   1.000  H
  O8       1.0000 0.31078  0.80891  0.59239  Biso   1.000  O
  C12      1.0000 0.49046  0.84579  0.67352  Biso   1.000  C
  C13      1.0000 0.55116  0.86067  0.82585  Biso   1.000  C
  C14      1.0000 0.19388  0.17683  0.59207  Biso   1.000  C
  H14      1.0000 0.26916  0.30462  0.59044  Biso   1.000  H
  O9       1.0000 0.12461  0.28141  0.52108  Biso   1.000  O
  O10      1.0000 0.27835  0.22211  0.74245  Biso   1.000  O
  H15      1.0000 0.35648  0.34729  0.75203  Biso   1.000  H
  C15      1.0000 0.28390  0.35763  0.82685  Biso   1.000  C
  H16      1.0000 0.30358  0.75360  0.58068  Biso   1.000  H
  H17      1.0000 0.48619  0.78065  0.66088  Biso   1.000  H
  O11      1.0000 0.50766  0.88440  0.61317  Biso   1.000  O
  C16      1.0000 0.57386  0.89659  0.75917  Biso   1.000  C
  H18      1.0000 0.55353  0.79740  0.82002  Biso   1.000  H
  C17      1.0000 0.62321  0.91935  0.91531  Biso   1.000  C
  C18      1.0000 0.27641  0.17213  0.66964  Biso   1.000  C
  H19      1.0000 0.12997  0.15019  0.59264  Biso   1.000  H
  O12      1.0000 0.19172  0.12493  0.51776  Biso   1.000  O
  H20      1.0000 0.14634  0.31426  0.49685  Biso   1.000  H
  H21      1.0000 0.30234  0.42433  0.83856  Biso   1.000  H
  H22      1.0000 0.33015  0.34307  0.87387  Biso   1.000  H
  O13      1.0000 0.18284  0.32070  0.81652  Biso   1.000  O
  H23      1.0000 0.28666  0.42160  0.83192  Biso   1.000  H
  H24      1.0000 0.22143  0.32361  0.82503  Biso   1.000  H
  O14      1.0000 0.37587  0.35070  0.90385  Biso   1.000  O
  H25      1.0000 0.55356  0.93350  0.63684  Biso   1.000  H
  H26      1.0000 0.58159  0.96258  0.76988  Biso   1.000  H
  O15      1.0000 0.66257  0.88319  0.76124  Biso   1.000  O
  H27      1.0000 0.69142  0.92426  0.92595  Biso   1.000  H
  H28      1.0000 0.60864  0.89065  0.95475  Biso   1.000  H
  O16      1.0000 0.61232  0.01124  0.92664  Biso   1.000  O
  O17      1.0000 0.36978  0.20810  0.66795  Biso   1.000  O
  H29      1.0000 0.26592  0.10740  0.66977  Biso   1.000  H
  H30      1.0000 0.24904  0.13416  0.52358  Biso   1.000  H
  H31      1.0000 0.17496  0.35376  0.85164  Biso   1.000  H
  H32      1.0000 0.42633  0.36826  0.89753  Biso   1.000  H
  C19      1.0000 0.74734  0.96219  0.78797  Biso   1.000  C
  H33      1.0000 0.66611  0.04980  0.96026  Biso   1.000  H
  C20      1.0000 0.43341  0.15143  0.67377  Biso   1.000  C
  C21      1.0000 0.78245  0.96112  0.72098  Biso   1.000  C
  O18      1.0000 0.82653  0.96108  0.86303  Biso   1.000  O
  H34      1.0000 0.72952  0.01835  0.79836  Biso   1.000  H
  C22      1.0000 0.45871  0.15081  0.60015  Biso   1.000  C
  H35      1.0000 0.39647  0.08832  0.66826  Biso   1.000  H
  C23      1.0000 0.52391  0.18881  0.75717  Biso   1.000  C
  C24      1.0000 0.81306  0.87569  0.70508  Biso   1.000  C
  O19      1.0000 0.70665  0.96659  0.64673  Biso   1.000  O
  H36      1.0000 0.84135  0.01576  0.74076  Biso   1.000  H
  C25      1.0000 0.86227  0.88302  0.85527  Biso   1.000  C
  O20      1.0000 0.37080  0.10511  0.52346  Biso   1.000  O
  C26      1.0000 0.53650  0.10340  0.60935  Biso   1.000  C
  H37      1.0000 0.48589  0.21471  0.60077  Biso   1.000  H
  O21      1.0000 0.59999  0.14739  0.75836  Biso   1.000  O
  H38      1.0000 0.55157  0.25537  0.76693  Biso   1.000  H
  C27      1.0000 0.50546  0.17401  0.82954  Biso   1.000  C
  C28      1.0000 0.89444  0.87386  0.78634  Biso   1.000  C
  H39      1.0000 0.75485  0.82051  0.68548  Biso   1.000  H
  O22      1.0000 0.84769  0.87579  0.64335  Biso   1.000  O
  H40      1.0000 0.69234  0.92202  0.60785  Biso   1.000  H
  H41      1.0000 0.80943  0.82631  0.84394  Biso   1.000  H
  C29      1.0000 0.95000  0.90119  0.94142  Biso   1.000  C
  H42      1.0000 0.38463  0.07315  0.49165  Biso   1.000  H
  C30      1.0000 0.62770  0.15080  0.69343  Biso   1.000  C
  H43      1.0000 0.50811  0.03961  0.60804  Biso   1.000  H
  O23      1.0000 0.56330  0.10147  0.54299  Biso   1.000  O
  H44      1.0000 0.46165  0.20778  0.83611  Biso   1.000  H
  H45      1.0000 0.56826  0.19809  0.88025  Biso   1.000  H
  O24      1.0000 0.46027  0.07707  0.81833  Biso   1.000  O
  O25      1.0000 0.91045  0.78668  0.77182  Biso   1.000  O
  H46      1.0000 0.95614  0.92398  0.80287  Biso   1.000  H
  H47      1.0000 0.88366  0.84315  0.64848  Biso   1.000  H
  H48      1.0000 0.97955  0.85217  0.94073  Biso   1.000  H
  O26      1.0000 0.91689  0.90554  0.00171  Biso   1.000  O
  H49      1.0000 0.00085  0.95897  0.95425  Biso   1.000  H
  O27      1.0000 0.66698  0.24311  0.69443  Biso   1.000  O
  H50      1.0000 0.67784  0.11954  0.69938  Biso   1.000  H
  H51      1.0000 0.54654  0.04766  0.51569  Biso   1.000  H
  H52      1.0000 0.50415  0.05469  0.84025  Biso   1.000  H
  C31      1.0000 0.01007  0.78471  0.79122  Biso   1.000  C
  H53      1.0000 0.96252  0.90905  0.04653  Biso   1.000  H
  C32      1.0000 0.77170  0.27604  0.71616  Biso   1.000  C
  C33      1.0000 0.00367  0.72668  0.71065  Biso   1.000  C
  O28      1.0000 0.04555  0.74740  0.85702  Biso   1.000  O
  H54      1.0000 0.05444  0.84769  0.80606  Biso   1.000  H
  C34      1.0000 0.78398  0.31202  0.64566  Biso   1.000  C
  H55      1.0000 0.80020  0.22569  0.72355  Biso   1.000  H
  C35      1.0000 0.82402  0.35386  0.79692  Biso   1.000  C
  C36      1.0000 0.93657  0.63022  0.68974  Biso   1.000  C
  O29      1.0000 0.97367  0.76693  0.64554  Biso   1.000  O
  H56      1.0000 0.07073  0.72378  0.72236  Biso   1.000  H
  C37      1.0000 0.98946  0.65391  0.84394  Biso   1.000  C
  C38      1.0000 0.89270  0.35229  0.67114  Biso   1.000  C
  H57      1.0000 0.75217  0.36001  0.63665  Biso   1.000  H
  O30      1.0000 0.73591  0.23725  0.57129  Biso   1.000  O
  H58      1.0000 0.79254  0.40229  0.78953  Biso   1.000  H
  O31      1.0000 0.92873  0.39240  0.81602  Biso   1.000  O
  C39      1.0000 0.82033  0.32345  0.86892  Biso   1.000  C
  C40      1.0000 0.97754  0.59160  0.76324  Biso   1.000  C
  H59      1.0000 0.86897  0.63090  0.67853  Biso   1.000  H
  O32      1.0000 0.93376  0.57229  0.61755  Biso   1.000  O
  H60      1.0000 0.93046  0.78912  0.64704  Biso   1.000  H
  H61      1.0000 0.92335  0.65138  0.83987  Biso   1.000  H
  C41      1.0000 0.04743  0.62538  0.92051  Biso   1.000  C
  C42      1.0000 0.94409  0.42731  0.75548  Biso   1.000  C
  H62      1.0000 0.92226  0.30269  0.67903  Biso   1.000  H
  O33      1.0000 0.90996  0.38560  0.60804  Biso   1.000  O
  H63      1.0000 0.73702  0.25632  0.53197  Biso   1.000  H
  H64      1.0000 0.75198  0.30520  0.86116  Biso   1.000  H
  H65      1.0000 0.86009  0.37420  0.91976  Biso   1.000  H
  O34      1.0000 0.85845  0.24665  0.87731  Biso   1.000  O
  O35      1.0000 0.90627  0.50089  0.74314  Biso   1.000  O
  H66      1.0000 0.04239  0.58524  0.77088  Biso   1.000  H
  H67      1.0000 0.94686  0.60422  0.58907  Biso   1.000  H
  H68      1.0000 0.00857  0.56488  0.91744  Biso   1.000  H
  H69      1.0000 0.05749  0.66885  0.97053  Biso   1.000  H
  O36      1.0000 0.13969  0.62245  0.92620  Biso   1.000  O
  H70      1.0000 0.01610  0.44920  0.77257  Biso   1.000  H
  H71      1.0000 0.91539  0.44070  0.61674  Biso   1.000  H
  H72      1.0000 0.83067  0.21327  0.89772  Biso   1.000  H
  H73      1.0000 0.13875  0.61737  0.88013  Biso   1.000  H
  C43      1.0000 0.11832  0.55765  0.32956  Biso   1.000  C
  C44      1.0000 0.04735  0.49189  0.24310  Biso   1.000  C
  C45      1.0000 0.10809  0.65107  0.32925  Biso   1.000  C
  H74      1.0000 0.18721  0.56008  0.34246  Biso   1.000  H
  O37      1.0000 0.09140  0.52406  0.38966  Biso   1.000  O
  O38      1.0000 0.06206  0.40314  0.24097  Biso   1.000  O
  C46      1.0000 0.07018  0.52838  0.17699  Biso   1.000  C
  H75      1.0000 0.97812  0.48595  0.23190  Biso   1.000  H
  C47      1.0000 0.13194  0.68475  0.26389  Biso   1.000  C
  H76      1.0000 0.03874  0.64684  0.31610  Biso   1.000  H
  O39      1.0000 0.17199  0.71596  0.41058  Biso   1.000  O
  H77      1.0000 0.08574  0.46891  0.38146  Biso   1.000  H
  C48      1.0000 0.97615  0.32336  0.21386  Biso   1.000  C
  H78      1.0000 0.13596  0.52607  0.18381  Biso   1.000  H
  O40      1.0000 0.06846  0.62146  0.18450  Biso   1.000  O
  C49      1.0000 0.99068  0.47309  0.08777  Biso   1.000  C
  O41      1.0000 0.23283  0.69303  0.28411  Biso   1.000  O
  H79      1.0000 0.12239  0.74524  0.26376  Biso   1.000  H
  H80      1.0000 0.22893  0.73344  0.41546  Biso   1.000  H
  C50      1.0000 0.99325  0.27677  0.28135  Biso   1.000  C
  O42      1.0000 0.96167  0.26381  0.13880  Biso   1.000  O
  H81      1.0000 0.91707  0.34297  0.20347  Biso   1.000  H
  H82      1.0000 0.00897  0.49733  0.04802  Biso   1.000  H
  H83      1.0000 0.98893  0.40916  0.07857  Biso   1.000  H
  O43      1.0000 0.89588  0.47723  0.07363  Biso   1.000  O
  C51      1.0000 0.29824  0.78255  0.29550  Biso   1.000  C
  C52      1.0000 0.08197  0.24070  0.29651  Biso   1.000  C
  O44      1.0000 0.00333  0.33366  0.35486  Biso   1.000  O
  H84      1.0000 0.93375  0.22296  0.26170  Biso   1.000  H
  C53      1.0000 0.04107  0.22739  0.14650  Biso   1.000  C
  H85      1.0000 0.89006  0.52491  0.06129  Biso   1.000  H
  C54      1.0000 0.38842  0.80837  0.37940  Biso   1.000  C
  H86      1.0000 0.26363  0.82875  0.29369  Biso   1.000  H
  C55      1.0000 0.33101  0.77377  0.22376  Biso   1.000  C
  C56      1.0000 0.06245  0.17839  0.21430  Biso   1.000  C
  H87      1.0000 0.14282  0.29299  0.31616  Biso   1.000  H
  O45      1.0000 0.09374  0.19214  0.35767  Biso   1.000  O
  H88      1.0000 0.02856  0.38767  0.35836  Biso   1.000  H
  H89      1.0000 0.10136  0.27804  0.16046  Biso   1.000  H
  C57      1.0000 0.00868  0.16348  0.06148  Biso   1.000  C
  C58      1.0000 0.46384  0.89566  0.38810  Biso   1.000  C
  H90      1.0000 0.41791  0.75834  0.38315  Biso   1.000  H
  O46      1.0000 0.35991  0.82536  0.44538  Biso   1.000  O
  H91      1.0000 0.35728  0.72170  0.22200  Biso   1.000  H
  O47      1.0000 0.40712  0.85579  0.23891  Biso   1.000  O
  C59      1.0000 0.24435  0.75778  0.13886  Biso   1.000  C
  O48      1.0000 0.15221  0.15463  0.22776  Biso   1.000  O
  H92      1.0000 0.00619  0.12239  0.19721  Biso   1.000  H
  H93      1.0000 0.15320  0.19944  0.38516  Biso   1.000  H
  H94      1.0000 0.06146  0.13888  0.06161  Biso   1.000  H
  H95      1.0000 0.99387  0.19660  0.01941  Biso   1.000  H
  O49      1.0000 0.91729  0.08688  0.04289  Biso   1.000  O
  C60      1.0000 0.49263  0.87892  0.31698  Biso   1.000  C
  H96      1.0000 0.43261  0.94442  0.38347  Biso   1.000  H
  O50      1.0000 0.54969  0.92494  0.46698  Biso   1.000  O
  H97      1.0000 0.31721  0.77896  0.44019  Biso   1.000  H
  H98      1.0000 0.19492  0.69839  0.12427  Biso   1.000  H
  H99      1.0000 0.26843  0.75606  0.09679  Biso   1.000  H
  O51      1.0000 0.19841  0.82839  0.13867  Biso   1.000  O
  C61      1.0000 0.14339  0.05846  0.20692  Biso   1.000  C
  H100     1.0000 0.91418  0.04048  0.01152  Biso   1.000  H
  H101     1.0000 0.54164  0.93566  0.32286  Biso   1.000  H
  O52      1.0000 0.53679  0.80872  0.32336  Biso   1.000  O
  H102     1.0000 0.59999  0.93173  0.45985  Biso   1.000  H
  H103     1.0000 0.21365  0.86238  0.11238  Biso   1.000  H
  H104     1.0000 0.07575  0.02031  0.19289  Biso   1.000  H
  C62      1.0000 0.21854  0.04387  0.28380  Biso   1.000  C
  O53      1.0000 0.16597  0.03558  0.13861  Biso   1.000  O
  C63      1.0000 0.63359  0.82814  0.32637  Biso   1.000  C
  O54      1.0000 0.19402  0.06352  0.35216  Biso   1.000  O
  C64      1.0000 0.32173  0.10169  0.30590  Biso   1.000  C
  H105     1.0000 0.21499  0.97880  0.27115  Biso   1.000  H
  C65      1.0000 0.26264  0.08486  0.15138  Biso   1.000  C
  C66      1.0000 0.70292  0.81124  0.40519  Biso   1.000  C
  H106     1.0000 0.65839  0.89212  0.32618  Biso   1.000  H
  C67      1.0000 0.62513  0.76108  0.24999  Biso   1.000  C
  H107     1.0000 0.19013  0.01914  0.37126  Biso   1.000  H
  H108     1.0000 0.32646  0.16694  0.31848  Biso   1.000  H
  O55      1.0000 0.39407  0.08593  0.37689  Biso   1.000  O
  C68      1.0000 0.34456  0.07766  0.23240  Biso   1.000  C
  H109     1.0000 0.26794  0.15000  0.15658  Biso   1.000  H
  C69      1.0000 0.27287  0.04527  0.07406  Biso   1.000  C
  C70      1.0000 0.80243  0.82147  0.40507  Biso   1.000  C
  H110     1.0000 0.67427  0.74902  0.40744  Biso   1.000  H
  O56      1.0000 0.71757  0.88005  0.47807  Biso   1.000  O
  O57      1.0000 0.72405  0.77015  0.25506  Biso   1.000  O
  H111     1.0000 0.59106  0.69746  0.24561  Biso   1.000  H
  C71      1.0000 0.57034  0.78657  0.17110  Biso   1.000  C
  H112     1.0000 0.41422  0.12996  0.41809  Biso   1.000  H
  H113     1.0000 0.34862  0.01486  0.22407  Biso   1.000  H
  O58      1.0000 0.43851  0.14213  0.25205  Biso   1.000  O
  H114     1.0000 0.33496  0.08177  0.07707  Biso   1.000  H
  H115     1.0000 0.21806  0.04717  0.02448  Biso   1.000  H
  O59      1.0000 0.27173  0.95385  0.06912  Biso   1.000  O
  C72      1.0000 0.78848  0.75392  0.32775  Biso   1.000  C
  H116     1.0000 0.83024  0.88422  0.40369  Biso   1.000  H
  O60      1.0000 0.87111  0.80634  0.47894  Biso   1.000  O
  H117     1.0000 0.67178  0.86295  0.49015  Biso   1.000  H
  H118     1.0000 0.50123  0.77544  0.16046  Biso   1.000  H
  H119     1.0000 0.57085  0.74615  0.12427  Biso   1.000  H
  O61      1.0000 0.61153  0.87936  0.17430  Biso   1.000  O
  H120     1.0000 0.60925  0.84677  0.17386  Biso   1.000  H
  H121     1.0000 0.50655  0.79016  0.16710  Biso   1.000  H
  O62      1.0000 0.55298  0.71696  0.09460  Biso   1.000  O
  C73      1.0000 0.51357  0.10780  0.24198  Biso   1.000  C
  H122     1.0000 0.30803  0.94252  0.04827  Biso   1.000  H
  O63      1.0000 0.75145  0.66325  0.33050  Biso   1.000  O
  H123     1.0000 0.85372  0.76233  0.32775  Biso   1.000  H
  H124     1.0000 0.84367  0.75823  0.48545  Biso   1.000  H
  H125     1.0000 0.57844  0.88880  0.12997  Biso   1.000  H
  H126     1.0000 0.51015  0.66818  0.08427  Biso   1.000  H
  H127     1.0000 0.48878  0.04016  0.22576  Biso   1.000  H
  C74      1.0000 0.60417  0.14046  0.32299  Biso   1.000  C
  O64      1.0000 0.53331  0.13590  0.17849  Biso   1.000  O
  C75      1.0000 0.80464  0.59949  0.32418  Biso   1.000  C
  H128     1.0000 0.65308  0.11369  0.31529  Biso   1.000  H
  O65      1.0000 0.58551  0.10976  0.38685  Biso   1.000  O
  C76      1.0000 0.65053  0.24459  0.34960  Biso   1.000  C
  C77      1.0000 0.57555  0.23314  0.19596  Biso   1.000  C
  C78      1.0000 0.82134  0.55886  0.39699  Biso   1.000  C
  C79      1.0000 0.74505  0.52549  0.23891  Biso   1.000  C
  H129     1.0000 0.86961  0.63316  0.32875  Biso   1.000  H
  H130     1.0000 0.52513  0.08548  0.36907  Biso   1.000  H
  H131     1.0000 0.60332  0.27354  0.35767  Biso   1.000  H
  O66      1.0000 0.74102  0.27547  0.42466  Biso   1.000  O
  C80      1.0000 0.67107  0.27095  0.27860  Biso   1.000  C
  H132     1.0000 0.52724  0.26215  0.20191  Biso   1.000  H
  C81      1.0000 0.59056  0.25251  0.12571  Biso   1.000  C
  C82      1.0000 0.86754  0.48245  0.38685  Biso   1.000  C
  H133     1.0000 0.75693  0.53214  0.39668  Biso   1.000  H
  O67      1.0000 0.88459  0.62830  0.47274  Biso   1.000  O
  O68      1.0000 0.78836  0.45260  0.23709  Biso   1.000  O
  H134     1.0000 0.67618  0.49950  0.22989  Biso   1.000  H
  C83      1.0000 0.74385  0.56275  0.16847  Biso   1.000  C
  H135     1.0000 0.72948  0.26372  0.46304  Biso   1.000  H
  H136     1.0000 0.72237  0.24637  0.27328  Biso   1.000  H
  O69      1.0000 0.70675  0.37024  0.30139  Biso   1.000  O
  H137     1.0000 0.60596  0.31837  0.13198  Biso   1.000  H
  H138     1.0000 0.52930  0.22120  0.07456  Biso   1.000  H
  O70      1.0000 0.66738  0.22435  0.11908  Biso   1.000  O
  C84      1.0000 0.79974  0.41153  0.30189  Biso   1.000  C
  H139     1.0000 0.93231  0.51007  0.38835  Biso   1.000  H
  O71      1.0000 0.88306  0.44116  0.45309  Biso   1.000  O
  H140     1.0000 0.89317  0.60624  0.51225  Biso   1.000  H
  H141     1.0000 0.70705  0.60657  0.16309  Biso   1.000  H
  H142     1.0000 0.70945  0.51280  0.11701  Biso   1.000  H
  O72      1.0000 0.84119  0.60691  0.18031  Biso   1.000  O
  H143     1.0000 0.64439  0.17196  0.08721  Biso   1.000  H
  H144     1.0000 0.83033  0.36354  0.29538  Biso   1.000  H
  H145     1.0000 0.84881  0.38647  0.43399  Biso   1.000  H
  H146     1.0000 0.84196  0.65190  0.16190  Biso   1.000  H
