data_image0
_cell_length_a       17.566
_cell_length_b       17.269
_cell_length_c       20.337
_cell_angle_alpha    90
_cell_angle_beta     105.64
_cell_angle_gamma    90

_symmetry_space_group_name_H-M    "P 1"
_symmetry_int_tables_number       1

loop_
  _symmetry_equiv_pos_as_xyz
  'x, y, z'

loop_
  _atom_site_label
  _atom_site_occupancy
  _atom_site_fract_x
  _atom_site_fract_y
  _atom_site_fract_z
  _atom_site_thermal_displace_type
  _atom_site_B_iso_or_equiv
  _atom_site_type_symbol
  C1       1.0000 0.77718  0.56043  0.53513  Biso   1.000  C
  C2       1.0000 0.68909  0.54879  0.51899  Biso   1.000  C
  C3       1.0000 0.81583  0.56668  0.61137  Biso   1.000  C
  H1       1.0000 0.80035  0.51729  0.51690  Biso   1.000  H
  H2       1.0000 0.78785  0.60722  0.51277  Biso   1.000  H
  N1       1.0000 0.66904  0.47895  0.55035  Biso   1.000  N
  H3       1.0000 0.66726  0.54549  0.46987  Biso   1.000  H
  H4       1.0000 0.66547  0.59309  0.53508  Biso   1.000  H
  H5       1.0000 0.80374  0.52140  0.63480  Biso   1.000  H
  H6       1.0000 0.79654  0.61220  0.62980  Biso   1.000  H
  O1       1.0000 0.89768  0.57247  0.62025  Biso   1.000  O
  C4       1.0000 0.60565  0.47617  0.56904  Biso   1.000  C
  C5       1.0000 0.94686  0.57149  0.68535  Biso   1.000  C
  C6       1.0000 0.58045  0.40599  0.59702  Biso   1.000  C
  H7       1.0000 0.57435  0.52030  0.56470  Biso   1.000  H
  C7       1.0000 0.92033  0.57137  0.74408  Biso   1.000  C
  C8       1.0000 0.02735  0.57091  0.69118  Biso   1.000  C
  C9       1.0000 0.50742  0.40431  0.61254  Biso   1.000  C
  C10      1.0000 0.62714  0.33910  0.60687  Biso   1.000  C
  C11      1.0000 0.97252  0.57091  0.80877  Biso   1.000  C
  H8       1.0000 0.86622  0.57160  0.73979  Biso   1.000  H
  C12      1.0000 0.05804  0.56552  0.62862  Biso   1.000  C
  C13      1.0000 0.07954  0.57137  0.75587  Biso   1.000  C
  H9       1.0000 0.47544  0.44809  0.60600  Biso   1.000  H
  C14      1.0000 0.48356  0.33771  0.63751  Biso   1.000  C
  C15      1.0000 0.60004  0.27211  0.63240  Biso   1.000  C
  O2       1.0000 0.69634  0.33679  0.59166  Biso   1.000  O
  C16      1.0000 0.94183  0.56552  0.87132  Biso   1.000  C
  C17      1.0000 0.05303  0.57149  0.81464  Biso   1.000  C
  C18      1.0000 0.06656  0.48214  0.60830  Biso   1.000  C
  H10      1.0000 0.02204  0.59239  0.59099  Biso   1.000  H
  H11      1.0000 0.10903  0.59100  0.63787  Biso   1.000  H
  H12      1.0000 0.13365  0.57160  0.76016  Biso   1.000  H
  C19      1.0000 0.53025  0.27182  0.64701  Biso   1.000  C
  Cl1      1.0000 0.39192  0.33470  0.65487  Biso   1.000  Cl
  H13      1.0000 0.63096  0.22752  0.63919  Biso   1.000  H
  H14      1.0000 0.70837  0.38062  0.58241  Biso   1.000  H
  C20      1.0000 0.93332  0.48214  0.89165  Biso   1.000  C
  H15      1.0000 0.97784  0.59239  0.90901  Biso   1.000  H
  H16      1.0000 0.89084  0.59100  0.86208  Biso   1.000  H
  O3       1.0000 0.10221  0.57247  0.87975  Biso   1.000  O
  C21      1.0000 0.00125  0.44154  0.57016  Biso   1.000  C
  C22      1.0000 0.13825  0.44397  0.62934  Biso   1.000  C
  H17      1.0000 0.51286  0.22688  0.66370  Biso   1.000  H
  C23      1.0000 0.99862  0.44154  0.92979  Biso   1.000  C
  C24      1.0000 0.86162  0.44397  0.87061  Biso   1.000  C
  C25      1.0000 0.18404  0.56668  0.88858  Biso   1.000  C
  H18      1.0000 0.95257  0.46633  0.55591  Biso   1.000  H
  C26      1.0000 0.00767  0.36487  0.55316  Biso   1.000  C
  C27      1.0000 0.14346  0.36678  0.60937  Biso   1.000  C
  O4       1.0000 0.20154  0.48497  0.66999  Biso   1.000  O
  C28      1.0000 0.99222  0.36487  0.94684  Biso   1.000  C
  H19      1.0000 0.04732  0.46633  0.94409  Biso   1.000  H
  C29      1.0000 0.85641  0.36678  0.89057  Biso   1.000  C
  O5       1.0000 0.79833  0.48497  0.82996  Biso   1.000  O
  H20      1.0000 0.19615  0.52140  0.86520  Biso   1.000  H
  H21      1.0000 0.20335  0.61220  0.87020  Biso   1.000  H
  C30      1.0000 0.22271  0.56043  0.96487  Biso   1.000  C
  O6       1.0000 0.94459  0.32092  0.51721  Biso   1.000  O
  C31      1.0000 0.07986  0.32729  0.57195  Biso   1.000  C
  H22      1.0000 0.19224  0.34188  0.62229  Biso   1.000  H
  C32      1.0000 0.25705  0.44490  0.71870  Biso   1.000  C
  C33      1.0000 0.92001  0.32729  0.92800  Biso   1.000  C
  O7       1.0000 0.05530  0.32092  0.98279  Biso   1.000  O
  H23      1.0000 0.80765  0.34188  0.87771  Biso   1.000  H
  C34      1.0000 0.74283  0.44490  0.78130  Biso   1.000  C
  H24      1.0000 0.19953  0.51729  0.98310  Biso   1.000  H
  H25      1.0000 0.21202  0.60722  0.98718  Biso   1.000  H
  C35      1.0000 0.31080  0.54879  0.98100  Biso   1.000  C
  C36      1.0000 0.86894  0.35051  0.50848  Biso   1.000  C
  C37      1.0000 0.08625  0.24275  0.55249  Biso   1.000  C
  H26      1.0000 0.28973  0.41531  0.69700  Biso   1.000  H
  H27      1.0000 0.28935  0.48080  0.75031  Biso   1.000  H
  H28      1.0000 0.23093  0.41068  0.74280  Biso   1.000  H
  C38      1.0000 0.91362  0.24275  0.94746  Biso   1.000  C
  C39      1.0000 0.13093  0.35051  0.99147  Biso   1.000  C
  H29      1.0000 0.71016  0.41531  0.80300  Biso   1.000  H
  H30      1.0000 0.71054  0.48080  0.74969  Biso   1.000  H
  H31      1.0000 0.76896  0.41068  0.75720  Biso   1.000  H
  H32      1.0000 0.33440  0.59309  0.96487  Biso   1.000  H
  N2       1.0000 0.33085  0.47895  0.94965  Biso   1.000  N
  H33      1.0000 0.33266  0.54549  0.03007  Biso   1.000  H
  H34      1.0000 0.86177  0.39481  0.47912  Biso   1.000  H
  H35      1.0000 0.83066  0.31160  0.48851  Biso   1.000  H
  H36      1.0000 0.86217  0.36539  0.55208  Biso   1.000  H
  C40      1.0000 0.06372  0.18831  0.60177  Biso   1.000  C
  H37      1.0000 0.14016  0.23198  0.55137  Biso   1.000  H
  H38      1.0000 0.05193  0.23383  0.50710  Biso   1.000  H
  C41      1.0000 0.93615  0.18831  0.89818  Biso   1.000  C
  H39      1.0000 0.85972  0.23198  0.94858  Biso   1.000  H
  H40      1.0000 0.94790  0.23383  0.99290  Biso   1.000  H
  H41      1.0000 0.13770  0.36539  0.94786  Biso   1.000  H
  H42      1.0000 0.13818  0.39481  0.02088  Biso   1.000  H
  H43      1.0000 0.16929  0.31160  0.01149  Biso   1.000  H
  C42      1.0000 0.39424  0.47617  0.93096  Biso   1.000  C
  C43      1.0000 0.98855  0.15855  0.59038  Biso   1.000  C
  C44      1.0000 0.11888  0.16799  0.66212  Biso   1.000  C
  C45      1.0000 0.88101  0.16799  0.83788  Biso   1.000  C
  C46      1.0000 0.01132  0.15855  0.90957  Biso   1.000  C
  H44      1.0000 0.42554  0.52030  0.93530  Biso   1.000  H
  C47      1.0000 0.41942  0.40599  0.90293  Biso   1.000  C
  C48      1.0000 0.96726  0.11083  0.63725  Biso   1.000  C
  H45      1.0000 0.95095  0.17088  0.54999  Biso   1.000  H
  C49      1.0000 0.09853  0.11842  0.70854  Biso   1.000  C
  O8       1.0000 0.19351  0.19787  0.67141  Biso   1.000  O
  C50      1.0000 0.90136  0.11842  0.79146  Biso   1.000  C
  O9       1.0000 0.80638  0.19787  0.82858  Biso   1.000  O
  C51      1.0000 0.03263  0.11083  0.86274  Biso   1.000  C
  H46      1.0000 0.04892  0.17088  0.94996  Biso   1.000  H
  C52      1.0000 0.49245  0.40431  0.88741  Biso   1.000  C
  C53      1.0000 0.37273  0.33910  0.89308  Biso   1.000  C
  O10      1.0000 0.89206  0.08061  0.62740  Biso   1.000  O
  C54      1.0000 0.02265  0.08906  0.69689  Biso   1.000  C
  H47      1.0000 0.13674  0.10458  0.74816  Biso   1.000  H
  C55      1.0000 0.24255  0.20198  0.73897  Biso   1.000  C
  C56      1.0000 0.97724  0.08906  0.80310  Biso   1.000  C
  H48      1.0000 0.86313  0.10458  0.75179  Biso   1.000  H
  C57      1.0000 0.75733  0.20198  0.76098  Biso   1.000  C
  O11      1.0000 0.10783  0.08061  0.87260  Biso   1.000  O
  H49      1.0000 0.52445  0.44809  0.89399  Biso   1.000  H
  C58      1.0000 0.51633  0.33771  0.86249  Biso   1.000  C
  C59      1.0000 0.39985  0.27211  0.86760  Biso   1.000  C
  O12      1.0000 0.30355  0.33679  0.90834  Biso   1.000  O
  C60      1.0000 0.82848  0.12832  0.59681  Biso   1.000  C
  C61      1.0000 0.99994  0.03897  0.75000  Biso   1.000  C
  H50      1.0000 0.25336  0.15062  0.75720  Biso   1.000  H
  H51      1.0000 0.29125  0.22723  0.73907  Biso   1.000  H
  H52      1.0000 0.21613  0.23099  0.76670  Biso   1.000  H
  H53      1.0000 0.74653  0.15062  0.74280  Biso   1.000  H
  H54      1.0000 0.70862  0.22723  0.76088  Biso   1.000  H
  H55      1.0000 0.78376  0.23099  0.73330  Biso   1.000  H
  C62      1.0000 0.17140  0.12832  0.90319  Biso   1.000  C
  C63      1.0000 0.46964  0.27182  0.85299  Biso   1.000  C
  Cl2      1.0000 0.60797  0.33470  0.84513  Biso   1.000  Cl
  H56      1.0000 0.36892  0.22752  0.86080  Biso   1.000  H
  H57      1.0000 0.29152  0.38062  0.91759  Biso   1.000  H
  H58      1.0000 0.82343  0.13180  0.54871  Biso   1.000  H
  H59      1.0000 0.78077  0.10701  0.60391  Biso   1.000  H
  H60      1.0000 0.83713  0.17911  0.61668  Biso   1.000  H
  H61      1.0000 0.95572  0.00602  0.72779  Biso   1.000  H
  H62      1.0000 0.04415  0.00602  0.77216  Biso   1.000  H
  H63      1.0000 0.17640  0.13180  0.95129  Biso   1.000  H
  H64      1.0000 0.21912  0.10701  0.89609  Biso   1.000  H
  H65      1.0000 0.16274  0.17911  0.88327  Biso   1.000  H
  H66      1.0000 0.48703  0.22688  0.83629  Biso   1.000  H
  C64      1.0000 0.67144  0.37171  0.40319  Biso   1.000  C
  O13      1.0000 0.60787  0.41936  0.37260  Biso   1.000  O
  H67      1.0000 0.67644  0.36817  0.45129  Biso   1.000  H
  H68      1.0000 0.71915  0.39302  0.39609  Biso   1.000  H
  H69      1.0000 0.66278  0.32092  0.38327  Biso   1.000  H
  C65      1.0000 0.53267  0.38914  0.36274  Biso   1.000  C
  C66      1.0000 0.51136  0.34142  0.40957  Biso   1.000  C
  C67      1.0000 0.47728  0.41097  0.30310  Biso   1.000  C
  C68      1.0000 0.43619  0.31166  0.39818  Biso   1.000  C
  H70      1.0000 0.54897  0.32909  0.45001  Biso   1.000  H
  C69      1.0000 0.40140  0.38161  0.29146  Biso   1.000  C
  C70      1.0000 0.49998  0.46100  0.25000  Biso   1.000  C
  C71      1.0000 0.38105  0.33204  0.33788  Biso   1.000  C
  C72      1.0000 0.41366  0.25728  0.44746  Biso   1.000  C
  H71      1.0000 0.36317  0.39539  0.25179  Biso   1.000  H
  H72      1.0000 0.54420  0.49401  0.27221  Biso   1.000  H
  H73      1.0000 0.45576  0.49401  0.22779  Biso   1.000  H
  C73      1.0000 0.52269  0.41097  0.19690  Biso   1.000  C
  O14      1.0000 0.30642  0.30210  0.32858  Biso   1.000  O
  H74      1.0000 0.35975  0.26799  0.44858  Biso   1.000  H
  H75      1.0000 0.44794  0.26620  0.49290  Biso   1.000  H
  C74      1.0000 0.42005  0.17274  0.42800  Biso   1.000  C
  C75      1.0000 0.46730  0.38914  0.13725  Biso   1.000  C
  C76      1.0000 0.59856  0.38161  0.20854  Biso   1.000  C
  C77      1.0000 0.25736  0.29799  0.26098  Biso   1.000  C
  C78      1.0000 0.49225  0.13516  0.44684  Biso   1.000  C
  C79      1.0000 0.35645  0.13324  0.39057  Biso   1.000  C
  C80      1.0000 0.48859  0.34142  0.09038  Biso   1.000  C
  O15      1.0000 0.39209  0.41936  0.12740  Biso   1.000  O
  C81      1.0000 0.61892  0.33204  0.16212  Biso   1.000  C
  H76      1.0000 0.63679  0.39539  0.24821  Biso   1.000  H
  H77      1.0000 0.24657  0.34941  0.24280  Biso   1.000  H
  H78      1.0000 0.20866  0.27280  0.26088  Biso   1.000  H
  H79      1.0000 0.28379  0.26898  0.23330  Biso   1.000  H
  C82      1.0000 0.49866  0.05849  0.42979  Biso   1.000  C
  O16      1.0000 0.55533  0.17911  0.48279  Biso   1.000  O
  C83      1.0000 0.36168  0.05605  0.37066  Biso   1.000  C
  H80      1.0000 0.30769  0.15809  0.37771  Biso   1.000  H
  H81      1.0000 0.45099  0.32909  0.04999  Biso   1.000  H
  C84      1.0000 0.56377  0.31166  0.10182  Biso   1.000  C
  C85      1.0000 0.32852  0.37171  0.09681  Biso   1.000  C
  O17      1.0000 0.69355  0.30210  0.17142  Biso   1.000  O
  H82      1.0000 0.54735  0.03370  0.44409  Biso   1.000  H
  C86      1.0000 0.43337  0.01784  0.39170  Biso   1.000  C
  C87      1.0000 0.63097  0.14952  0.49147  Biso   1.000  C
  O18      1.0000 0.29837  0.01500  0.32996  Biso   1.000  O
  C88      1.0000 0.58631  0.25728  0.05254  Biso   1.000  C
  H83      1.0000 0.32353  0.36817  0.04871  Biso   1.000  H
  H84      1.0000 0.28081  0.39302  0.10391  Biso   1.000  H
  H85      1.0000 0.33717  0.32092  0.11668  Biso   1.000  H
  C89      1.0000 0.74258  0.29799  0.23897  Biso   1.000  C
  C90      1.0000 0.44188  0.93451  0.37137  Biso   1.000  C
  H86      1.0000 0.63816  0.10522  0.52088  Biso   1.000  H
  H87      1.0000 0.66927  0.18837  0.51149  Biso   1.000  H
  H88      1.0000 0.63775  0.13458  0.44792  Biso   1.000  H
  C91      1.0000 0.24287  0.05513  0.28130  Biso   1.000  C
  H89      1.0000 0.64021  0.26799  0.05142  Biso   1.000  H
  H90      1.0000 0.55197  0.26620  0.00710  Biso   1.000  H
  C92      1.0000 0.57991  0.17274  0.07200  Biso   1.000  C
  H91      1.0000 0.75340  0.34941  0.25720  Biso   1.000  H
  H92      1.0000 0.79129  0.27280  0.23907  Biso   1.000  H
  H93      1.0000 0.71617  0.26898  0.26670  Biso   1.000  H
  H94      1.0000 0.47788  0.90758  0.40901  Biso   1.000  H
  H95      1.0000 0.39088  0.90903  0.36208  Biso   1.000  H
  C93      1.0000 0.47257  0.92912  0.30882  Biso   1.000  C
  H96      1.0000 0.21019  0.08472  0.30300  Biso   1.000  H
  H97      1.0000 0.21058  0.01923  0.24969  Biso   1.000  H
  H98      1.0000 0.26899  0.08929  0.25720  Biso   1.000  H
  C94      1.0000 0.50771  0.13516  0.05316  Biso   1.000  C
  C95      1.0000 0.64351  0.13324  0.10943  Biso   1.000  C
  C96      1.0000 0.42037  0.92866  0.24408  Biso   1.000  C
  C97      1.0000 0.55306  0.92854  0.31464  Biso   1.000  C
  C98      1.0000 0.50131  0.05849  0.07021  Biso   1.000  C
  O19      1.0000 0.44463  0.17911  0.01721  Biso   1.000  O
  C99      1.0000 0.63829  0.05605  0.12934  Biso   1.000  C
  H99      1.0000 0.69227  0.15809  0.12229  Biso   1.000  H
  H100     1.0000 0.36626  0.92843  0.23979  Biso   1.000  H
  C100     1.0000 0.44690  0.92854  0.18536  Biso   1.000  C
  C101     1.0000 0.57958  0.92866  0.25587  Biso   1.000  C
  O20      1.0000 0.60225  0.92756  0.37975  Biso   1.000  O
  H101     1.0000 0.45261  0.03370  0.05591  Biso   1.000  H
  C102     1.0000 0.56659  0.01784  0.10830  Biso   1.000  C
  C103     1.0000 0.36898  0.14952  0.00848  Biso   1.000  C
  O21      1.0000 0.70158  0.01500  0.16999  Biso   1.000  O
  C104     1.0000 0.52739  0.92912  0.19118  Biso   1.000  C
  O22      1.0000 0.39772  0.92756  0.12025  Biso   1.000  O
  H102     1.0000 0.63371  0.92843  0.26021  Biso   1.000  H
  C105     1.0000 0.68408  0.93329  0.38858  Biso   1.000  C
  C106     1.0000 0.55808  0.93451  0.12863  Biso   1.000  C
  H103     1.0000 0.36221  0.13458  0.05208  Biso   1.000  H
  H104     1.0000 0.36173  0.10522  0.97906  Biso   1.000  H
  H105     1.0000 0.33062  0.18837  0.98846  Biso   1.000  H
  C107     1.0000 0.75709  0.05513  0.21870  Biso   1.000  C
  C108     1.0000 0.31587  0.93329  0.11137  Biso   1.000  C
  H106     1.0000 0.69619  0.97863  0.36520  Biso   1.000  H
  H107     1.0000 0.70339  0.88783  0.37020  Biso   1.000  H
  C109     1.0000 0.72274  0.93960  0.46487  Biso   1.000  C
  H108     1.0000 0.52208  0.90758  0.09099  Biso   1.000  H
  H109     1.0000 0.60908  0.90903  0.13792  Biso   1.000  H
  H110     1.0000 0.78977  0.08472  0.19700  Biso   1.000  H
  H111     1.0000 0.78939  0.01923  0.25031  Biso   1.000  H
  H112     1.0000 0.73097  0.08929  0.24280  Biso   1.000  H
  H113     1.0000 0.30377  0.97863  0.13480  Biso   1.000  H
  H114     1.0000 0.29658  0.88783  0.12980  Biso   1.000  H
  C110     1.0000 0.27722  0.93960  0.03513  Biso   1.000  C
  H115     1.0000 0.69957  0.98269  0.48310  Biso   1.000  H
  H116     1.0000 0.71206  0.89281  0.48718  Biso   1.000  H
  C111     1.0000 0.81084  0.95118  0.48100  Biso   1.000  C
  H117     1.0000 0.30039  0.98269  0.01690  Biso   1.000  H
  H118     1.0000 0.28790  0.89281  0.01282  Biso   1.000  H
  C112     1.0000 0.18912  0.95118  0.01900  Biso   1.000  C
  N3       1.0000 0.83088  0.02108  0.44965  Biso   1.000  N
  H119     1.0000 0.83264  0.95448  0.53008  Biso   1.000  H
  H120     1.0000 0.83444  0.90689  0.46487  Biso   1.000  H
  N4       1.0000 0.16908  0.02108  0.05035  Biso   1.000  N
  H121     1.0000 0.16724  0.95448  0.96987  Biso   1.000  H
  H122     1.0000 0.16551  0.90689  0.03508  Biso   1.000  H
  C113     1.0000 0.89428  0.02380  0.43096  Biso   1.000  C
  C114     1.0000 0.10569  0.02380  0.06904  Biso   1.000  C
  C115     1.0000 0.91947  0.09398  0.40298  Biso   1.000  C
  H123     1.0000 0.92557  0.97973  0.43530  Biso   1.000  H
  C116     1.0000 0.08049  0.09398  0.09702  Biso   1.000  C
  H124     1.0000 0.07439  0.97973  0.06470  Biso   1.000  H
  C117     1.0000 0.99249  0.09572  0.38741  Biso   1.000  C
  C118     1.0000 0.87277  0.16092  0.39308  Biso   1.000  C
  C119     1.0000 0.00748  0.09572  0.11259  Biso   1.000  C
  C120     1.0000 0.12717  0.16092  0.10687  Biso   1.000  C
  H125     1.0000 0.02449  0.05188  0.39399  Biso   1.000  H
  C121     1.0000 0.01636  0.16231  0.36249  Biso   1.000  C
  C122     1.0000 0.89989  0.22792  0.36760  Biso   1.000  C
  O23      1.0000 0.80359  0.16318  0.40834  Biso   1.000  O
  H126     1.0000 0.97547  0.05188  0.10600  Biso   1.000  H
  C123     1.0000 0.98360  0.16231  0.13751  Biso   1.000  C
  C124     1.0000 0.10008  0.22792  0.13240  Biso   1.000  C
  O24      1.0000 0.19638  0.16318  0.09166  Biso   1.000  O
  C125     1.0000 0.96968  0.22821  0.35299  Biso   1.000  C
  Cl3      1.0000 0.10801  0.16527  0.34513  Biso   1.000  Cl
  H127     1.0000 0.86896  0.27251  0.36080  Biso   1.000  H
  H128     1.0000 0.79156  0.11940  0.41759  Biso   1.000  H
  C126     1.0000 0.03029  0.22821  0.14701  Biso   1.000  C
  Cl4      1.0000 0.89196  0.16527  0.15487  Biso   1.000  Cl
  H129     1.0000 0.13100  0.27251  0.13920  Biso   1.000  H
  H130     1.0000 0.20841  0.11940  0.08241  Biso   1.000  H
  H131     1.0000 0.98707  0.27309  0.33629  Biso   1.000  H
  H132     1.0000 0.01290  0.27309  0.16370  Biso   1.000  H
  O25      1.0000 0.79837  0.51503  0.32996  Biso   1.000  O
  C127     1.0000 0.86168  0.55603  0.37066  Biso   1.000  C
  C128     1.0000 0.74287  0.55510  0.28130  Biso   1.000  C
  C129     1.0000 0.93337  0.51786  0.39170  Biso   1.000  C
  C130     1.0000 0.85645  0.63322  0.39057  Biso   1.000  C
  H133     1.0000 0.71019  0.58469  0.30300  Biso   1.000  H
  H134     1.0000 0.71058  0.51920  0.24969  Biso   1.000  H
  H135     1.0000 0.76899  0.58932  0.25720  Biso   1.000  H
  C131     1.0000 0.94188  0.43448  0.37137  Biso   1.000  C
  C132     1.0000 0.99866  0.55846  0.42979  Biso   1.000  C
  C133     1.0000 0.92005  0.67271  0.42800  Biso   1.000  C
  H136     1.0000 0.80769  0.65812  0.37771  Biso   1.000  H
  C134     1.0000 0.97257  0.42909  0.30882  Biso   1.000  C
  H137     1.0000 0.97788  0.40761  0.40901  Biso   1.000  H
  H138     1.0000 0.89088  0.40900  0.36208  Biso   1.000  H
  C135     1.0000 0.99225  0.63513  0.44684  Biso   1.000  C
  H139     1.0000 0.04735  0.53373  0.44409  Biso   1.000  H
  C136     1.0000 0.91366  0.75731  0.44746  Biso   1.000  C
  C137     1.0000 0.92037  0.42863  0.24408  Biso   1.000  C
  C138     1.0000 0.05306  0.42851  0.31464  Biso   1.000  C
  O26      1.0000 0.05533  0.67908  0.48279  Biso   1.000  O
  C139     1.0000 0.93619  0.81169  0.39818  Biso   1.000  C
  H140     1.0000 0.85975  0.76802  0.44858  Biso   1.000  H
  H141     1.0000 0.94794  0.76623  0.49290  Biso   1.000  H
  C140     1.0000 0.94690  0.42851  0.18536  Biso   1.000  C
  H142     1.0000 0.86626  0.42840  0.23979  Biso   1.000  H
  C141     1.0000 0.07958  0.42863  0.25587  Biso   1.000  C
  O27      1.0000 0.10225  0.42753  0.37975  Biso   1.000  O
  C142     1.0000 0.13097  0.64949  0.49147  Biso   1.000  C
  C143     1.0000 0.88105  0.83201  0.33788  Biso   1.000  C
  C144     1.0000 0.01136  0.84145  0.40957  Biso   1.000  C
  O28      1.0000 0.89772  0.42753  0.12025  Biso   1.000  O
  C145     1.0000 0.02739  0.42909  0.19118  Biso   1.000  C
  H143     1.0000 0.13371  0.42840  0.26021  Biso   1.000  H
  C146     1.0000 0.18408  0.43332  0.38858  Biso   1.000  C
  H144     1.0000 0.13816  0.60519  0.52088  Biso   1.000  H
  H145     1.0000 0.16927  0.68840  0.51149  Biso   1.000  H
  H146     1.0000 0.13775  0.63461  0.44792  Biso   1.000  H
  C147     1.0000 0.90140  0.88158  0.29146  Biso   1.000  C
  O29      1.0000 0.80642  0.80213  0.32858  Biso   1.000  O
  C148     1.0000 0.03267  0.88917  0.36274  Biso   1.000  C
  H147     1.0000 0.04897  0.82912  0.45001  Biso   1.000  H
  C149     1.0000 0.81587  0.43332  0.11137  Biso   1.000  C
  C150     1.0000 0.05808  0.43448  0.12863  Biso   1.000  C
  H148     1.0000 0.19619  0.47860  0.36520  Biso   1.000  H
  H149     1.0000 0.20339  0.38780  0.37020  Biso   1.000  H
  C151     1.0000 0.22274  0.43957  0.46487  Biso   1.000  C
  C152     1.0000 0.97728  0.91094  0.30310  Biso   1.000  C
  H150     1.0000 0.86317  0.89542  0.25179  Biso   1.000  H
  C153     1.0000 0.75736  0.79802  0.26098  Biso   1.000  C
  O30      1.0000 0.10787  0.91939  0.37260  Biso   1.000  O
  C154     1.0000 0.77722  0.43957  0.03513  Biso   1.000  C
  H151     1.0000 0.80377  0.47860  0.13480  Biso   1.000  H
  H152     1.0000 0.79658  0.38780  0.12980  Biso   1.000  H
  C155     1.0000 0.06659  0.51786  0.10830  Biso   1.000  C
  H153     1.0000 0.02208  0.40761  0.09099  Biso   1.000  H
  H154     1.0000 0.10908  0.40900  0.13792  Biso   1.000  H
  H155     1.0000 0.19957  0.48271  0.48310  Biso   1.000  H
  H156     1.0000 0.21206  0.39278  0.48718  Biso   1.000  H
  C156     1.0000 0.31084  0.45121  0.48100  Biso   1.000  C
  C157     1.0000 0.99998  0.96103  0.25000  Biso   1.000  C
  H157     1.0000 0.74657  0.84938  0.24280  Biso   1.000  H
  H158     1.0000 0.70866  0.77283  0.26088  Biso   1.000  H
  H159     1.0000 0.78379  0.76901  0.23330  Biso   1.000  H
  C158     1.0000 0.17144  0.87168  0.40319  Biso   1.000  C
  C159     1.0000 0.68912  0.45121  0.01900  Biso   1.000  C
  H160     1.0000 0.80039  0.48271  0.01690  Biso   1.000  H
  H161     1.0000 0.78790  0.39278  0.01282  Biso   1.000  H
  C160     1.0000 0.00131  0.55846  0.07021  Biso   1.000  C
  C161     1.0000 0.13829  0.55603  0.12934  Biso   1.000  C
  H162     1.0000 0.33264  0.45451  0.53008  Biso   1.000  H
  H163     1.0000 0.33444  0.40691  0.46487  Biso   1.000  H
  N5       1.0000 0.33088  0.52105  0.44965  Biso   1.000  N
  C162     1.0000 0.02269  0.91094  0.19690  Biso   1.000  C
  H164     1.0000 0.95576  0.99398  0.22779  Biso   1.000  H
  H165     1.0000 0.04420  0.99398  0.27221  Biso   1.000  H
  H166     1.0000 0.17644  0.86820  0.45129  Biso   1.000  H
  H167     1.0000 0.21915  0.89299  0.39609  Biso   1.000  H
  H168     1.0000 0.16278  0.82089  0.38327  Biso   1.000  H
  N6       1.0000 0.66908  0.52105  0.05035  Biso   1.000  N
  H169     1.0000 0.66551  0.40691  0.03508  Biso   1.000  H
  H170     1.0000 0.66724  0.45451  0.96987  Biso   1.000  H
  H171     1.0000 0.95261  0.53373  0.05591  Biso   1.000  H
  C163     1.0000 0.00771  0.63513  0.05316  Biso   1.000  C
  C164     1.0000 0.14351  0.63322  0.10943  Biso   1.000  C
  O31      1.0000 0.20158  0.51503  0.16999  Biso   1.000  O
  C165     1.0000 0.39428  0.52383  0.43096  Biso   1.000  C
  C166     1.0000 0.96730  0.88917  0.13725  Biso   1.000  C
  C167     1.0000 0.09856  0.88158  0.20854  Biso   1.000  C
  C168     1.0000 0.60569  0.52383  0.06904  Biso   1.000  C
  O32      1.0000 0.94463  0.67908  0.01721  Biso   1.000  O
  C169     1.0000 0.07991  0.67271  0.07200  Biso   1.000  C
  H172     1.0000 0.19227  0.65812  0.12229  Biso   1.000  H
  C170     1.0000 0.25709  0.55510  0.21870  Biso   1.000  C
  H173     1.0000 0.42557  0.47970  0.43530  Biso   1.000  H
  C171     1.0000 0.41947  0.59401  0.40298  Biso   1.000  C
  C172     1.0000 0.98859  0.84145  0.09038  Biso   1.000  C
  O33      1.0000 0.89209  0.91939  0.12740  Biso   1.000  O
  C173     1.0000 0.11892  0.83201  0.16212  Biso   1.000  C
  H174     1.0000 0.13679  0.89542  0.24821  Biso   1.000  H
  C174     1.0000 0.58049  0.59401  0.09702  Biso   1.000  C
  H175     1.0000 0.57439  0.47970  0.06470  Biso   1.000  H
  C175     1.0000 0.86898  0.64949  0.00848  Biso   1.000  C
  C176     1.0000 0.08631  0.75731  0.05254  Biso   1.000  C
  H176     1.0000 0.28977  0.58469  0.19700  Biso   1.000  H
  H177     1.0000 0.28939  0.51920  0.25031  Biso   1.000  H
  H178     1.0000 0.23097  0.58932  0.24280  Biso   1.000  H
  C177     1.0000 0.49249  0.59569  0.38741  Biso   1.000  C
  C178     1.0000 0.37277  0.66090  0.39308  Biso   1.000  C
  C179     1.0000 0.06377  0.81169  0.10182  Biso   1.000  C
  H179     1.0000 0.95099  0.82912  0.04999  Biso   1.000  H
  C180     1.0000 0.82852  0.87168  0.09681  Biso   1.000  C
  O34      1.0000 0.19355  0.80213  0.17142  Biso   1.000  O
  C181     1.0000 0.50748  0.59569  0.11259  Biso   1.000  C
  C182     1.0000 0.62717  0.66090  0.10687  Biso   1.000  C
  H180     1.0000 0.86221  0.63461  0.05208  Biso   1.000  H
  H181     1.0000 0.86173  0.60519  0.97906  Biso   1.000  H
  H182     1.0000 0.83062  0.68840  0.98846  Biso   1.000  H
  H183     1.0000 0.14021  0.76802  0.05142  Biso   1.000  H
  H184     1.0000 0.05197  0.76623  0.00710  Biso   1.000  H
  H185     1.0000 0.52449  0.55191  0.39399  Biso   1.000  H
  C183     1.0000 0.51636  0.66229  0.36249  Biso   1.000  C
  C184     1.0000 0.39989  0.72789  0.36760  Biso   1.000  C
  O35      1.0000 0.30359  0.66321  0.40834  Biso   1.000  O
  H186     1.0000 0.82353  0.86820  0.04871  Biso   1.000  H
  H187     1.0000 0.78081  0.89299  0.10391  Biso   1.000  H
  H188     1.0000 0.83717  0.82089  0.11668  Biso   1.000  H
  C185     1.0000 0.24258  0.79802  0.23897  Biso   1.000  C
  H189     1.0000 0.47547  0.55191  0.10600  Biso   1.000  H
  C186     1.0000 0.48360  0.66229  0.13751  Biso   1.000  C
  C187     1.0000 0.60008  0.72789  0.13240  Biso   1.000  C
  O36      1.0000 0.69638  0.66321  0.09166  Biso   1.000  O
  C188     1.0000 0.46968  0.72818  0.35299  Biso   1.000  C
  Cl5      1.0000 0.60801  0.66530  0.34513  Biso   1.000  Cl
  H190     1.0000 0.36896  0.77248  0.36080  Biso   1.000  H
  H191     1.0000 0.29156  0.61938  0.41759  Biso   1.000  H
  H192     1.0000 0.25340  0.84938  0.25720  Biso   1.000  H
  H193     1.0000 0.29129  0.77283  0.23907  Biso   1.000  H
  H194     1.0000 0.21617  0.76901  0.26670  Biso   1.000  H
  C189     1.0000 0.53029  0.72818  0.14701  Biso   1.000  C
  Cl6      1.0000 0.39196  0.66530  0.15487  Biso   1.000  Cl
  H195     1.0000 0.63100  0.77248  0.13920  Biso   1.000  H
  H196     1.0000 0.70841  0.61938  0.08241  Biso   1.000  H
  H197     1.0000 0.48707  0.77312  0.33629  Biso   1.000  H
  H198     1.0000 0.51290  0.77312  0.16370  Biso   1.000  H
  O37      1.0000 0.69351  0.69790  0.67141  Biso   1.000  O
  C190     1.0000 0.61888  0.66796  0.66212  Biso   1.000  C
  C191     1.0000 0.74255  0.70201  0.73897  Biso   1.000  C
  C192     1.0000 0.59853  0.61839  0.70854  Biso   1.000  C
  C193     1.0000 0.56372  0.68834  0.60177  Biso   1.000  C
  H199     1.0000 0.75336  0.65059  0.75720  Biso   1.000  H
  H200     1.0000 0.79125  0.72720  0.73907  Biso   1.000  H
  H201     1.0000 0.71613  0.73102  0.76670  Biso   1.000  H
  C194     1.0000 0.52265  0.58903  0.69689  Biso   1.000  C
  H202     1.0000 0.63674  0.60461  0.74816  Biso   1.000  H
  C195     1.0000 0.48855  0.65858  0.59038  Biso   1.000  C
  C196     1.0000 0.58625  0.74272  0.55249  Biso   1.000  C
  C197     1.0000 0.46726  0.61086  0.63725  Biso   1.000  C
  C198     1.0000 0.49994  0.53900  0.75000  Biso   1.000  C
  H203     1.0000 0.45095  0.67091  0.54999  Biso   1.000  H
  H204     1.0000 0.64016  0.73201  0.55137  Biso   1.000  H
  H205     1.0000 0.55193  0.73380  0.50710  Biso   1.000  H
  C199     1.0000 0.57986  0.82732  0.57195  Biso   1.000  C
  O38      1.0000 0.39206  0.58064  0.62740  Biso   1.000  O
  H206     1.0000 0.45572  0.50599  0.72779  Biso   1.000  H
  H207     1.0000 0.54415  0.50599  0.77216  Biso   1.000  H
  C200     1.0000 0.47724  0.58903  0.80310  Biso   1.000  C
  C201     1.0000 0.50767  0.86484  0.55316  Biso   1.000  C
  C202     1.0000 0.64346  0.86681  0.60937  Biso   1.000  C
  C203     1.0000 0.32848  0.62829  0.59681  Biso   1.000  C
  C204     1.0000 0.53263  0.61086  0.86274  Biso   1.000  C
  C205     1.0000 0.40136  0.61839  0.79146  Biso   1.000  C
  C206     1.0000 0.50125  0.94157  0.57016  Biso   1.000  C
  O39      1.0000 0.44459  0.82095  0.51721  Biso   1.000  O
  C207     1.0000 0.63825  0.94395  0.62934  Biso   1.000  C
  H208     1.0000 0.69224  0.84191  0.62229  Biso   1.000  H
  H209     1.0000 0.32343  0.63183  0.54871  Biso   1.000  H
  H210     1.0000 0.28077  0.60698  0.60391  Biso   1.000  H
  H211     1.0000 0.33713  0.67908  0.61668  Biso   1.000  H
  C208     1.0000 0.51132  0.65858  0.90957  Biso   1.000  C
  O40      1.0000 0.60783  0.58064  0.87260  Biso   1.000  O
  C209     1.0000 0.38101  0.66796  0.83788  Biso   1.000  C
  H212     1.0000 0.36313  0.60461  0.75179  Biso   1.000  H
  H213     1.0000 0.45257  0.96630  0.55591  Biso   1.000  H
  C210     1.0000 0.56656  0.98216  0.60830  Biso   1.000  C
  C211     1.0000 0.36894  0.85048  0.50848  Biso   1.000  C
  O41      1.0000 0.70154  0.98500  0.66999  Biso   1.000  O
  H214     1.0000 0.54892  0.67091  0.94996  Biso   1.000  H
  C212     1.0000 0.43615  0.68834  0.89818  Biso   1.000  C
  C213     1.0000 0.67140  0.62829  0.90319  Biso   1.000  C
  O42      1.0000 0.30638  0.69790  0.82858  Biso   1.000  O
  C214     1.0000 0.55804  0.06549  0.62862  Biso   1.000  C
  H215     1.0000 0.36177  0.89478  0.47912  Biso   1.000  H
  H216     1.0000 0.33066  0.81163  0.48851  Biso   1.000  H
  H217     1.0000 0.36217  0.86542  0.55208  Biso   1.000  H
  C215     1.0000 0.75705  0.94493  0.71870  Biso   1.000  C
  C216     1.0000 0.41362  0.74272  0.94746  Biso   1.000  C
  H218     1.0000 0.67640  0.63183  0.95129  Biso   1.000  H
  H219     1.0000 0.71912  0.60698  0.89609  Biso   1.000  H
  H220     1.0000 0.66274  0.67908  0.88327  Biso   1.000  H
  C217     1.0000 0.25733  0.70201  0.76098  Biso   1.000  C
  H221     1.0000 0.52204  0.09242  0.59099  Biso   1.000  H
  H222     1.0000 0.60903  0.09097  0.63787  Biso   1.000  H
  C218     1.0000 0.52735  0.07088  0.69118  Biso   1.000  C
  H223     1.0000 0.78973  0.91528  0.69700  Biso   1.000  H
  H224     1.0000 0.78935  0.98083  0.75031  Biso   1.000  H
  H225     1.0000 0.73093  0.91071  0.74280  Biso   1.000  H
  H226     1.0000 0.35972  0.73201  0.94858  Biso   1.000  H
  H227     1.0000 0.44790  0.73380  0.99290  Biso   1.000  H
  C219     1.0000 0.42001  0.82732  0.92800  Biso   1.000  C
  H228     1.0000 0.24653  0.65059  0.74280  Biso   1.000  H
  H229     1.0000 0.20862  0.72720  0.76088  Biso   1.000  H
  H230     1.0000 0.28376  0.73102  0.73330  Biso   1.000  H
  C220     1.0000 0.57954  0.07134  0.75587  Biso   1.000  C
  C221     1.0000 0.44686  0.07146  0.68535  Biso   1.000  C
  C222     1.0000 0.49222  0.86484  0.94684  Biso   1.000  C
  C223     1.0000 0.35641  0.86681  0.89057  Biso   1.000  C
  H231     1.0000 0.63365  0.07157  0.76016  Biso   1.000  H
  C224     1.0000 0.55303  0.07146  0.81464  Biso   1.000  C
  C225     1.0000 0.42033  0.07134  0.74408  Biso   1.000  C
  O43      1.0000 0.39768  0.07244  0.62025  Biso   1.000  O
  C226     1.0000 0.49862  0.94157  0.92979  Biso   1.000  C
  O44      1.0000 0.55530  0.82095  0.98279  Biso   1.000  O
  C227     1.0000 0.36162  0.94395  0.87061  Biso   1.000  C
  H232     1.0000 0.30765  0.84191  0.87771  Biso   1.000  H
  C228     1.0000 0.47252  0.07088  0.80877  Biso   1.000  C
  O45      1.0000 0.60221  0.07244  0.87975  Biso   1.000  O
  H233     1.0000 0.36622  0.07157  0.73979  Biso   1.000  H
  C229     1.0000 0.31583  0.06671  0.61137  Biso   1.000  C
  H234     1.0000 0.54732  0.96630  0.94409  Biso   1.000  H
  C230     1.0000 0.43332  0.98216  0.89165  Biso   1.000  C
  C231     1.0000 0.63093  0.85048  0.99147  Biso   1.000  C
  O46      1.0000 0.29833  0.98500  0.82996  Biso   1.000  O
  C232     1.0000 0.44183  0.06549  0.87132  Biso   1.000  C
  C233     1.0000 0.68404  0.06671  0.88858  Biso   1.000  C
  H235     1.0000 0.30374  0.02143  0.63480  Biso   1.000  H
  H236     1.0000 0.29654  0.11222  0.62980  Biso   1.000  H
  C234     1.0000 0.27718  0.06040  0.53513  Biso   1.000  C
  H237     1.0000 0.63770  0.86542  0.94786  Biso   1.000  H
  H238     1.0000 0.63818  0.89478  0.02088  Biso   1.000  H
  H239     1.0000 0.66929  0.81163  0.01149  Biso   1.000  H
  C235     1.0000 0.24283  0.94493  0.78130  Biso   1.000  C
  H240     1.0000 0.47784  0.09242  0.90901  Biso   1.000  H
  H241     1.0000 0.39084  0.09097  0.86208  Biso   1.000  H
  H242     1.0000 0.69615  0.02143  0.86520  Biso   1.000  H
  H243     1.0000 0.70335  0.11222  0.87020  Biso   1.000  H
  C236     1.0000 0.72271  0.06040  0.96487  Biso   1.000  C
  H244     1.0000 0.30035  0.01731  0.51690  Biso   1.000  H
  H245     1.0000 0.28785  0.10719  0.51277  Biso   1.000  H
  C237     1.0000 0.18909  0.04882  0.51899  Biso   1.000  C
  H246     1.0000 0.21016  0.91528  0.80300  Biso   1.000  H
  H247     1.0000 0.21054  0.98083  0.74969  Biso   1.000  H
  H248     1.0000 0.26896  0.91071  0.75720  Biso   1.000  H
  H249     1.0000 0.69953  0.01731  0.98310  Biso   1.000  H
  H250     1.0000 0.71202  0.10719  0.98718  Biso   1.000  H
  C238     1.0000 0.81080  0.04882  0.98100  Biso   1.000  C
  N7       1.0000 0.16904  0.97892  0.55035  Biso   1.000  N
  H251     1.0000 0.16726  0.04552  0.46987  Biso   1.000  H
  H252     1.0000 0.16547  0.09311  0.53508  Biso   1.000  H
  N8       1.0000 0.83085  0.97892  0.94965  Biso   1.000  N
  H253     1.0000 0.83440  0.09311  0.96487  Biso   1.000  H
  H254     1.0000 0.83266  0.04552  0.03007  Biso   1.000  H
  C239     1.0000 0.10565  0.97620  0.56904  Biso   1.000  C
  C240     1.0000 0.89424  0.97620  0.93096  Biso   1.000  C
  C241     1.0000 0.08045  0.90602  0.59702  Biso   1.000  C
  H255     1.0000 0.07435  0.02033  0.56470  Biso   1.000  H
  C242     1.0000 0.91942  0.90602  0.90293  Biso   1.000  C
  H256     1.0000 0.92554  0.02033  0.93530  Biso   1.000  H
  C243     1.0000 0.00742  0.90428  0.61254  Biso   1.000  C
  C244     1.0000 0.12714  0.83913  0.60687  Biso   1.000  C
  C245     1.0000 0.99245  0.90428  0.88741  Biso   1.000  C
  C246     1.0000 0.87273  0.83913  0.89308  Biso   1.000  C
  H257     1.0000 0.97544  0.94812  0.60600  Biso   1.000  H
  C247     1.0000 0.98356  0.83769  0.63751  Biso   1.000  C
  C248     1.0000 0.10004  0.77208  0.63240  Biso   1.000  C
  O47      1.0000 0.19634  0.83682  0.59166  Biso   1.000  O
  H258     1.0000 0.02445  0.94812  0.89399  Biso   1.000  H
  C249     1.0000 0.01633  0.83769  0.86249  Biso   1.000  C
  C250     1.0000 0.89985  0.77208  0.86760  Biso   1.000  C
  O48      1.0000 0.80355  0.83682  0.90834  Biso   1.000  O
  C251     1.0000 0.03025  0.77179  0.64701  Biso   1.000  C
  Cl7      1.0000 0.89192  0.83473  0.65487  Biso   1.000  Cl
  H259     1.0000 0.13096  0.72749  0.63919  Biso   1.000  H
  H260     1.0000 0.20837  0.88060  0.58241  Biso   1.000  H
  C252     1.0000 0.96964  0.77179  0.85299  Biso   1.000  C
  Cl8      1.0000 0.10797  0.83473  0.84513  Biso   1.000  Cl
  H261     1.0000 0.86892  0.72749  0.86080  Biso   1.000  H
  H262     1.0000 0.79152  0.88060  0.91759  Biso   1.000  H
  H263     1.0000 0.01286  0.72691  0.66370  Biso   1.000  H
  H264     1.0000 0.98703  0.72691  0.83629  Biso   1.000  H
  Ne1      1.0000 0.49998  0.14829  0.25000  Biso   1.000  Ne
  He1      1.0000 0.69938  0.22927  0.42592  Biso   1.000  He
  He2      1.0000 0.70794  0.98530  0.28945  Biso   1.000  He
  He3      1.0000 0.27628  0.24294  0.04444  Biso   1.000  He
  Ar1      1.0000 0.49989  0.17608  0.24991  Biso   1.000  Ar
  Ne2      1.0000 0.99994  0.35171  0.74999  Biso   1.000  Ne
  He4      1.0000 0.18048  0.28517  0.90197  Biso   1.000  He
  He5      1.0000 0.21754  0.25043  0.85274  Biso   1.000  He
  He6      1.0000 0.80456  0.13990  0.69220  Biso   1.000  He
  He7      1.0000 0.80193  0.27186  0.57577  Biso   1.000  He
  Ar2      1.0000 0.00243  0.32541  0.75061  Biso   1.000  Ar
  Ne3      1.0000 0.99998  0.64829  0.25000  Biso   1.000  Ne
  He8      1.0000 0.19937  0.72925  0.42593  Biso   1.000  He
  He9      1.0000 0.20794  0.48527  0.28945  Biso   1.000  He
  He10     1.0000 0.77628  0.74294  0.04444  Biso   1.000  He
  Ar3      1.0000 0.99999  0.67595  0.25000  Biso   1.000  Ar
  Ne4      1.0000 0.49994  0.85171  0.74999  Biso   1.000  Ne
  He11     1.0000 0.68049  0.78515  0.90197  Biso   1.000  He
  He12     1.0000 0.71756  0.75043  0.85276  Biso   1.000  He
  He13     1.0000 0.30453  0.63990  0.69219  Biso   1.000  He
  He14     1.0000 0.30192  0.77185  0.57578  Biso   1.000  He
  Ar4      1.0000 0.50242  0.82538  0.75062  Biso   1.000  Ar
