data_image0
_cell_length_a       20.789
_cell_length_b       10.208
_cell_length_c       15.109
_cell_angle_alpha    90
_cell_angle_beta     110.83
_cell_angle_gamma    90

_symmetry_space_group_name_H-M    "P 1"
_symmetry_int_tables_number       1

loop_
  _symmetry_equiv_pos_as_xyz
  'x, y, z'

loop_
  _atom_site_label
  _atom_site_occupancy
  _atom_site_fract_x
  _atom_site_fract_y
  _atom_site_fract_z
  _atom_site_thermal_displace_type
  _atom_site_B_iso_or_equiv
  _atom_site_type_symbol
  O1       1.0000 0.41585  0.56132  0.52098  Biso   1.000  O
  C1       1.0000 0.36535  0.52547  0.43522  Biso   1.000  C
  C2       1.0000 0.40523  0.51038  0.60461  Biso   1.000  C
  C3       1.0000 0.35790  0.37716  0.42092  Biso   1.000  C
  O2       1.0000 0.29928  0.57445  0.43140  Biso   1.000  O
  H1       1.0000 0.37872  0.56867  0.37730  Biso   1.000  H
  C4       1.0000 0.40799  0.36158  0.60150  Biso   1.000  C
  H2       1.0000 0.35325  0.53752  0.60114  Biso   1.000  H
  C5       1.0000 0.45554  0.57621  0.69207  Biso   1.000  C
  O3       1.0000 0.30000  0.34581  0.33849  Biso   1.000  O
  C6       1.0000 0.35194  0.31103  0.51099  Biso   1.000  C
  H3       1.0000 0.40437  0.33944  0.41086  Biso   1.000  H
  C7       1.0000 0.26681  0.67173  0.35860  Biso   1.000  C
  H4       1.0000 0.45921  0.33013  0.60426  Biso   1.000  H
  O4       1.0000 0.39215  0.30515  0.67776  Biso   1.000  O
  H5       1.0000 0.44815  0.68250  0.68059  Biso   1.000  H
  H6       1.0000 0.44023  0.54683  0.75176  Biso   1.000  H
  O5       1.0000 0.52345  0.55457  0.71919  Biso   1.000  O
  H7       1.0000 0.30484  0.38705  0.28481  Biso   1.000  H
  H8       1.0000 0.30152  0.33533  0.51489  Biso   1.000  H
  O6       1.0000 0.35628  0.17075  0.50228  Biso   1.000  O
  C8       1.0000 0.28045  0.81123  0.40300  Biso   1.000  C
  H9       1.0000 0.28680  0.66556  0.30046  Biso   1.000  H
  C9       1.0000 0.19097  0.63666  0.32369  Biso   1.000  C
  C10      1.0000 0.44714  0.24922  0.75318  Biso   1.000  C
  H10      1.0000 0.54668  0.60355  0.77485  Biso   1.000  H
  H11      1.0000 0.32117  0.14214  0.44592  Biso   1.000  H
  O7       1.0000 0.23775  0.90361  0.33552  Biso   1.000  O
  H12      1.0000 0.26737  0.81142  0.46744  Biso   1.000  H
  C11      1.0000 0.35261  0.85639  0.42743  Biso   1.000  C
  H13      1.0000 0.17196  0.63088  0.38282  Biso   1.000  H
  O8       1.0000 0.18262  0.51166  0.27518  Biso   1.000  O
  C12      1.0000 0.15265  0.74402  0.25302  Biso   1.000  C
  H14      1.0000 0.49299  0.24295  0.73328  Biso   1.000  H
  O9       1.0000 0.46252  0.32602  0.83483  Biso   1.000  O
  C13      1.0000 0.42522  0.11080  0.77074  Biso   1.000  C
  C14      1.0000 0.16770  0.87608  0.30103  Biso   1.000  C
  H15      1.0000 0.35821  0.95601  0.45711  Biso   1.000  H
  H16      1.0000 0.38753  0.78928  0.47970  Biso   1.000  H
  O10      1.0000 0.36867  0.85668  0.34196  Biso   1.000  O
  H17      1.0000 0.13551  0.48736  0.25259  Biso   1.000  H
  H18      1.0000 0.17080  0.74402  0.19297  Biso   1.000  H
  O11      1.0000 0.07919  0.71659  0.21782  Biso   1.000  O
  C15      1.0000 0.40587  0.34669  0.86896  Biso   1.000  C
  C16      1.0000 0.36571  0.11912  0.80792  Biso   1.000  C
  H19      1.0000 0.46905  0.06270  0.82491  Biso   1.000  H
  O12      1.0000 0.40662  0.03497  0.68612  Biso   1.000  O
  O13      1.0000 0.14111  0.87275  0.37701  Biso   1.000  O
  H20      1.0000 0.14112  0.95298  0.25012  Biso   1.000  H
  H21      1.0000 0.41473  0.88529  0.35620  Biso   1.000  H
  H22      1.0000 0.05560  0.78292  0.17420  Biso   1.000  H
  H23      1.0000 0.36197  0.39322  0.81394  Biso   1.000  H
  C17      1.0000 0.43242  0.43730  0.95344  Biso   1.000  C
  C18      1.0000 0.38427  0.21140  0.89275  Biso   1.000  C
  H24      1.0000 0.31986  0.15703  0.75148  Biso   1.000  H
  O14      1.0000 0.35105  0.99030  0.83532  Biso   1.000  O
  H25      1.0000 0.44432  0.03145  0.66466  Biso   1.000  H
  C19      1.0000 0.10272  0.98393  0.38983  Biso   1.000  C
  H26      1.0000 0.39110  0.45053  0.98212  Biso   1.000  H
  O15      1.0000 0.45315  0.55927  0.93652  Biso   1.000  O
  H27      1.0000 0.47647  0.38901  0.00662  Biso   1.000  H
  H28      1.0000 0.42586  0.16918  0.95337  Biso   1.000  H
  O16      1.0000 0.32185  0.22590  0.91407  Biso   1.000  O
  H29      1.0000 0.33954  0.93299  0.78243  Biso   1.000  H
  C20      1.0000 0.03012  0.93515  0.37100  Biso   1.000  C
  C21      1.0000 0.13641  0.03321  0.49117  Biso   1.000  C
  H30      1.0000 0.10218  0.06289  0.33991  Biso   1.000  H
  H31      1.0000 0.46878  0.60805  0.99381  Biso   1.000  H
  C22      1.0000 0.32550  0.18368  0.00507  Biso   1.000  C
  H32      1.0000 0.03245  0.84698  0.41405  Biso   1.000  H
  O17      1.0000 0.99700  0.90125  0.27278  Biso   1.000  O
  C23      1.0000 0.98999  0.04095  0.39960  Biso   1.000  C
  H33      1.0000 0.14644  0.94926  0.54003  Biso   1.000  H
  O18      1.0000 0.09266  0.12647  0.51319  Biso   1.000  O
  C24      1.0000 0.20368  0.10521  0.50391  Biso   1.000  C
  C25      1.0000 0.26012  0.10756  0.99366  Biso   1.000  C
  O19      1.0000 0.33203  0.29105  0.06568  Biso   1.000  O
  H34      1.0000 0.37030  0.11902  0.03544  Biso   1.000  H
  H35      1.0000 0.95172  0.87098  0.26230  Biso   1.000  H
  O20      1.0000 0.92133  0.99285  0.38594  Biso   1.000  O
  H36      1.0000 0.98565  0.12774  0.35450  Biso   1.000  H
  C26      1.0000 0.02738  0.07955  0.50129  Biso   1.000  C
  H37      1.0000 0.22628  0.14097  0.57721  Biso   1.000  H
  H38      1.0000 0.23980  0.03762  0.48897  Biso   1.000  H
  O21      1.0000 0.19004  0.21405  0.43976  Biso   1.000  O
  C27      1.0000 0.19804  0.19622  0.95521  Biso   1.000  C
  O22      1.0000 0.25437  0.99794  0.93085  Biso   1.000  O
  H39      1.0000 0.26283  0.07014  0.06313  Biso   1.000  H
  C28      1.0000 0.27659  0.38538  0.03339  Biso   1.000  C
  H40      1.0000 0.89623  0.05907  0.40385  Biso   1.000  H
  O23      1.0000 0.03235  0.96532  0.55865  Biso   1.000  O
  H41      1.0000 0.99828  0.15654  0.52176  Biso   1.000  H
  H42      1.0000 0.23184  0.25872  0.44776  Biso   1.000  H
  H43      1.0000 0.19267  0.22678  0.88305  Biso   1.000  H
  O24      1.0000 0.13586  0.12911  0.95153  Biso   1.000  O
  C29      1.0000 0.20825  0.31642  0.01703  Biso   1.000  C
  H44      1.0000 0.29359  0.94318  0.95585  Biso   1.000  H
  H45      1.0000 0.27521  0.43045  0.96661  Biso   1.000  H
  C30      1.0000 0.29288  0.49118  0.11093  Biso   1.000  C
  C31      1.0000 0.00300  0.97032  0.63067  Biso   1.000  C
  H46      1.0000 0.12940  0.05349  0.91258  Biso   1.000  H
  O25      1.0000 0.15305  0.40674  0.96725  Biso   1.000  O
  H47      1.0000 0.20519  0.28879  0.08579  Biso   1.000  H
  O26      1.0000 0.29816  0.43162  0.19704  Biso   1.000  O
  H48      1.0000 0.34452  0.53135  0.12425  Biso   1.000  H
  H49      1.0000 0.25477  0.57063  0.08799  Biso   1.000  H
  C32      1.0000 0.05901  0.97110  0.72733  Biso   1.000  C
  C33      1.0000 0.95970  0.84816  0.61984  Biso   1.000  C
  H50      1.0000 0.97103  0.05878  0.62217  Biso   1.000  H
  C34      1.0000 0.11361  0.45925  0.01788  Biso   1.000  C
  H51      1.0000 0.30028  0.49608  0.24548  Biso   1.000  H
  O27      1.0000 0.02672  0.96846  0.79949  Biso   1.000  O
  H52      1.0000 0.09154  0.88382  0.73392  Biso   1.000  H
  C35      1.0000 0.10478  0.09610  0.74751  Biso   1.000  C
  H53      1.0000 0.99235  0.76136  0.62536  Biso   1.000  H
  O28      1.0000 0.90399  0.84571  0.52990  Biso   1.000  O
  C36      1.0000 0.92991  0.84444  0.69794  Biso   1.000  C
  C37      1.0000 0.03840  0.44387  0.95564  Biso   1.000  C
  H54      1.0000 0.12419  0.40488  0.08452  Biso   1.000  H
  O29      1.0000 0.12933  0.59365  0.03835  Biso   1.000  O
  C38      1.0000 0.98780  0.85521  0.79333  Biso   1.000  C
  H55      1.0000 0.13688  0.09826  0.82314  Biso   1.000  H
  H56      1.0000 0.13790  0.09228  0.70481  Biso   1.000  H
  O30      1.0000 0.06505  0.21150  0.72485  Biso   1.000  O
  H57      1.0000 0.87782  0.76793  0.52523  Biso   1.000  H
  H58      1.0000 0.89579  0.92976  0.68916  Biso   1.000  H
  O31      1.0000 0.89016  0.72855  0.69433  Biso   1.000  O
  C39      1.0000 0.02128  0.52625  0.86613  Biso   1.000  C
  H59      1.0000 0.00651  0.47943  0.99508  Biso   1.000  H
  O32      1.0000 0.02401  0.30692  0.93567  Biso   1.000  O
  C40      1.0000 0.11845  0.67614  0.95528  Biso   1.000  C
  O33      1.0000 0.02821  0.74040  0.80806  Biso   1.000  O
  H60      1.0000 0.96507  0.86070  0.84871  Biso   1.000  H
  H61      1.0000 0.09460  0.28576  0.73810  Biso   1.000  H
  H62      1.0000 0.87265  0.73041  0.74440  Biso   1.000  H
  C41      1.0000 0.04155  0.66791  0.89502  Biso   1.000  C
  H63      1.0000 0.04996  0.48981  0.82244  Biso   1.000  H
  O34      1.0000 0.94831  0.51803  0.81309  Biso   1.000  O
  H64      1.0000 0.03545  0.25970  0.99352  Biso   1.000  H
  H65      1.0000 0.14873  0.64048  0.91350  Biso   1.000  H
  C42      1.0000 0.14277  0.81270  0.99260  Biso   1.000  C
  H66      1.0000 0.01092  0.70748  0.93510  Biso   1.000  H
  H67      1.0000 0.93619  0.42937  0.79538  Biso   1.000  H
  H68      1.0000 0.14224  0.87529  0.93305  Biso   1.000  H
  H69      1.0000 0.19545  0.80574  0.04401  Biso   1.000  H
  O35      1.0000 0.09978  0.87206  0.03828  Biso   1.000  O
  H70      1.0000 0.11686  0.95699  0.06044  Biso   1.000  H
  C43      1.0000 0.64743  0.35629  0.57260  Biso   1.000  C
  C44      1.0000 0.71964  0.31123  0.59703  Biso   1.000  C
  H71      1.0000 0.64183  0.45601  0.54293  Biso   1.000  H
  H72      1.0000 0.61257  0.28928  0.52034  Biso   1.000  H
  O36      1.0000 0.63137  0.35668  0.65808  Biso   1.000  O
  C45      1.0000 0.73324  0.17173  0.64143  Biso   1.000  C
  O37      1.0000 0.76234  0.40361  0.66452  Biso   1.000  O
  H73      1.0000 0.73267  0.31132  0.53259  Biso   1.000  H
  H74      1.0000 0.58537  0.38529  0.64384  Biso   1.000  H
  O38      1.0000 0.70081  0.07435  0.56864  Biso   1.000  O
  H75      1.0000 0.71324  0.16556  0.69957  Biso   1.000  H
  C46      1.0000 0.80907  0.13666  0.67635  Biso   1.000  C
  C47      1.0000 0.83239  0.37608  0.69901  Biso   1.000  C
  C48      1.0000 0.63469  0.02547  0.56481  Biso   1.000  C
  H76      1.0000 0.82809  0.13088  0.61722  Biso   1.000  H
  O39      1.0000 0.81747  0.01166  0.72485  Biso   1.000  O
  C49      1.0000 0.84744  0.24402  0.74702  Biso   1.000  C
  O40      1.0000 0.85898  0.37275  0.62302  Biso   1.000  O
  H77      1.0000 0.85892  0.45298  0.74992  Biso   1.000  H
  O41      1.0000 0.58424  0.06132  0.47906  Biso   1.000  O
  H78      1.0000 0.62133  0.06867  0.62274  Biso   1.000  H
  C50      1.0000 0.64214  0.87716  0.57912  Biso   1.000  C
  H79      1.0000 0.86458  0.98746  0.74744  Biso   1.000  H
  H80      1.0000 0.82929  0.24402  0.80707  Biso   1.000  H
  O42      1.0000 0.92085  0.21650  0.78221  Biso   1.000  O
  C51      1.0000 0.89732  0.48393  0.61021  Biso   1.000  C
  C52      1.0000 0.59486  0.01038  0.39543  Biso   1.000  C
  C53      1.0000 0.64815  0.81103  0.48904  Biso   1.000  C
  H81      1.0000 0.59572  0.83944  0.58917  Biso   1.000  H
  O43      1.0000 0.70005  0.84581  0.66155  Biso   1.000  O
  H82      1.0000 0.94444  0.28292  0.82583  Biso   1.000  H
  C54      1.0000 0.86363  0.53321  0.50887  Biso   1.000  C
  H83      1.0000 0.89791  0.56289  0.66013  Biso   1.000  H
  C55      1.0000 0.96992  0.43515  0.62904  Biso   1.000  C
  C56      1.0000 0.54450  0.07621  0.30797  Biso   1.000  C
  H84      1.0000 0.64684  0.03742  0.39890  Biso   1.000  H
  C57      1.0000 0.59210  0.86158  0.39854  Biso   1.000  C
  H85      1.0000 0.69852  0.83533  0.48515  Biso   1.000  H
  O44      1.0000 0.64377  0.67085  0.49775  Biso   1.000  O
  H86      1.0000 0.69523  0.88705  0.71529  Biso   1.000  H
  O45      1.0000 0.90739  0.62647  0.48685  Biso   1.000  O
  H87      1.0000 0.85360  0.44926  0.46001  Biso   1.000  H
  C58      1.0000 0.79641  0.60521  0.49612  Biso   1.000  C
  H88      1.0000 0.96760  0.34688  0.58599  Biso   1.000  H
  O46      1.0000 0.00305  0.40116  0.72726  Biso   1.000  O
  C59      1.0000 0.01010  0.54095  0.60043  Biso   1.000  C
  O47      1.0000 0.47659  0.05457  0.28085  Biso   1.000  O
  H89      1.0000 0.55189  0.18250  0.31944  Biso   1.000  H
  H90      1.0000 0.55986  0.04683  0.24827  Biso   1.000  H
  H91      1.0000 0.54088  0.83023  0.39578  Biso   1.000  H
  O48      1.0000 0.60796  0.80515  0.32235  Biso   1.000  O
  H92      1.0000 0.67887  0.64224  0.55412  Biso   1.000  H
  C60      1.0000 0.97271  0.57955  0.49874  Biso   1.000  C
  H93      1.0000 0.77376  0.64107  0.42283  Biso   1.000  H
  H94      1.0000 0.76025  0.53762  0.51107  Biso   1.000  H
  O49      1.0000 0.81001  0.71405  0.56028  Biso   1.000  O
  H95      1.0000 0.04838  0.37098  0.73774  Biso   1.000  H
  H96      1.0000 0.01445  0.62774  0.64554  Biso   1.000  H
  O50      1.0000 0.07871  0.49285  0.61410  Biso   1.000  O
  H97      1.0000 0.45341  0.10355  0.22519  Biso   1.000  H
  C61      1.0000 0.55290  0.74922  0.24686  Biso   1.000  C
  O51      1.0000 0.96774  0.46532  0.44138  Biso   1.000  O
  H98      1.0000 0.00176  0.65654  0.47828  Biso   1.000  H
  H99      1.0000 0.76825  0.75872  0.55228  Biso   1.000  H
  H100     1.0000 0.10386  0.55907  0.59618  Biso   1.000  H
  H101     1.0000 0.50706  0.74295  0.26676  Biso   1.000  H
  O52      1.0000 0.53757  0.82602  0.16521  Biso   1.000  O
  C62      1.0000 0.57482  0.61089  0.22930  Biso   1.000  C
  C63      1.0000 0.99704  0.47032  0.36937  Biso   1.000  C
  C64      1.0000 0.59422  0.84669  0.13108  Biso   1.000  C
  C65      1.0000 0.63434  0.61912  0.19212  Biso   1.000  C
  H102     1.0000 0.53100  0.56270  0.17512  Biso   1.000  H
  O53      1.0000 0.59342  0.53497  0.31392  Biso   1.000  O
  C66      1.0000 0.94103  0.47110  0.27271  Biso   1.000  C
  H103     1.0000 0.02906  0.55878  0.37786  Biso   1.000  H
  C67      1.0000 0.04039  0.34816  0.38020  Biso   1.000  C
  H104     1.0000 0.63807  0.89322  0.18610  Biso   1.000  H
  C68      1.0000 0.56767  0.93730  0.04660  Biso   1.000  C
  C69      1.0000 0.61583  0.71150  0.10728  Biso   1.000  C
  H105     1.0000 0.68019  0.65703  0.24856  Biso   1.000  H
  O54      1.0000 0.64900  0.49030  0.16471  Biso   1.000  O
  H106     1.0000 0.55572  0.53145  0.33538  Biso   1.000  H
  O55      1.0000 0.97333  0.46846  0.20055  Biso   1.000  O
  H107     1.0000 0.90855  0.38382  0.26612  Biso   1.000  H
  C70      1.0000 0.89532  0.59610  0.25252  Biso   1.000  C
  H108     1.0000 0.00770  0.26136  0.37468  Biso   1.000  H
  O56      1.0000 0.09606  0.34571  0.47014  Biso   1.000  O
  C71      1.0000 0.07014  0.34444  0.30209  Biso   1.000  C
  O57      1.0000 0.54694  0.05927  0.06352  Biso   1.000  O
  H109     1.0000 0.52358  0.88901  0.99341  Biso   1.000  H
  H110     1.0000 0.60899  0.95063  0.01792  Biso   1.000  H
  H111     1.0000 0.57418  0.66918  0.04667  Biso   1.000  H
  O58      1.0000 0.67819  0.72590  0.08597  Biso   1.000  O
  H112     1.0000 0.66050  0.43299  0.21761  Biso   1.000  H
  C72      1.0000 0.01225  0.35521  0.20671  Biso   1.000  C
  H113     1.0000 0.86322  0.59826  0.17689  Biso   1.000  H
  H114     1.0000 0.86219  0.59228  0.29522  Biso   1.000  H
  O59      1.0000 0.93504  0.71160  0.27518  Biso   1.000  O
  H115     1.0000 0.12228  0.26793  0.47481  Biso   1.000  H
  H116     1.0000 0.10425  0.42976  0.31087  Biso   1.000  H
  O60      1.0000 0.10989  0.22855  0.30570  Biso   1.000  O
  H117     1.0000 0.53127  0.10805  0.00623  Biso   1.000  H
  C73      1.0000 0.67454  0.68378  0.99497  Biso   1.000  C
  O61      1.0000 0.97183  0.24040  0.19198  Biso   1.000  O
  H118     1.0000 0.03497  0.36070  0.15133  Biso   1.000  H
  H119     1.0000 0.90549  0.78585  0.26194  Biso   1.000  H
  H120     1.0000 0.12745  0.23041  0.25564  Biso   1.000  H
  O62      1.0000 0.66801  0.79114  0.93436  Biso   1.000  O
  H121     1.0000 0.62974  0.61912  0.96459  Biso   1.000  H
  C74      1.0000 0.73992  0.60756  0.00637  Biso   1.000  C
  C75      1.0000 0.95852  0.16791  0.10509  Biso   1.000  C
  C76      1.0000 0.72345  0.88538  0.96665  Biso   1.000  C
  H122     1.0000 0.73722  0.57014  0.93690  Biso   1.000  H
  O63      1.0000 0.74574  0.49794  0.06926  Biso   1.000  O
  C77      1.0000 0.80200  0.69622  0.04483  Biso   1.000  C
  C78      1.0000 0.97876  0.02625  0.13391  Biso   1.000  C
  C79      1.0000 0.88159  0.17614  0.04475  Biso   1.000  C
  H123     1.0000 0.98917  0.20748  0.06494  Biso   1.000  H
  C80      1.0000 0.70716  0.99118  0.88911  Biso   1.000  C
  C81      1.0000 0.79185  0.81652  0.98300  Biso   1.000  C
  H124     1.0000 0.72483  0.93045  0.03342  Biso   1.000  H
  H125     1.0000 0.70645  0.44318  0.04419  Biso   1.000  H
  H126     1.0000 0.80738  0.72678  0.11698  Biso   1.000  H
  O64      1.0000 0.86424  0.62911  0.04851  Biso   1.000  O
  C82      1.0000 0.96169  0.94397  0.04440  Biso   1.000  C
  H127     1.0000 0.95008  0.98981  0.17760  Biso   1.000  H
  O65      1.0000 0.05173  0.01803  0.18695  Biso   1.000  O
  O66      1.0000 0.87076  0.09355  0.96169  Biso   1.000  O
  H128     1.0000 0.85131  0.14038  0.08653  Biso   1.000  H
  C83      1.0000 0.85733  0.31260  0.00744  Biso   1.000  C
  O67      1.0000 0.70189  0.93162  0.80300  Biso   1.000  O
  H129     1.0000 0.65552  0.03135  0.87579  Biso   1.000  H
  H130     1.0000 0.74532  0.07063  0.91205  Biso   1.000  H
  H131     1.0000 0.79490  0.78879  0.91424  Biso   1.000  H
  O68      1.0000 0.84699  0.90684  0.03279  Biso   1.000  O
  H132     1.0000 0.87065  0.55349  0.08746  Biso   1.000  H
  C84      1.0000 0.88648  0.95925  0.98215  Biso   1.000  C
  H133     1.0000 0.99358  0.97943  0.00496  Biso   1.000  H
  O69      1.0000 0.97604  0.80692  0.06437  Biso   1.000  O
  H134     1.0000 0.06391  0.92937  0.20465  Biso   1.000  H
  H135     1.0000 0.85785  0.37520  0.06699  Biso   1.000  H
  H136     1.0000 0.80461  0.30574  0.95610  Biso   1.000  H
  O70      1.0000 0.90031  0.37196  0.96176  Biso   1.000  O
  H137     1.0000 0.69981  0.99618  0.75456  Biso   1.000  H
  H138     1.0000 0.87585  0.90488  0.91552  Biso   1.000  H
  H139     1.0000 0.96460  0.75970  0.00651  Biso   1.000  H
  H140     1.0000 0.88323  0.45699  0.93960  Biso   1.000  H
  Ne1      1.0000 0.20217  0.60367  0.68340  Biso   1.000  Ne
  He1      1.0000 0.23654  0.67136  0.72174  Biso   1.000  He
  He2      1.0000 0.00000  0.00000  0.00000  Biso   1.000  He
  Ar1      1.0000 0.02492  0.33561  0.48962  Biso   1.000  Ar
  Ne2      1.0000 0.79789  0.10367  0.31664  Biso   1.000  Ne
  He3      1.0000 0.83671  0.00788  0.35739  Biso   1.000  He
  He4      1.0000 0.76411  0.17028  0.27886  Biso   1.000  He
  Ar2      1.0000 0.83106  0.04473  0.34661  Biso   1.000  Ar
