data_image0
_cell_length_a       13.601
_cell_length_b       33.041
_cell_length_c       17.132
_cell_angle_alpha    90
_cell_angle_beta     90.94
_cell_angle_gamma    90

_symmetry_space_group_name_H-M    "P 1"
_symmetry_int_tables_number       1

loop_
  _symmetry_equiv_pos_as_xyz
  'x, y, z'

loop_
  _atom_site_label
  _atom_site_occupancy
  _atom_site_fract_x
  _atom_site_fract_y
  _atom_site_fract_z
  _atom_site_thermal_displace_type
  _atom_site_B_iso_or_equiv
  _atom_site_type_symbol
  C1       1.0000 0.54097  0.53842  0.43673  Biso   1.000  C
  N1       1.0000 0.44227  0.54393  0.42803  Biso   1.000  N
  O1       1.0000 0.59019  0.51342  0.40258  Biso   1.000  O
  N2       1.0000 0.57454  0.56530  0.49230  Biso   1.000  N
  C2       1.0000 0.38216  0.52165  0.37269  Biso   1.000  C
  C3       1.0000 0.40637  0.57607  0.47712  Biso   1.000  C
  C4       1.0000 0.49456  0.58667  0.52838  Biso   1.000  C
  C5       1.0000 0.67194  0.56200  0.52669  Biso   1.000  C
  N3       1.0000 0.36850  0.54115  0.29872  Biso   1.000  N
  H1       1.0000 0.41264  0.49490  0.36410  Biso   1.000  H
  H2       1.0000 0.31691  0.51699  0.39580  Biso   1.000  H
  N4       1.0000 0.38179  0.61321  0.43679  Biso   1.000  N
  H3       1.0000 0.35028  0.56651  0.50917  Biso   1.000  H
  N5       1.0000 0.50076  0.63046  0.52231  Biso   1.000  N
  H4       1.0000 0.48526  0.57780  0.58361  Biso   1.000  H
  N6       1.0000 0.73409  0.59632  0.50987  Biso   1.000  N
  H5       1.0000 0.70366  0.53709  0.50713  Biso   1.000  H
  H6       1.0000 0.66614  0.55931  0.58402  Biso   1.000  H
  C6       1.0000 0.40381  0.52338  0.23188  Biso   1.000  C
  C7       1.0000 0.28736  0.56878  0.28261  Biso   1.000  C
  C8       1.0000 0.29425  0.62096  0.39178  Biso   1.000  C
  C9       1.0000 0.43453  0.64547  0.46989  Biso   1.000  C
  C10      1.0000 0.56097  0.65673  0.57181  Biso   1.000  C
  C11      1.0000 0.82267  0.59063  0.47368  Biso   1.000  C
  C12      1.0000 0.73670  0.63161  0.56142  Biso   1.000  C
  O2       1.0000 0.46130  0.49593  0.22820  Biso   1.000  O
  N7       1.0000 0.35759  0.54305  0.16947  Biso   1.000  N
  C13      1.0000 0.28855  0.57374  0.19422  Biso   1.000  C
  N8       1.0000 0.30029  0.60945  0.31063  Biso   1.000  N
  H7       1.0000 0.22346  0.55710  0.30001  Biso   1.000  H
  H8       1.0000 0.27909  0.65019  0.39469  Biso   1.000  H
  H9       1.0000 0.23894  0.60610  0.41548  Biso   1.000  H
  O3       1.0000 0.42000  0.68143  0.45342  Biso   1.000  O
  N9       1.0000 0.66020  0.66133  0.54560  Biso   1.000  N
  H10      1.0000 0.52977  0.68370  0.57409  Biso   1.000  H
  H11      1.0000 0.56259  0.64550  0.62541  Biso   1.000  H
  O4       1.0000 0.84638  0.56103  0.43632  Biso   1.000  O
  N10      1.0000 0.87877  0.62413  0.48810  Biso   1.000  N
  C14      1.0000 0.83064  0.65346  0.53550  Biso   1.000  C
  H12      1.0000 0.73999  0.62371  0.61782  Biso   1.000  H
  C15      1.0000 0.37411  0.53067  0.08979  Biso   1.000  C
  N11      1.0000 0.32432  0.61578  0.18512  Biso   1.000  N
  H13      1.0000 0.22188  0.56981  0.16988  Biso   1.000  H
  C16      1.0000 0.32619  0.63566  0.25441  Biso   1.000  C
  C17      1.0000 0.69387  0.69399  0.50649  Biso   1.000  C
  C18      1.0000 0.98134  0.62652  0.46691  Biso   1.000  C
  N12      1.0000 0.79159  0.68845  0.49259  Biso   1.000  N
  H14      1.0000 0.87268  0.66190  0.58110  Biso   1.000  H
  N13      1.0000 0.43248  0.55943  0.04682  Biso   1.000  N
  H15      1.0000 0.30980  0.52719  0.06270  Biso   1.000  H
  H16      1.0000 0.40786  0.50410  0.09008  Biso   1.000  H
  C19      1.0000 0.31182  0.63739  0.11051  Biso   1.000  C
  O5       1.0000 0.34562  0.67192  0.26241  Biso   1.000  O
  O6       1.0000 0.64360  0.72319  0.48600  Biso   1.000  O
  N14      1.0000 0.99590  0.65228  0.39919  Biso   1.000  N
  H17      1.0000 0.00596  0.59901  0.45541  Biso   1.000  H
  H18      1.0000 0.02013  0.63730  0.51163  Biso   1.000  H
  C20      1.0000 0.85507  0.72325  0.47590  Biso   1.000  C
  C21      1.0000 0.52990  0.55265  0.02919  Biso   1.000  C
  C22      1.0000 0.39417  0.59444  0.00771  Biso   1.000  C
  N15      1.0000 0.39042  0.63043  0.05739  Biso   1.000  N
  H19      1.0000 0.24910  0.62870  0.08541  Biso   1.000  H
  H20      1.0000 0.30711  0.66681  0.12108  Biso   1.000  H
  C23      1.0000 0.03575  0.63809  0.33182  Biso   1.000  C
  C24      1.0000 0.00389  0.69656  0.40549  Biso   1.000  C
  N16      1.0000 0.91018  0.71768  0.40701  Biso   1.000  N
  H21      1.0000 0.81385  0.74780  0.47012  Biso   1.000  H
  H22      1.0000 0.90099  0.72761  0.52062  Biso   1.000  H
  O7       1.0000 0.58151  0.52523  0.05371  Biso   1.000  O
  N17      1.0000 0.55773  0.58188  0.97741  Biso   1.000  N
  H23      1.0000 0.32930  0.58881  0.98138  Biso   1.000  H
  C25      1.0000 0.47260  0.60546  0.94950  Biso   1.000  C
  C26      1.0000 0.43654  0.66230  0.02271  Biso   1.000  C
  O8       1.0000 0.04717  0.60243  0.31513  Biso   1.000  O
  N18      1.0000 0.06115  0.67017  0.28710  Biso   1.000  N
  C27      1.0000 0.04661  0.70882  0.32698  Biso   1.000  C
  H24      1.0000 0.04775  0.70482  0.45010  Biso   1.000  H
  C28      1.0000 0.89489  0.73975  0.33929  Biso   1.000  C
  C29      1.0000 0.64429  0.57749  0.93251  Biso   1.000  C
  N19      1.0000 0.48372  0.64844  0.95756  Biso   1.000  N
  H25      1.0000 0.45265  0.59780  0.89498  Biso   1.000  H
  O9       1.0000 0.43533  0.69798  0.04612  Biso   1.000  O
  C30      1.0000 0.11188  0.66581  0.21571  Biso   1.000  C
  N20      1.0000 0.97079  0.73400  0.29072  Biso   1.000  N
  H26      1.0000 0.10991  0.72392  0.33392  Biso   1.000  H
  O10      1.0000 0.82489  0.76251  0.32849  Biso   1.000  O
  N21      1.0000 0.71195  0.61224  0.94040  Biso   1.000  N
  H27      1.0000 0.62520  0.57432  0.87676  Biso   1.000  H
  H28      1.0000 0.67912  0.55262  0.94921  Biso   1.000  H
  C31      1.0000 0.52932  0.67416  0.90146  Biso   1.000  C
  N22      1.0000 0.05472  0.67528  0.14670  Biso   1.000  N
  H29      1.0000 0.13532  0.63751  0.21162  Biso   1.000  H
  H30      1.0000 0.17051  0.68351  0.21728  Biso   1.000  H
  C32      1.0000 0.98802  0.76000  0.22452  Biso   1.000  C
  C33      1.0000 0.80753  0.60588  0.96521  Biso   1.000  C
  C34      1.0000 0.70506  0.64707  0.88791  Biso   1.000  C
  N23      1.0000 0.63640  0.67761  0.91010  Biso   1.000  N
  H31      1.0000 0.50044  0.70161  0.90560  Biso   1.000  H
  H32      1.0000 0.51360  0.66381  0.84857  Biso   1.000  H
  C35      1.0000 0.02681  0.64602  0.09469  Biso   1.000  C
  C36      1.0000 0.04521  0.71505  0.11331  Biso   1.000  C
  N24      1.0000 0.97253  0.74090  0.15067  Biso   1.000  N
  H33      1.0000 0.94390  0.78369  0.22767  Biso   1.000  H
  H34      1.0000 0.05646  0.77001  0.22762  Biso   1.000  H
  O11      1.0000 0.83672  0.57731  0.00450  Biso   1.000  O
  N25      1.0000 0.86339  0.63727  0.93958  Biso   1.000  N
  H35      1.0000 0.69494  0.63860  0.83228  Biso   1.000  H
  C37      1.0000 0.80576  0.66829  0.90099  Biso   1.000  C
  C38      1.0000 0.68123  0.70921  0.94810  Biso   1.000  C
  N26      1.0000 0.98505  0.66366  0.03059  Biso   1.000  N
  O12      1.0000 0.03908  0.60921  0.10502  Biso   1.000  O
  C39      1.0000 0.99939  0.70718  0.03100  Biso   1.000  C
  H36      1.0000 0.11050  0.72879  0.10993  Biso   1.000  H
  C40      1.0000 0.89503  0.75043  0.10082  Biso   1.000  C
  C41      1.0000 0.96702  0.64175  0.95896  Biso   1.000  C
  N27      1.0000 0.78016  0.70213  0.94979  Biso   1.000  N
  H37      1.0000 0.83553  0.67710  0.85079  Biso   1.000  H
  O13      1.0000 0.63954  0.73820  0.97659  Biso   1.000  O
  N28      1.0000 0.90892  0.73003  0.03269  Biso   1.000  N
  H38      1.0000 0.04343  0.71629  0.98821  Biso   1.000  H
  O14      1.0000 0.82763  0.77256  0.11617  Biso   1.000  O
  H39      1.0000 0.99712  0.61451  0.96357  Biso   1.000  H
  H40      1.0000 0.99973  0.65609  0.91576  Biso   1.000  H
  C42      1.0000 0.84611  0.73590  0.96439  Biso   1.000  C
  H41      1.0000 0.88795  0.73990  0.91827  Biso   1.000  H
  H42      1.0000 0.80685  0.76081  0.97151  Biso   1.000  H
  C43      1.0000 0.45896  0.46158  0.56329  Biso   1.000  C
  N29      1.0000 0.42539  0.43473  0.50771  Biso   1.000  N
  N30      1.0000 0.55766  0.45607  0.57199  Biso   1.000  N
  O15      1.0000 0.40974  0.48658  0.59738  Biso   1.000  O
  C44      1.0000 0.50537  0.41337  0.47158  Biso   1.000  C
  C45      1.0000 0.32799  0.43800  0.47333  Biso   1.000  C
  C46      1.0000 0.59356  0.42396  0.52289  Biso   1.000  C
  C47      1.0000 0.61777  0.47835  0.62733  Biso   1.000  C
  N31      1.0000 0.49917  0.36954  0.47771  Biso   1.000  N
  H43      1.0000 0.51467  0.42220  0.41641  Biso   1.000  H
  N32      1.0000 0.26584  0.40368  0.49008  Biso   1.000  N
  H44      1.0000 0.29627  0.46291  0.49289  Biso   1.000  H
  H45      1.0000 0.33379  0.44069  0.41600  Biso   1.000  H
  N33      1.0000 0.61814  0.38682  0.56317  Biso   1.000  N
  H46      1.0000 0.64965  0.43349  0.49079  Biso   1.000  H
  N34      1.0000 0.63143  0.45888  0.70130  Biso   1.000  N
  H47      1.0000 0.58722  0.50510  0.63591  Biso   1.000  H
  H48      1.0000 0.68302  0.48301  0.60421  Biso   1.000  H
  C48      1.0000 0.43896  0.34330  0.42820  Biso   1.000  C
  C49      1.0000 0.56532  0.35453  0.53007  Biso   1.000  C
  C50      1.0000 0.26324  0.36839  0.43860  Biso   1.000  C
  C51      1.0000 0.17726  0.40937  0.52628  Biso   1.000  C
  C52      1.0000 0.70568  0.37904  0.60818  Biso   1.000  C
  C53      1.0000 0.71257  0.43125  0.71741  Biso   1.000  C
  C54      1.0000 0.59612  0.47662  0.76808  Biso   1.000  C
  N35      1.0000 0.33973  0.33870  0.45442  Biso   1.000  N
  H49      1.0000 0.47016  0.31630  0.42593  Biso   1.000  H
  H50      1.0000 0.43734  0.35450  0.37461  Biso   1.000  H
  O16      1.0000 0.57993  0.31857  0.54659  Biso   1.000  O
  C55      1.0000 0.16929  0.34654  0.46451  Biso   1.000  C
  H51      1.0000 0.25994  0.37629  0.38220  Biso   1.000  H
  N36      1.0000 0.12116  0.37590  0.51192  Biso   1.000  N
  O17      1.0000 0.15355  0.43897  0.56370  Biso   1.000  O
  N37      1.0000 0.69964  0.39058  0.68939  Biso   1.000  N
  H52      1.0000 0.72084  0.34981  0.60532  Biso   1.000  H
  H53      1.0000 0.76099  0.39390  0.58448  Biso   1.000  H
  H54      1.0000 0.77647  0.44290  0.70001  Biso   1.000  H
  C56      1.0000 0.71131  0.42626  0.80579  Biso   1.000  C
  N38      1.0000 0.64234  0.45698  0.83049  Biso   1.000  N
  O18      1.0000 0.53863  0.50407  0.77182  Biso   1.000  O
  C57      1.0000 0.30606  0.30601  0.49353  Biso   1.000  C
  N39      1.0000 0.20834  0.31158  0.50742  Biso   1.000  N
  H55      1.0000 0.12725  0.33810  0.41892  Biso   1.000  H
  C58      1.0000 0.01859  0.37348  0.53311  Biso   1.000  C
  C59      1.0000 0.67374  0.36437  0.74561  Biso   1.000  C
  N40      1.0000 0.67561  0.38425  0.81490  Biso   1.000  N
  H56      1.0000 0.77805  0.43019  0.83008  Biso   1.000  H
  C60      1.0000 0.62582  0.46933  0.91023  Biso   1.000  C
  O19      1.0000 0.35633  0.27681  0.51402  Biso   1.000  O
  C61      1.0000 0.14486  0.27675  0.52412  Biso   1.000  C
  N41      1.0000 0.00403  0.34772  0.60083  Biso   1.000  N
  H57      1.0000 0.99398  0.40102  0.54461  Biso   1.000  H
  H58      1.0000 0.97980  0.36270  0.48839  Biso   1.000  H
  O20      1.0000 0.65431  0.32811  0.73761  Biso   1.000  O
  C62      1.0000 0.68811  0.36264  0.88951  Biso   1.000  C
  N42      1.0000 0.56745  0.44057  0.95320  Biso   1.000  N
  H59      1.0000 0.69013  0.47281  0.93732  Biso   1.000  H
  H60      1.0000 0.59200  0.49590  0.90988  Biso   1.000  H
  N43      1.0000 0.08975  0.28235  0.59301  Biso   1.000  N
  H61      1.0000 0.18608  0.25220  0.52990  Biso   1.000  H
  H62      1.0000 0.09894  0.27239  0.47940  Biso   1.000  H
  C63      1.0000 0.99604  0.30347  0.59452  Biso   1.000  C
  C64      1.0000 0.96418  0.36191  0.66820  Biso   1.000  C
  N44      1.0000 0.60951  0.36957  0.94263  Biso   1.000  N
  H63      1.0000 0.75083  0.37130  0.91461  Biso   1.000  H
  H64      1.0000 0.69282  0.33319  0.87888  Biso   1.000  H
  C65      1.0000 0.60576  0.40556  0.99231  Biso   1.000  C
  C66      1.0000 0.47003  0.44735  0.97083  Biso   1.000  C
  C67      1.0000 0.10504  0.26025  0.66072  Biso   1.000  C
  C68      1.0000 0.95332  0.29121  0.67298  Biso   1.000  C
  H65      1.0000 0.95218  0.29521  0.54992  Biso   1.000  H
  N45      1.0000 0.93878  0.32983  0.71291  Biso   1.000  N
  O21      1.0000 0.95276  0.39757  0.68489  Biso   1.000  O
  C69      1.0000 0.56339  0.33770  0.97731  Biso   1.000  C
  H66      1.0000 0.67063  0.41122  0.01864  Biso   1.000  H
  C70      1.0000 0.52733  0.39454  0.05051  Biso   1.000  C
  N46      1.0000 0.44220  0.41815  0.02261  Biso   1.000  N
  O22      1.0000 0.41842  0.47477  0.94631  Biso   1.000  O
  O23      1.0000 0.17504  0.23749  0.67152  Biso   1.000  O
  N47      1.0000 0.02914  0.26600  0.70929  Biso   1.000  N
  H67      1.0000 0.89002  0.27611  0.66609  Biso   1.000  H
  C71      1.0000 0.88805  0.33422  0.78431  Biso   1.000  C
  O24      1.0000 0.56460  0.30202  0.95390  Biso   1.000  O
  N48      1.0000 0.51621  0.35159  0.04240  Biso   1.000  N
  H68      1.0000 0.54728  0.40220  0.10504  Biso   1.000  H
  C72      1.0000 0.35564  0.42251  0.06750  Biso   1.000  C
  C73      1.0000 0.01191  0.24000  0.77550  Biso   1.000  C
  N49      1.0000 0.94521  0.32475  0.85331  Biso   1.000  N
  H69      1.0000 0.86461  0.36249  0.78840  Biso   1.000  H
  H70      1.0000 0.82942  0.31652  0.78268  Biso   1.000  H
  C74      1.0000 0.47061  0.32584  0.09850  Biso   1.000  C
  N50      1.0000 0.28798  0.38776  0.05962  Biso   1.000  N
  H71      1.0000 0.37473  0.42571  0.12320  Biso   1.000  H
  H72      1.0000 0.32081  0.44741  0.05081  Biso   1.000  H
  N51      1.0000 0.02740  0.25910  0.84929  Biso   1.000  N
  H73      1.0000 0.05603  0.21631  0.77228  Biso   1.000  H
  H74      1.0000 0.94347  0.22999  0.77240  Biso   1.000  H
  C75      1.0000 0.95472  0.28498  0.88671  Biso   1.000  C
  C76      1.0000 0.97312  0.35401  0.90533  Biso   1.000  C
  N52      1.0000 0.36353  0.32242  0.08992  Biso   1.000  N
  H75      1.0000 0.49949  0.29842  0.09442  Biso   1.000  H
  H76      1.0000 0.48633  0.33619  0.15139  Biso   1.000  H
  C77      1.0000 0.29487  0.35293  0.11210  Biso   1.000  C
  C78      1.0000 0.19240  0.39412  0.03481  Biso   1.000  C
  C79      1.0000 0.10490  0.24957  0.89920  Biso   1.000  C
  C80      1.0000 0.00054  0.29282  0.96902  Biso   1.000  C
  H77      1.0000 0.88943  0.27121  0.89009  Biso   1.000  H
  N53      1.0000 0.01489  0.33634  0.96943  Biso   1.000  N
  O25      1.0000 0.96085  0.39079  0.89500  Biso   1.000  O
  C81      1.0000 0.31870  0.29079  0.05192  Biso   1.000  C
  C82      1.0000 0.19417  0.33171  0.09903  Biso   1.000  C
  H78      1.0000 0.30499  0.36140  0.16774  Biso   1.000  H
  N54      1.0000 0.13654  0.36273  0.06044  Biso   1.000  N
  O26      1.0000 0.16321  0.42272  0.99552  Biso   1.000  O
  O27      1.0000 0.17230  0.22744  0.88379  Biso   1.000  O
  N55      1.0000 0.09101  0.26997  0.96733  Biso   1.000  N
  H79      1.0000 0.95650  0.28371  0.01181  Biso   1.000  H
  C83      1.0000 0.03291  0.35825  0.04100  Biso   1.000  C
  N56      1.0000 0.21978  0.29787  0.05022  Biso   1.000  N
  O28      1.0000 0.36039  0.26180  0.02343  Biso   1.000  O
  H80      1.0000 0.16440  0.32290  0.14923  Biso   1.000  H
  C84      1.0000 0.15382  0.26410  0.03563  Biso   1.000  C
  H81      1.0000 0.00282  0.38549  0.03645  Biso   1.000  H
  H82      1.0000 0.00020  0.34391  0.08420  Biso   1.000  H
  H83      1.0000 0.11198  0.26010  0.08175  Biso   1.000  H
  H84      1.0000 0.19308  0.23919  0.02851  Biso   1.000  H
  O29      1.0000 0.67237  0.27257  0.38378  Biso   1.000  O
  C85      1.0000 0.60497  0.25045  0.39919  Biso   1.000  C
  N57      1.0000 0.52747  0.24088  0.34928  Biso   1.000  N
  N58      1.0000 0.59108  0.23002  0.46732  Biso   1.000  N
  C86      1.0000 0.51198  0.25998  0.27549  Biso   1.000  C
  C87      1.0000 0.45480  0.21504  0.38670  Biso   1.000  C
  C88      1.0000 0.50054  0.20717  0.46901  Biso   1.000  C
  C89      1.0000 0.65374  0.23592  0.53562  Biso   1.000  C
  N59      1.0000 0.52921  0.23398  0.20929  Biso   1.000  N
  H85      1.0000 0.55610  0.28371  0.27228  Biso   1.000  H
  H86      1.0000 0.44346  0.27000  0.27239  Biso   1.000  H
  N60      1.0000 0.44528  0.17527  0.35330  Biso   1.000  N
  H87      1.0000 0.38950  0.22881  0.39008  Biso   1.000  H
  N61      1.0000 0.51496  0.16365  0.46942  Biso   1.000  N
  H88      1.0000 0.45643  0.21631  0.51180  Biso   1.000  H
  N62      1.0000 0.71977  0.20214  0.55021  Biso   1.000  N
  H89      1.0000 0.61198  0.23991  0.58168  Biso   1.000  H
  H90      1.0000 0.69308  0.26080  0.52850  Biso   1.000  H
  C90      1.0000 0.45339  0.20880  0.17297  Biso   1.000  C
  C91      1.0000 0.60512  0.23976  0.16072  Biso   1.000  C
  C92      1.0000 0.38805  0.16579  0.28430  Biso   1.000  C
  C93      1.0000 0.47319  0.14600  0.40532  Biso   1.000  C
  C94      1.0000 0.53283  0.14173  0.54099  Biso   1.000  C
  C95      1.0000 0.69417  0.16828  0.59902  Biso   1.000  C
  C96      1.0000 0.81870  0.20922  0.55191  Biso   1.000  C
  N63      1.0000 0.43878  0.17015  0.21291  Biso   1.000  N
  H91      1.0000 0.39009  0.22390  0.16609  Biso   1.000  H
  C97      1.0000 0.49611  0.19654  0.09451  Biso   1.000  C
  N64      1.0000 0.58982  0.21767  0.09300  Biso   1.000  N
  O30      1.0000 0.67511  0.26252  0.17152  Biso   1.000  O
  H92      1.0000 0.36468  0.13750  0.28839  Biso   1.000  H
  H93      1.0000 0.32950  0.18350  0.28273  Biso   1.000  H
  O31      1.0000 0.46085  0.10920  0.39499  Biso   1.000  O
  N65      1.0000 0.63646  0.13728  0.56043  Biso   1.000  N
  H94      1.0000 0.50274  0.11449  0.53638  Biso   1.000  H
  H95      1.0000 0.50012  0.15611  0.58419  Biso   1.000  H
  C98      1.0000 0.79487  0.14709  0.61209  Biso   1.000  C
  H96      1.0000 0.66432  0.17711  0.64922  Biso   1.000  H
  O32      1.0000 0.86039  0.23819  0.52342  Biso   1.000  O
  N66      1.0000 0.86345  0.17760  0.58991  Biso   1.000  N
  C99      1.0000 0.46418  0.13807  0.16819  Biso   1.000  C
  N67      1.0000 0.50411  0.15227  0.10082  Biso   1.000  N
  H97      1.0000 0.45217  0.20481  0.04991  Biso   1.000  H
  C100     1.0000 0.64494  0.22327  0.02411  Biso   1.000  C
  C101     1.0000 0.69240  0.10590  0.53480  Biso   1.000  C
  N68      1.0000 0.78798  0.11225  0.55961  Biso   1.000  N
  H98      1.0000 0.80499  0.13862  0.66773  Biso   1.000  H
  C102     1.0000 0.97053  0.17418  0.59849  Biso   1.000  C
  O33      1.0000 0.45276  0.10245  0.18488  Biso   1.000  O
  C103     1.0000 0.51859  0.12654  0.03310  Biso   1.000  C
  N69      1.0000 0.70841  0.18843  0.00741  Biso   1.000  N
  H99      1.0000 0.68608  0.24781  0.02989  Biso   1.000  H
  H100     1.0000 0.59894  0.22760  0.97939  Biso   1.000  H
  O34      1.0000 0.66328  0.07730  0.49551  Biso   1.000  O
  C104     1.0000 0.85556  0.07748  0.56749  Biso   1.000  C
  H101     1.0000 0.99949  0.20160  0.59441  Biso   1.000  H
  H102     1.0000 0.98626  0.16380  0.65138  Biso   1.000  H
  N70      1.0000 0.01613  0.14842  0.54239  Biso   1.000  N
  N71      1.0000 0.62123  0.12412  0.01191  Biso   1.000  N
  H103     1.0000 0.49397  0.09900  0.04460  Biso   1.000  H
  H104     1.0000 0.47972  0.13731  0.98838  Biso   1.000  H
  C105     1.0000 0.66922  0.15348  0.96451  Biso   1.000  C
  C106     1.0000 0.80606  0.19397  0.99346  Biso   1.000  C
  N72      1.0000 0.94220  0.08187  0.52260  Biso   1.000  N
  H105     1.0000 0.87465  0.07430  0.62319  Biso   1.000  H
  H106     1.0000 0.82073  0.05260  0.55080  Biso   1.000  H
  C107     1.0000 0.02726  0.10548  0.55051  Biso   1.000  C
  C108     1.0000 0.06346  0.16228  0.47730  Biso   1.000  C
  C109     1.0000 0.67733  0.09064  0.02633  Biso   1.000  C
  H107     1.0000 0.62725  0.16189  0.91891  Biso   1.000  H
  C110     1.0000 0.76323  0.13159  0.93859  Biso   1.000  C
  O35      1.0000 0.85640  0.22318  0.01401  Biso   1.000  O
  N73      1.0000 0.83973  0.16131  0.95441  Biso   1.000  N
  C111     1.0000 0.97010  0.05263  0.47082  Biso   1.000  C
  C112     1.0000 0.10575  0.09446  0.49230  Biso   1.000  C
  H108     1.0000 0.04728  0.09779  0.60503  Biso   1.000  H
  O36      1.0000 0.06467  0.19800  0.45389  Biso   1.000  O
  N74      1.0000 0.10958  0.13044  0.44262  Biso   1.000  N
  O37      1.0000 0.65362  0.06102  0.06369  Biso   1.000  O
  N75      1.0000 0.76584  0.09633  0.99008  Biso   1.000  N
  H109     1.0000 0.75994  0.12369  0.88219  Biso   1.000  H
  C113     1.0000 0.93896  0.15671  0.92819  Biso   1.000  C
  O38      1.0000 0.91849  0.02521  0.44630  Biso   1.000  O
  N76      1.0000 0.06745  0.05944  0.45319  Biso   1.000  N
  H110     1.0000 0.17056  0.08880  0.51863  Biso   1.000  H
  C114     1.0000 0.18818  0.13737  0.38950  Biso   1.000  C
  C115     1.0000 0.82792  0.06198  0.97326  Biso   1.000  C
  N77      1.0000 0.99910  0.13047  0.97770  Biso   1.000  N
  H111     1.0000 0.97016  0.18371  0.92586  Biso   1.000  H
  H112     1.0000 0.93734  0.14552  0.87460  Biso   1.000  H
  C116     1.0000 0.12589  0.03066  0.41022  Biso   1.000  C
  N78      1.0000 0.17569  0.11577  0.31489  Biso   1.000  N
  H113     1.0000 0.25090  0.12869  0.41460  Biso   1.000  H
  H114     1.0000 0.19289  0.16679  0.37887  Biso   1.000  H
  N79      1.0000 0.92539  0.06528  0.00771  Biso   1.000  N
  H115     1.0000 0.79619  0.03711  0.99288  Biso   1.000  H
  H116     1.0000 0.83372  0.05929  0.91599  Biso   1.000  H
  C117     1.0000 0.00529  0.08665  0.97157  Biso   1.000  C
  C118     1.0000 0.06540  0.14549  0.03012  Biso   1.000  C
  N80      1.0000 0.14241  0.04304  0.33048  Biso   1.000  N
  H117     1.0000 0.19020  0.02721  0.43731  Biso   1.000  H
  H118     1.0000 0.09207  0.00409  0.40987  Biso   1.000  H
  C119     1.0000 0.17381  0.13565  0.24560  Biso   1.000  C
  C120     1.0000 0.21138  0.07376  0.30578  Biso   1.000  C
  C121     1.0000 0.95903  0.03844  0.06328  Biso   1.000  C
  H119     1.0000 0.01459  0.07781  0.91640  Biso   1.000  H
  C122     1.0000 0.09363  0.07606  0.02288  Biso   1.000  C
  O39      1.0000 0.08000  0.18141  0.04659  Biso   1.000  O
  N81      1.0000 0.11821  0.11319  0.06322  Biso   1.000  N
  C123     1.0000 0.09619  0.02340  0.26807  Biso   1.000  C
  N82      1.0000 0.19971  0.10944  0.18938  Biso   1.000  N
  O40      1.0000 0.15438  0.17191  0.23760  Biso   1.000  O
  C124     1.0000 0.21257  0.06876  0.21740  Biso   1.000  C
  H120     1.0000 0.27805  0.06979  0.33013  Biso   1.000  H
  O41      1.0000 0.90981  0.01344  0.09737  Biso   1.000  O
  N83      1.0000 0.05766  0.04395  0.07198  Biso   1.000  N
  H121     1.0000 0.14958  0.06649  0.99078  Biso   1.000  H
  C125     1.0000 0.20568  0.12094  0.10817  Biso   1.000  C
  N84      1.0000 0.13150  0.04113  0.20129  Biso   1.000  N
  O42      1.0000 0.03870  0.99594  0.27181  Biso   1.000  O
  H122     1.0000 0.27647  0.05711  0.20000  Biso   1.000  H
  C126     1.0000 0.11777  0.02164  0.12732  Biso   1.000  C
  H123     1.0000 0.22091  0.15021  0.10531  Biso   1.000  H
  H124     1.0000 0.26099  0.10611  0.08447  Biso   1.000  H
  H125     1.0000 0.08729  0.99492  0.13590  Biso   1.000  H
  H126     1.0000 0.18310  0.01701  0.10421  Biso   1.000  H
  O43      1.0000 0.32756  0.72746  0.61618  Biso   1.000  O
  C127     1.0000 0.39496  0.74958  0.60083  Biso   1.000  C
  N85      1.0000 0.40885  0.76998  0.53270  Biso   1.000  N
  N86      1.0000 0.47246  0.75912  0.65068  Biso   1.000  N
  C128     1.0000 0.34619  0.76411  0.46440  Biso   1.000  C
  C129     1.0000 0.49939  0.79283  0.53101  Biso   1.000  C
  C130     1.0000 0.48795  0.74002  0.72453  Biso   1.000  C
  C131     1.0000 0.54513  0.78496  0.61332  Biso   1.000  C
  N87      1.0000 0.28016  0.79789  0.44980  Biso   1.000  N
  H127     1.0000 0.38795  0.76012  0.41828  Biso   1.000  H
  H128     1.0000 0.30685  0.73920  0.47152  Biso   1.000  H
  N88      1.0000 0.48497  0.83635  0.53060  Biso   1.000  N
  H129     1.0000 0.54343  0.78369  0.48822  Biso   1.000  H
  N89      1.0000 0.47072  0.76602  0.79073  Biso   1.000  N
  H130     1.0000 0.44383  0.71629  0.72768  Biso   1.000  H
  H131     1.0000 0.55647  0.73000  0.72763  Biso   1.000  H
  N90      1.0000 0.55465  0.82473  0.64671  Biso   1.000  N
  H132     1.0000 0.61043  0.77119  0.60988  Biso   1.000  H
  C132     1.0000 0.18123  0.79081  0.44811  Biso   1.000  C
  C133     1.0000 0.30576  0.83172  0.40100  Biso   1.000  C
  C134     1.0000 0.52674  0.85400  0.59470  Biso   1.000  C
  C135     1.0000 0.46710  0.85827  0.45903  Biso   1.000  C
  C136     1.0000 0.39482  0.76027  0.83930  Biso   1.000  C
  C137     1.0000 0.54654  0.79120  0.82698  Biso   1.000  C
  C138     1.0000 0.61188  0.83421  0.71572  Biso   1.000  C
  O44      1.0000 0.13954  0.76181  0.47660  Biso   1.000  O
  N91      1.0000 0.13648  0.82240  0.41011  Biso   1.000  N
  N92      1.0000 0.36347  0.86275  0.43959  Biso   1.000  N
  C139     1.0000 0.20506  0.85294  0.38792  Biso   1.000  C
  H133     1.0000 0.33561  0.82292  0.35079  Biso   1.000  H
  O45      1.0000 0.53908  0.89080  0.60503  Biso   1.000  O
  H134     1.0000 0.49719  0.88551  0.46358  Biso   1.000  H
  H135     1.0000 0.49981  0.84392  0.41583  Biso   1.000  H
  O46      1.0000 0.32482  0.73751  0.82850  Biso   1.000  O
  N93      1.0000 0.41011  0.78233  0.90702  Biso   1.000  N
  N94      1.0000 0.56115  0.82985  0.78711  Biso   1.000  N
  H136     1.0000 0.60984  0.77610  0.83393  Biso   1.000  H
  C140     1.0000 0.50382  0.80346  0.90550  Biso   1.000  C
  H137     1.0000 0.63525  0.86250  0.71163  Biso   1.000  H
  H138     1.0000 0.67044  0.81650  0.71729  Biso   1.000  H
  C141     1.0000 0.02940  0.82582  0.40152  Biso   1.000  C
  C142     1.0000 0.30753  0.89413  0.46522  Biso   1.000  C
  N95      1.0000 0.21195  0.88778  0.44040  Biso   1.000  N
  H139     1.0000 0.19494  0.86141  0.33229  Biso   1.000  H
  C143     1.0000 0.35499  0.77673  0.97591  Biso   1.000  C
  C144     1.0000 0.53575  0.86193  0.83183  Biso   1.000  C
  N96      1.0000 0.49583  0.84773  0.89920  Biso   1.000  N
  H140     1.0000 0.54776  0.79519  0.95010  Biso   1.000  H
  H141     1.0000 0.00044  0.79840  0.40561  Biso   1.000  H
  H142     1.0000 0.01367  0.83620  0.34858  Biso   1.000  H
  N97      1.0000 0.98380  0.85158  0.45763  Biso   1.000  N
  O47      1.0000 0.33665  0.92270  0.50450  Biso   1.000  O
  C145     1.0000 0.14437  0.92252  0.43252  Biso   1.000  C
  N98      1.0000 0.29152  0.81157  0.99260  Biso   1.000  N
  H143     1.0000 0.31385  0.75222  0.97013  Biso   1.000  H
  H144     1.0000 0.40099  0.77240  0.02063  Biso   1.000  H
  O48      1.0000 0.54717  0.89758  0.81508  Biso   1.000  O
  C146     1.0000 0.48134  0.87349  0.96692  Biso   1.000  C
  C147     1.0000 0.93647  0.83772  0.52272  Biso   1.000  C
  C148     1.0000 0.97267  0.89456  0.44951  Biso   1.000  C
  N99      1.0000 0.05773  0.91813  0.47742  Biso   1.000  N
  H145     1.0000 0.12528  0.92570  0.37677  Biso   1.000  H
  H146     1.0000 0.17920  0.94740  0.44922  Biso   1.000  H
  C149     1.0000 0.19387  0.80603  0.00650  Biso   1.000  C
  C150     1.0000 0.33071  0.84652  0.03551  Biso   1.000  C
  N100     1.0000 0.37870  0.87588  0.98811  Biso   1.000  N
  H147     1.0000 0.50596  0.90100  0.95542  Biso   1.000  H
  H148     1.0000 0.52021  0.86272  0.01164  Biso   1.000  H
  O49      1.0000 0.93526  0.80203  0.54613  Biso   1.000  O
  N101     1.0000 0.89035  0.86959  0.55739  Biso   1.000  N
  C151     1.0000 0.89418  0.90557  0.50771  Biso   1.000  C
  H149     1.0000 0.95265  0.90221  0.39499  Biso   1.000  H
  C152     1.0000 0.02983  0.94737  0.52920  Biso   1.000  C
  O50      1.0000 0.14353  0.77682  0.98601  Biso   1.000  O
  N102     1.0000 0.16020  0.83869  0.04561  Biso   1.000  N
  H150     1.0000 0.37268  0.83811  0.08111  Biso   1.000  H
  C153     1.0000 0.23670  0.86841  0.06143  Biso   1.000  C
  C154     1.0000 0.32260  0.90939  0.97369  Biso   1.000  C
  C155     1.0000 0.81175  0.86263  0.61052  Biso   1.000  C
  N103     1.0000 0.93248  0.94059  0.54683  Biso   1.000  N
  H151     1.0000 0.82937  0.91120  0.48139  Biso   1.000  H
  O51      1.0000 0.08144  0.97479  0.55372  Biso   1.000  O
  C156     1.0000 0.06097  0.84329  0.07182  Biso   1.000  C
  N104     1.0000 0.23409  0.90370  0.00994  Biso   1.000  N
  H152     1.0000 0.24000  0.87631  0.11782  Biso   1.000  H
  O52      1.0000 0.34631  0.93898  0.93633  Biso   1.000  O
  N105     1.0000 0.82425  0.88423  0.68513  Biso   1.000  N
  H153     1.0000 0.74903  0.87131  0.58542  Biso   1.000  H
  H154     1.0000 0.80704  0.83321  0.62109  Biso   1.000  H
  C157     1.0000 0.87404  0.96934  0.58979  Biso   1.000  C
  N106     1.0000 0.00083  0.86956  0.02232  Biso   1.000  N
  H155     1.0000 0.02977  0.81632  0.07410  Biso   1.000  H
  H156     1.0000 0.06259  0.85451  0.12541  Biso   1.000  H
  C158     1.0000 0.17201  0.93802  0.02670  Biso   1.000  C
  C159     1.0000 0.82612  0.86435  0.75442  Biso   1.000  C
  C160     1.0000 0.78855  0.92627  0.69417  Biso   1.000  C
  N107     1.0000 0.85752  0.95696  0.66948  Biso   1.000  N
  H157     1.0000 0.80973  0.97282  0.56271  Biso   1.000  H
  H158     1.0000 0.90786  0.99591  0.59009  Biso   1.000  H
  C161     1.0000 0.93453  0.85454  0.96989  Biso   1.000  C
  C162     1.0000 0.99464  0.91335  0.02839  Biso   1.000  C
  N108     1.0000 0.07455  0.93472  0.99231  Biso   1.000  N
  H159     1.0000 0.20374  0.96289  0.00714  Biso   1.000  H
  H160     1.0000 0.16621  0.94071  0.08402  Biso   1.000  H
  O53      1.0000 0.84555  0.82809  0.76242  Biso   1.000  O
  N109     1.0000 0.80022  0.89056  0.81058  Biso   1.000  N
  C163     1.0000 0.78737  0.93124  0.78262  Biso   1.000  C
  H161     1.0000 0.72188  0.93021  0.66989  Biso   1.000  H
  C164     1.0000 0.90374  0.97664  0.73189  Biso   1.000  C
  O54      1.0000 0.91993  0.81859  0.95343  Biso   1.000  O
  N110     1.0000 0.88172  0.88681  0.93679  Biso   1.000  N
  C165     1.0000 0.90630  0.92394  0.97713  Biso   1.000  C
  H162     1.0000 0.98534  0.92222  0.08362  Biso   1.000  H
  C166     1.0000 0.04090  0.96159  0.93668  Biso   1.000  C
  C167     1.0000 0.79425  0.87906  0.89178  Biso   1.000  C
  N111     1.0000 0.86843  0.95887  0.79873  Biso   1.000  N
  H163     1.0000 0.72347  0.94292  0.80001  Biso   1.000  H
  O55      1.0000 0.96123  0.00406  0.72821  Biso   1.000  O
  N112     1.0000 0.94220  0.95605  0.92798  Biso   1.000  N
  H164     1.0000 0.85035  0.93351  0.00924  Biso   1.000  H
  O56      1.0000 0.09012  0.98659  0.90258  Biso   1.000  O
  H165     1.0000 0.77902  0.84979  0.89470  Biso   1.000  H
  H166     1.0000 0.73894  0.89392  0.91549  Biso   1.000  H
  C168     1.0000 0.88216  0.97836  0.87270  Biso   1.000  C
  H167     1.0000 0.81684  0.98302  0.89581  Biso   1.000  H
  H168     1.0000 0.91264  0.00511  0.86411  Biso   1.000  H
