data_image0
_cell_length_a       14.314
_cell_length_b       14.314
_cell_length_c       30.848
_cell_angle_alpha    90
_cell_angle_beta     90
_cell_angle_gamma    120

_symmetry_space_group_name_H-M    "P 1"
_symmetry_int_tables_number       1

loop_
  _symmetry_equiv_pos_as_xyz
  'x, y, z'

loop_
  _atom_site_label
  _atom_site_occupancy
  _atom_site_fract_x
  _atom_site_fract_y
  _atom_site_fract_z
  _atom_site_thermal_displace_type
  _atom_site_B_iso_or_equiv
  _atom_site_type_symbol
  C1       1.0000 0.54683  0.50822  0.63768  Biso   1.000  C
  C2       1.0000 0.54126  0.60187  0.64140  Biso   1.000  C
  C3       1.0000 0.64789  0.51612  0.63570  Biso   1.000  C
  H1       1.0000 0.48411  0.44118  0.63651  Biso   1.000  H
  N1       1.0000 0.62767  0.69868  0.64234  Biso   1.000  N
  H2       1.0000 0.47382  0.59623  0.64332  Biso   1.000  H
  C4       1.0000 0.73755  0.61777  0.63667  Biso   1.000  C
  C5       1.0000 0.65659  0.41658  0.63430  Biso   1.000  C
  B1       1.0000 0.61760  0.80863  0.65259  Biso   1.000  B
  C6       1.0000 0.72550  0.70739  0.63998  Biso   1.000  C
  H3       1.0000 0.80619  0.62607  0.63511  Biso   1.000  H
  N2       1.0000 0.75787  0.43400  0.63450  Biso   1.000  N
  N3       1.0000 0.56602  0.32389  0.63450  Biso   1.000  N
  O1       1.0000 0.51790  0.78709  0.63129  Biso   1.000  O
  O2       1.0000 0.70758  0.89777  0.62928  Biso   1.000  O
  C7       1.0000 0.62041  0.81871  0.70371  Biso   1.000  C
  H4       1.0000 0.78669  0.77555  0.64059  Biso   1.000  H
  C8       1.0000 0.76001  0.34341  0.63430  Biso   1.000  C
  C9       1.0000 0.58339  0.23999  0.63430  Biso   1.000  C
  C10      1.0000 0.55058  0.83638  0.59180  Biso   1.000  C
  C11      1.0000 0.66209  0.90067  0.59119  Biso   1.000  C
  C12      1.0000 0.52571  0.77378  0.72734  Biso   1.000  C
  C13      1.0000 0.71536  0.86429  0.72698  Biso   1.000  C
  N4       1.0000 0.67610  0.24209  0.63450  Biso   1.000  N
  C14      1.0000 0.86818  0.35212  0.63570  Biso   1.000  C
  C15      1.0000 0.48389  0.13181  0.63570  Biso   1.000  C
  C16      1.0000 0.48784  0.82743  0.55689  Biso   1.000  C
  C17      1.0000 0.71290  0.96093  0.55530  Biso   1.000  C
  C18      1.0000 0.52571  0.77378  0.77266  Biso   1.000  C
  H5       1.0000 0.46020  0.74280  0.71269  Biso   1.000  H
  C19      1.0000 0.71536  0.86429  0.77302  Biso   1.000  C
  H6       1.0000 0.78081  0.89583  0.71220  Biso   1.000  H
  C20      1.0000 0.96141  0.45320  0.63768  Biso   1.000  C
  C21      1.0000 0.88020  0.26242  0.63667  Biso   1.000  C
  C22      1.0000 0.49175  0.03856  0.63768  Biso   1.000  C
  C23      1.0000 0.38217  0.11979  0.63667  Biso   1.000  C
  C24      1.0000 0.53739  0.88139  0.51961  Biso   1.000  C
  H7       1.0000 0.41312  0.78572  0.55842  Biso   1.000  H
  C25      1.0000 0.64751  0.94851  0.51952  Biso   1.000  C
  H8       1.0000 0.78701  0.00772  0.55478  Biso   1.000  H
  C26      1.0000 0.62041  0.81871  0.79629  Biso   1.000  C
  H9       1.0000 0.46020  0.74280  0.78731  Biso   1.000  H
  H10      1.0000 0.78081  0.89583  0.78780  Biso   1.000  H
  H11      1.0000 0.95712  0.51588  0.63651  Biso   1.000  H
  C27      1.0000 0.06056  0.45869  0.64140  Biso   1.000  C
  C28      1.0000 0.98189  0.27452  0.63998  Biso   1.000  C
  H12      1.0000 0.81988  0.19377  0.63511  Biso   1.000  H
  H13      1.0000 0.55883  0.04292  0.63651  Biso   1.000  H
  C29      1.0000 0.39810  0.93942  0.64140  Biso   1.000  C
  C30      1.0000 0.29260  0.01807  0.63998  Biso   1.000  C
  H14      1.0000 0.37392  0.18013  0.63511  Biso   1.000  H
  Cl1      1.0000 0.45838  0.86534  0.47433  Biso   1.000  Cl
  Cl2      1.0000 0.71073  0.02087  0.47170  Biso   1.000  Cl
  B2       1.0000 0.61760  0.80863  0.84741  Biso   1.000  B
  H15      1.0000 0.12240  0.52621  0.64332  Biso   1.000  H
  N5       1.0000 0.07101  0.37229  0.64234  Biso   1.000  N
  H16      1.0000 0.98886  0.21329  0.64059  Biso   1.000  H
  H17      1.0000 0.40381  0.87762  0.64332  Biso   1.000  H
  N6       1.0000 0.30131  0.92901  0.64234  Biso   1.000  N
  H18      1.0000 0.22444  0.01113  0.64059  Biso   1.000  H
  O3       1.0000 0.70758  0.89777  0.87072  Biso   1.000  O
  O4       1.0000 0.51790  0.78709  0.86871  Biso   1.000  O
  N7       1.0000 0.62767  0.69868  0.85766  Biso   1.000  N
  B3       1.0000 0.19098  0.38237  0.65259  Biso   1.000  B
  B4       1.0000 0.19141  0.80898  0.65259  Biso   1.000  B
  C31      1.0000 0.66209  0.90067  0.90881  Biso   1.000  C
  C32      1.0000 0.55058  0.83638  0.90820  Biso   1.000  C
  C33      1.0000 0.54126  0.60187  0.85860  Biso   1.000  C
  C34      1.0000 0.72550  0.70739  0.86002  Biso   1.000  C
  C35      1.0000 0.19834  0.37963  0.70371  Biso   1.000  C
  O5       1.0000 0.19023  0.29243  0.62928  Biso   1.000  O
  O6       1.0000 0.26919  0.48208  0.63129  Biso   1.000  O
  C36      1.0000 0.18128  0.80171  0.70371  Biso   1.000  C
  O7       1.0000 0.10218  0.80978  0.62928  Biso   1.000  O
  O8       1.0000 0.21290  0.73081  0.63129  Biso   1.000  O
  C37      1.0000 0.71290  0.96093  0.94470  Biso   1.000  C
  C38      1.0000 0.48784  0.82743  0.94311  Biso   1.000  C
  C39      1.0000 0.54683  0.50822  0.86232  Biso   1.000  C
  H19      1.0000 0.47382  0.59623  0.85668  Biso   1.000  H
  H20      1.0000 0.78669  0.77555  0.85941  Biso   1.000  H
  C40      1.0000 0.73755  0.61777  0.86333  Biso   1.000  C
  C41      1.0000 0.24814  0.47434  0.72734  Biso   1.000  C
  C42      1.0000 0.14887  0.28460  0.72698  Biso   1.000  C
  C43      1.0000 0.23861  0.33792  0.59119  Biso   1.000  C
  C44      1.0000 0.28576  0.44941  0.59180  Biso   1.000  C
  C45      1.0000 0.22619  0.75194  0.72734  Biso   1.000  C
  C46      1.0000 0.13569  0.85108  0.72698  Biso   1.000  C
  C47      1.0000 0.09929  0.76138  0.59119  Biso   1.000  C
  C48      1.0000 0.16358  0.71419  0.59180  Biso   1.000  C
  C49      1.0000 0.64751  0.94851  0.98048  Biso   1.000  C
  H21      1.0000 0.78701  0.00772  0.94522  Biso   1.000  H
  H22      1.0000 0.41312  0.78572  0.94158  Biso   1.000  H
  C50      1.0000 0.53739  0.88139  0.98039  Biso   1.000  C
  C51      1.0000 0.64789  0.51612  0.86430  Biso   1.000  C
  H23      1.0000 0.48411  0.44118  0.86349  Biso   1.000  H
  H24      1.0000 0.80619  0.62607  0.86489  Biso   1.000  H
  C52      1.0000 0.24814  0.47434  0.77266  Biso   1.000  C
  H25      1.0000 0.28259  0.53976  0.71269  Biso   1.000  H
  C53      1.0000 0.14887  0.28460  0.77302  Biso   1.000  C
  H26      1.0000 0.11497  0.21918  0.71220  Biso   1.000  H
  C54      1.0000 0.24799  0.28710  0.55530  Biso   1.000  C
  C55      1.0000 0.33957  0.51217  0.55689  Biso   1.000  C
  C56      1.0000 0.22619  0.75194  0.77266  Biso   1.000  C
  H27      1.0000 0.25720  0.71742  0.71269  Biso   1.000  H
  C57      1.0000 0.13569  0.85108  0.77302  Biso   1.000  C
  H28      1.0000 0.10421  0.88497  0.71220  Biso   1.000  H
  C58      1.0000 0.03914  0.75202  0.55530  Biso   1.000  C
  C59      1.0000 0.17258  0.66038  0.55689  Biso   1.000  C
  Cl3      1.0000 0.71073  0.02087  0.02830  Biso   1.000  Cl
  Cl4      1.0000 0.45838  0.86534  0.02567  Biso   1.000  Cl
  C60      1.0000 0.65659  0.41658  0.86570  Biso   1.000  C
  C61      1.0000 0.19834  0.37963  0.79629  Biso   1.000  C
  H29      1.0000 0.28259  0.53976  0.78731  Biso   1.000  H
  H30      1.0000 0.11497  0.21918  0.78780  Biso   1.000  H
  C62      1.0000 0.30104  0.35252  0.51952  Biso   1.000  C
  H31      1.0000 0.22071  0.21297  0.55478  Biso   1.000  H
  H32      1.0000 0.37259  0.58687  0.55842  Biso   1.000  H
  C63      1.0000 0.34397  0.46256  0.51961  Biso   1.000  C
  C64      1.0000 0.18128  0.80171  0.79629  Biso   1.000  C
  H33      1.0000 0.25720  0.71742  0.78731  Biso   1.000  H
  H34      1.0000 0.10421  0.88497  0.78780  Biso   1.000  H
  H35      1.0000 0.99227  0.77929  0.55478  Biso   1.000  H
  C65      1.0000 0.05148  0.69902  0.51952  Biso   1.000  C
  H36      1.0000 0.21428  0.62739  0.55842  Biso   1.000  H
  C66      1.0000 0.11864  0.65603  0.51961  Biso   1.000  C
  N8       1.0000 0.75787  0.43400  0.86550  Biso   1.000  N
  N9       1.0000 0.56602  0.32389  0.86550  Biso   1.000  N
  B5       1.0000 0.19098  0.38237  0.84741  Biso   1.000  B
  Cl5      1.0000 0.31014  0.28928  0.47170  Biso   1.000  Cl
  Cl6      1.0000 0.40690  0.54161  0.47433  Biso   1.000  Cl
  B6       1.0000 0.19141  0.80898  0.84741  Biso   1.000  B
  Cl7      1.0000 0.97912  0.68983  0.47170  Biso   1.000  Cl
  Cl8      1.0000 0.13468  0.59310  0.47433  Biso   1.000  Cl
  C67      1.0000 0.76001  0.34341  0.86570  Biso   1.000  C
  C68      1.0000 0.58339  0.23999  0.86570  Biso   1.000  C
  N10      1.0000 0.07101  0.37229  0.85766  Biso   1.000  N
  O9       1.0000 0.19023  0.29243  0.87072  Biso   1.000  O
  O10      1.0000 0.26919  0.48208  0.86871  Biso   1.000  O
  N11      1.0000 0.30131  0.92901  0.85766  Biso   1.000  N
  O11      1.0000 0.10218  0.80978  0.87072  Biso   1.000  O
  O12      1.0000 0.21290  0.73081  0.86871  Biso   1.000  O
  N12      1.0000 0.67610  0.24209  0.86550  Biso   1.000  N
  C69      1.0000 0.86818  0.35212  0.86430  Biso   1.000  C
  C70      1.0000 0.48389  0.13181  0.86430  Biso   1.000  C
  C71      1.0000 0.06056  0.45869  0.85860  Biso   1.000  C
  C72      1.0000 0.98189  0.27452  0.86002  Biso   1.000  C
  C73      1.0000 0.23861  0.33792  0.90881  Biso   1.000  C
  C74      1.0000 0.28576  0.44941  0.90820  Biso   1.000  C
  C75      1.0000 0.39810  0.93942  0.85860  Biso   1.000  C
  C76      1.0000 0.29260  0.01807  0.86002  Biso   1.000  C
  C77      1.0000 0.09929  0.76138  0.90881  Biso   1.000  C
  C78      1.0000 0.16358  0.71419  0.90820  Biso   1.000  C
  C79      1.0000 0.96141  0.45320  0.86232  Biso   1.000  C
  C80      1.0000 0.88020  0.26242  0.86333  Biso   1.000  C
  C81      1.0000 0.49175  0.03856  0.86232  Biso   1.000  C
  C82      1.0000 0.38217  0.11979  0.86333  Biso   1.000  C
  H37      1.0000 0.12240  0.52621  0.85668  Biso   1.000  H
  H38      1.0000 0.98886  0.21329  0.85941  Biso   1.000  H
  C83      1.0000 0.24799  0.28710  0.94470  Biso   1.000  C
  C84      1.0000 0.33957  0.51217  0.94311  Biso   1.000  C
  H39      1.0000 0.40381  0.87762  0.85668  Biso   1.000  H
  H40      1.0000 0.22444  0.01113  0.85941  Biso   1.000  H
  C85      1.0000 0.03914  0.75202  0.94470  Biso   1.000  C
  C86      1.0000 0.17258  0.66038  0.94311  Biso   1.000  C
  H41      1.0000 0.95712  0.51588  0.86349  Biso   1.000  H
  H42      1.0000 0.81988  0.19377  0.86489  Biso   1.000  H
  H43      1.0000 0.55883  0.04292  0.86349  Biso   1.000  H
  H44      1.0000 0.37392  0.18013  0.86489  Biso   1.000  H
  C87      1.0000 0.30104  0.35252  0.98048  Biso   1.000  C
  H45      1.0000 0.22071  0.21297  0.94522  Biso   1.000  H
  H46      1.0000 0.37259  0.58687  0.94158  Biso   1.000  H
  C88      1.0000 0.34397  0.46256  0.98039  Biso   1.000  C
  H47      1.0000 0.99227  0.77929  0.94522  Biso   1.000  H
  C89      1.0000 0.05148  0.69902  0.98048  Biso   1.000  C
  H48      1.0000 0.21428  0.62739  0.94158  Biso   1.000  H
  C90      1.0000 0.11864  0.65603  0.98039  Biso   1.000  C
  Cl9      1.0000 0.31014  0.28928  0.02830  Biso   1.000  Cl
  Cl10     1.0000 0.40690  0.54161  0.02567  Biso   1.000  Cl
  Cl11     1.0000 0.97912  0.68983  0.02830  Biso   1.000  Cl
  Cl12     1.0000 0.13468  0.59310  0.02567  Biso   1.000  Cl
  C91      1.0000 0.45316  0.49176  0.36232  Biso   1.000  C
  C92      1.0000 0.45873  0.39810  0.35860  Biso   1.000  C
  C93      1.0000 0.35214  0.48394  0.36430  Biso   1.000  C
  H49      1.0000 0.51588  0.55880  0.36349  Biso   1.000  H
  N13      1.0000 0.37232  0.30130  0.35766  Biso   1.000  N
  H50      1.0000 0.52621  0.40383  0.35668  Biso   1.000  H
  C94      1.0000 0.26243  0.38221  0.36333  Biso   1.000  C
  C95      1.0000 0.34340  0.58340  0.36570  Biso   1.000  C
  B7       1.0000 0.38243  0.19143  0.34741  Biso   1.000  B
  C96      1.0000 0.27449  0.29259  0.36002  Biso   1.000  C
  H51      1.0000 0.19380  0.37390  0.36489  Biso   1.000  H
  N14      1.0000 0.24212  0.56598  0.36550  Biso   1.000  N
  N15      1.0000 0.43396  0.67609  0.36550  Biso   1.000  N
  C97      1.0000 0.37958  0.18126  0.29629  Biso   1.000  C
  O13      1.0000 0.29241  0.10221  0.37072  Biso   1.000  O
  O14      1.0000 0.48209  0.21289  0.36871  Biso   1.000  O
  H52      1.0000 0.21330  0.22442  0.35941  Biso   1.000  H
  C98      1.0000 0.23998  0.65657  0.36570  Biso   1.000  C
  C99      1.0000 0.41660  0.75999  0.36570  Biso   1.000  C
  C100     1.0000 0.28462  0.13569  0.27302  Biso   1.000  C
  C101     1.0000 0.47428  0.22620  0.27266  Biso   1.000  C
  C102     1.0000 0.33790  0.09930  0.40881  Biso   1.000  C
  C103     1.0000 0.44941  0.16360  0.40820  Biso   1.000  C
  N16      1.0000 0.32389  0.75789  0.36550  Biso   1.000  N
  C104     1.0000 0.13181  0.64786  0.36430  Biso   1.000  C
  C105     1.0000 0.51610  0.86816  0.36430  Biso   1.000  C
  H53      1.0000 0.21922  0.10422  0.28780  Biso   1.000  H
  C106     1.0000 0.28462  0.13569  0.22698  Biso   1.000  C
  H54      1.0000 0.53979  0.25717  0.28731  Biso   1.000  H
  C107     1.0000 0.47428  0.22620  0.22734  Biso   1.000  C
  C108     1.0000 0.28713  0.03912  0.44470  Biso   1.000  C
  C109     1.0000 0.51219  0.17263  0.44311  Biso   1.000  C
  C110     1.0000 0.03858  0.54678  0.36232  Biso   1.000  C
  C111     1.0000 0.11979  0.73756  0.36333  Biso   1.000  C
  C112     1.0000 0.50823  0.96142  0.36232  Biso   1.000  C
  C113     1.0000 0.61782  0.88018  0.36333  Biso   1.000  C
  C114     1.0000 0.37958  0.18126  0.20371  Biso   1.000  C
  H55      1.0000 0.21922  0.10422  0.21220  Biso   1.000  H
  H56      1.0000 0.53979  0.25717  0.21269  Biso   1.000  H
  C115     1.0000 0.35248  0.05147  0.48048  Biso   1.000  C
  H57      1.0000 0.21302  0.99234  0.44522  Biso   1.000  H
  H58      1.0000 0.58691  0.21434  0.44158  Biso   1.000  H
  C116     1.0000 0.46260  0.11858  0.48039  Biso   1.000  C
  H59      1.0000 0.04287  0.48410  0.36349  Biso   1.000  H
  C117     1.0000 0.93943  0.54129  0.35860  Biso   1.000  C
  C118     1.0000 0.01810  0.72546  0.36002  Biso   1.000  C
  H60      1.0000 0.18011  0.80621  0.36489  Biso   1.000  H
  H61      1.0000 0.44115  0.95706  0.36349  Biso   1.000  H
  C119     1.0000 0.60189  0.06056  0.35860  Biso   1.000  C
  C120     1.0000 0.70738  0.98191  0.36002  Biso   1.000  C
  H62      1.0000 0.62611  0.81992  0.36489  Biso   1.000  H
  B8       1.0000 0.38243  0.19143  0.15259  Biso   1.000  B
  Cl13     1.0000 0.28930  0.97919  0.52830  Biso   1.000  Cl
  Cl14     1.0000 0.54165  0.13472  0.52567  Biso   1.000  Cl
  H63      1.0000 0.87759  0.47377  0.35668  Biso   1.000  H
  N17      1.0000 0.92898  0.62769  0.35766  Biso   1.000  N
  H64      1.0000 0.01113  0.78669  0.35941  Biso   1.000  H
  H65      1.0000 0.59618  0.12235  0.35668  Biso   1.000  H
  N18      1.0000 0.69868  0.07097  0.35766  Biso   1.000  N
  H66      1.0000 0.77559  0.98893  0.35941  Biso   1.000  H
  O15      1.0000 0.29241  0.10221  0.12928  Biso   1.000  O
  O16      1.0000 0.48209  0.21289  0.13129  Biso   1.000  O
  N19      1.0000 0.37232  0.30130  0.14234  Biso   1.000  N
  B9       1.0000 0.80901  0.61760  0.34741  Biso   1.000  B
  B10      1.0000 0.80858  0.19100  0.34741  Biso   1.000  B
  C121     1.0000 0.33790  0.09930  0.09119  Biso   1.000  C
  C122     1.0000 0.44941  0.16360  0.09180  Biso   1.000  C
  C123     1.0000 0.45873  0.39810  0.14140  Biso   1.000  C
  C124     1.0000 0.27449  0.29259  0.13998  Biso   1.000  C
  C125     1.0000 0.80169  0.62043  0.29629  Biso   1.000  C
  O17      1.0000 0.80980  0.70763  0.37072  Biso   1.000  O
  O18      1.0000 0.73079  0.51790  0.36871  Biso   1.000  O
  C126     1.0000 0.81871  0.19826  0.29629  Biso   1.000  C
  O19      1.0000 0.89781  0.19020  0.37072  Biso   1.000  O
  O20      1.0000 0.78709  0.26917  0.36871  Biso   1.000  O
  C127     1.0000 0.28713  0.03912  0.05530  Biso   1.000  C
  C128     1.0000 0.51219  0.17263  0.05689  Biso   1.000  C
  C129     1.0000 0.45316  0.49176  0.13768  Biso   1.000  C
  H67      1.0000 0.52621  0.40383  0.14332  Biso   1.000  H
  H68      1.0000 0.21330  0.22442  0.14059  Biso   1.000  H
  C130     1.0000 0.26243  0.38221  0.13667  Biso   1.000  C
  C131     1.0000 0.75189  0.52572  0.27266  Biso   1.000  C
  C132     1.0000 0.85112  0.71538  0.27302  Biso   1.000  C
  C133     1.0000 0.76141  0.66213  0.40881  Biso   1.000  C
  C134     1.0000 0.71416  0.55057  0.40820  Biso   1.000  C
  C135     1.0000 0.77384  0.24812  0.27266  Biso   1.000  C
  C136     1.0000 0.86430  0.14889  0.27302  Biso   1.000  C
  C137     1.0000 0.90070  0.23860  0.40881  Biso   1.000  C
  C138     1.0000 0.83641  0.28579  0.40820  Biso   1.000  C
  C139     1.0000 0.35248  0.05147  0.01952  Biso   1.000  C
  H69      1.0000 0.21302  0.99234  0.05478  Biso   1.000  H
  H70      1.0000 0.58691  0.21434  0.05842  Biso   1.000  H
  C140     1.0000 0.46260  0.11858  0.01961  Biso   1.000  C
  C141     1.0000 0.35214  0.48394  0.13570  Biso   1.000  C
  H71      1.0000 0.51588  0.55880  0.13651  Biso   1.000  H
  H72      1.0000 0.19380  0.37390  0.13511  Biso   1.000  H
  C142     1.0000 0.75189  0.52572  0.22734  Biso   1.000  C
  H73      1.0000 0.71739  0.46022  0.28731  Biso   1.000  H
  C143     1.0000 0.85112  0.71538  0.22698  Biso   1.000  C
  H74      1.0000 0.88502  0.78080  0.28780  Biso   1.000  H
  C144     1.0000 0.75199  0.71287  0.44470  Biso   1.000  C
  C145     1.0000 0.66042  0.48781  0.44311  Biso   1.000  C
  C146     1.0000 0.77384  0.24812  0.22734  Biso   1.000  C
  H75      1.0000 0.74279  0.28256  0.28731  Biso   1.000  H
  C147     1.0000 0.86430  0.14889  0.22698  Biso   1.000  C
  H76      1.0000 0.89578  0.11501  0.28780  Biso   1.000  H
  C148     1.0000 0.96085  0.24795  0.44470  Biso   1.000  C
  C149     1.0000 0.82741  0.33959  0.44311  Biso   1.000  C
  Cl15     1.0000 0.28930  0.97919  0.97170  Biso   1.000  Cl
  Cl16     1.0000 0.54165  0.13472  0.97433  Biso   1.000  Cl
  C150     1.0000 0.34340  0.58340  0.13430  Biso   1.000  C
  C151     1.0000 0.80169  0.62043  0.20371  Biso   1.000  C
  H77      1.0000 0.71739  0.46022  0.21269  Biso   1.000  H
  H78      1.0000 0.88502  0.78080  0.21220  Biso   1.000  H
  C152     1.0000 0.69899  0.64753  0.48048  Biso   1.000  C
  H79      1.0000 0.77928  0.78701  0.44522  Biso   1.000  H
  H80      1.0000 0.62740  0.41311  0.44158  Biso   1.000  H
  C153     1.0000 0.65602  0.53742  0.48039  Biso   1.000  C
  C154     1.0000 0.81871  0.19826  0.20371  Biso   1.000  C
  H81      1.0000 0.74279  0.28256  0.21269  Biso   1.000  H
  H82      1.0000 0.89578  0.11501  0.21220  Biso   1.000  H
  C155     1.0000 0.94851  0.30095  0.48048  Biso   1.000  C
  H83      1.0000 0.00772  0.22069  0.44522  Biso   1.000  H
  H84      1.0000 0.78571  0.37259  0.44158  Biso   1.000  H
  C156     1.0000 0.88135  0.34395  0.48039  Biso   1.000  C
  N20      1.0000 0.24212  0.56598  0.13450  Biso   1.000  N
  N21      1.0000 0.43396  0.67609  0.13450  Biso   1.000  N
  B11      1.0000 0.80901  0.61760  0.15259  Biso   1.000  B
  Cl17     1.0000 0.68985  0.71070  0.52830  Biso   1.000  Cl
  Cl18     1.0000 0.59309  0.45836  0.52567  Biso   1.000  Cl
  B12      1.0000 0.80858  0.19100  0.15259  Biso   1.000  B
  Cl19     1.0000 0.02087  0.31015  0.52830  Biso   1.000  Cl
  Cl20     1.0000 0.86535  0.40695  0.52567  Biso   1.000  Cl
  C157     1.0000 0.23998  0.65657  0.13430  Biso   1.000  C
  C158     1.0000 0.41660  0.75999  0.13430  Biso   1.000  C
  N22      1.0000 0.92898  0.62769  0.14234  Biso   1.000  N
  O21      1.0000 0.80980  0.70763  0.12928  Biso   1.000  O
  O22      1.0000 0.73079  0.51790  0.13129  Biso   1.000  O
  N23      1.0000 0.69868  0.07097  0.14234  Biso   1.000  N
  O23      1.0000 0.89781  0.19020  0.12928  Biso   1.000  O
  O24      1.0000 0.78709  0.26917  0.13129  Biso   1.000  O
  N24      1.0000 0.32389  0.75789  0.13450  Biso   1.000  N
  C159     1.0000 0.13181  0.64786  0.13570  Biso   1.000  C
  C160     1.0000 0.51610  0.86816  0.13570  Biso   1.000  C
  C161     1.0000 0.93943  0.54129  0.14140  Biso   1.000  C
  C162     1.0000 0.01810  0.72546  0.13998  Biso   1.000  C
  C163     1.0000 0.76141  0.66213  0.09119  Biso   1.000  C
  C164     1.0000 0.71416  0.55057  0.09180  Biso   1.000  C
  C165     1.0000 0.60189  0.06056  0.14140  Biso   1.000  C
  C166     1.0000 0.70738  0.98191  0.13998  Biso   1.000  C
  C167     1.0000 0.90070  0.23860  0.09119  Biso   1.000  C
  C168     1.0000 0.83641  0.28579  0.09180  Biso   1.000  C
  C169     1.0000 0.03858  0.54678  0.13768  Biso   1.000  C
  C170     1.0000 0.11979  0.73756  0.13667  Biso   1.000  C
  C171     1.0000 0.50823  0.96142  0.13768  Biso   1.000  C
  C172     1.0000 0.61782  0.88018  0.13667  Biso   1.000  C
  H85      1.0000 0.87759  0.47377  0.14332  Biso   1.000  H
  H86      1.0000 0.01113  0.78669  0.14059  Biso   1.000  H
  C173     1.0000 0.75199  0.71287  0.05530  Biso   1.000  C
  C174     1.0000 0.66042  0.48781  0.05689  Biso   1.000  C
  H87      1.0000 0.59618  0.12235  0.14332  Biso   1.000  H
  H88      1.0000 0.77559  0.98893  0.14059  Biso   1.000  H
  C175     1.0000 0.96085  0.24795  0.05530  Biso   1.000  C
  C176     1.0000 0.82741  0.33959  0.05689  Biso   1.000  C
  H89      1.0000 0.04287  0.48410  0.13651  Biso   1.000  H
  H90      1.0000 0.18011  0.80621  0.13511  Biso   1.000  H
  H91      1.0000 0.44115  0.95706  0.13651  Biso   1.000  H
  H92      1.0000 0.62611  0.81992  0.13511  Biso   1.000  H
  C177     1.0000 0.69899  0.64753  0.01952  Biso   1.000  C
  H93      1.0000 0.77928  0.78701  0.05478  Biso   1.000  H
  H94      1.0000 0.62740  0.41311  0.05842  Biso   1.000  H
  C178     1.0000 0.65602  0.53742  0.01961  Biso   1.000  C
  C179     1.0000 0.94851  0.30095  0.01952  Biso   1.000  C
  H95      1.0000 0.00772  0.22069  0.05478  Biso   1.000  H
  H96      1.0000 0.78571  0.37259  0.05842  Biso   1.000  H
  C180     1.0000 0.88135  0.34395  0.01961  Biso   1.000  C
  Cl21     1.0000 0.68985  0.71070  0.97170  Biso   1.000  Cl
  Cl22     1.0000 0.59309  0.45836  0.97433  Biso   1.000  Cl
  Cl23     1.0000 0.02087  0.31015  0.97170  Biso   1.000  Cl
  Cl24     1.0000 0.86535  0.40695  0.97433  Biso   1.000  Cl
