data_image0
_cell_length_a       12.236
_cell_length_b       22.538
_cell_length_c       18.847
_cell_angle_alpha    90
_cell_angle_beta     95.31
_cell_angle_gamma    90

_symmetry_space_group_name_H-M    "P 1"
_symmetry_int_tables_number       1

loop_
  _symmetry_equiv_pos_as_xyz
  'x, y, z'

loop_
  _atom_site_label
  _atom_site_occupancy
  _atom_site_fract_x
  _atom_site_fract_y
  _atom_site_fract_z
  _atom_site_thermal_displace_type
  _atom_site_B_iso_or_equiv
  _atom_site_type_symbol
  C1       1.0000 0.54930  0.62561  0.46110  Biso   1.000  C
  C2       1.0000 0.51445  0.67979  0.48891  Biso   1.000  C
  C3       1.0000 0.63521  0.62299  0.41820  Biso   1.000  C
  H1       1.0000 0.51303  0.58998  0.47207  Biso   1.000  H
  C4       1.0000 0.42380  0.68249  0.53639  Biso   1.000  C
  C5       1.0000 0.56788  0.73001  0.46872  Biso   1.000  C
  C6       1.0000 0.68777  0.67411  0.40110  Biso   1.000  C
  H2       1.0000 0.65761  0.58590  0.40051  Biso   1.000  H
  C7       1.0000 0.35794  0.73378  0.53938  Biso   1.000  C
  C8       1.0000 0.40111  0.63382  0.57908  Biso   1.000  C
  H3       1.0000 0.54585  0.76759  0.48502  Biso   1.000  H
  C9       1.0000 0.65428  0.72699  0.42470  Biso   1.000  C
  O1       1.0000 0.77711  0.67242  0.35761  Biso   1.000  O
  C10      1.0000 0.27399  0.73658  0.58451  Biso   1.000  C
  H4       1.0000 0.37102  0.76688  0.51017  Biso   1.000  H
  H5       1.0000 0.44514  0.59912  0.57780  Biso   1.000  H
  C11      1.0000 0.31479  0.63488  0.62362  Biso   1.000  C
  H6       1.0000 0.68942  0.76240  0.41149  Biso   1.000  H
  C12      1.0000 0.87806  0.67371  0.39268  Biso   1.000  C
  C13      1.0000 0.25343  0.68790  0.62661  Biso   1.000  C
  C14      1.0000 0.20493  0.79142  0.58797  Biso   1.000  C
  C15      1.0000 0.28712  0.58173  0.66402  Biso   1.000  C
  N1       1.0000 0.88622  0.67282  0.46371  Biso   1.000  N
  N2       1.0000 0.96141  0.67668  0.35138  Biso   1.000  N
  H7       1.0000 0.19710  0.69030  0.65799  Biso   1.000  H
  C16      1.0000 0.17184  0.82399  0.52669  Biso   1.000  C
  C17      1.0000 0.17124  0.81178  0.65261  Biso   1.000  C
  C18      1.0000 0.36732  0.53980  0.68831  Biso   1.000  C
  C19      1.0000 0.17835  0.56899  0.67782  Biso   1.000  C
  C20      1.0000 0.98878  0.67202  0.49232  Biso   1.000  C
  C21      1.0000 0.05719  0.67841  0.39028  Biso   1.000  C
  H8       1.0000 0.19152  0.81050  0.48183  Biso   1.000  H
  C22      1.0000 0.11050  0.87599  0.52978  Biso   1.000  C
  C23      1.0000 0.10901  0.86312  0.65640  Biso   1.000  C
  H9       1.0000 0.19141  0.79000  0.69492  Biso   1.000  H
  H10      1.0000 0.44155  0.54632  0.67931  Biso   1.000  H
  C24      1.0000 0.34044  0.48935  0.72508  Biso   1.000  C
  C25      1.0000 0.15043  0.51899  0.71421  Biso   1.000  C
  H11      1.0000 0.12190  0.59602  0.66140  Biso   1.000  H
  O2       1.0000 0.00597  0.66820  0.56474  Biso   1.000  O
  N3       1.0000 0.07977  0.67371  0.46040  Biso   1.000  N
  Cl1      1.0000 0.17215  0.68338  0.34195  Biso   1.000  Cl
  H12      1.0000 0.08924  0.89799  0.48790  Biso   1.000  H
  C26      1.0000 0.08194  0.89467  0.59490  Biso   1.000  C
  H13      1.0000 0.08581  0.87599  0.70062  Biso   1.000  H
  H14      1.0000 0.39569  0.46180  0.74171  Biso   1.000  H
  C27      1.0000 0.23179  0.47981  0.73739  Biso   1.000  C
  H15      1.0000 0.07634  0.51189  0.72301  Biso   1.000  H
  C28      1.0000 0.91456  0.67992  0.60519  Biso   1.000  C
  O3       1.0000 0.01908  0.94884  0.59714  Biso   1.000  O
  O4       1.0000 0.20359  0.42825  0.77640  Biso   1.000  O
  C29      1.0000 0.91171  0.73290  0.63790  Biso   1.000  C
  C30      1.0000 0.83531  0.63728  0.61110  Biso   1.000  C
  C31      1.0000 0.07584  0.99632  0.62490  Biso   1.000  C
  C32      1.0000 0.22125  0.43291  0.84748  Biso   1.000  C
  C33      1.0000 0.82353  0.74652  0.67638  Biso   1.000  C
  H16      1.0000 0.96952  0.76072  0.63471  Biso   1.000  H
  H17      1.0000 0.84111  0.59952  0.58931  Biso   1.000  H
  C34      1.0000 0.74562  0.65081  0.64979  Biso   1.000  C
  N4       1.0000 0.18043  0.98793  0.64830  Biso   1.000  N
  N5       1.0000 0.01760  0.04672  0.62629  Biso   1.000  N
  N6       1.0000 0.26278  0.48305  0.87455  Biso   1.000  N
  N7       1.0000 0.19302  0.38491  0.88340  Biso   1.000  N
  C35      1.0000 0.73774  0.70605  0.68112  Biso   1.000  C
  H18      1.0000 0.82132  0.78379  0.69983  Biso   1.000  H
  H19      1.0000 0.69023  0.62188  0.65458  Biso   1.000  H
  C36      1.0000 0.22931  0.03678  0.67302  Biso   1.000  C
  C37      1.0000 0.07949  0.09038  0.65341  Biso   1.000  C
  C38      1.0000 0.27232  0.48487  0.94548  Biso   1.000  C
  C39      1.0000 0.20684  0.39418  0.95342  Biso   1.000  C
  C40      1.0000 0.63868  0.72331  0.71720  Biso   1.000  C
  O5       1.0000 0.33583  0.03297  0.69903  Biso   1.000  O
  N8       1.0000 0.18469  0.09078  0.67760  Biso   1.000  N
  Cl2      1.0000 0.01414  0.15946  0.66103  Biso   1.000  Cl
  O6       1.0000 0.31605  0.53332  0.97761  Biso   1.000  O
  N9       1.0000 0.24413  0.44201  0.98971  Biso   1.000  N
  Cl3      1.0000 0.16853  0.33552  0.00516  Biso   1.000  Cl
  C41      1.0000 0.59379  0.78037  0.70499  Biso   1.000  C
  C42      1.0000 0.58852  0.68400  0.76089  Biso   1.000  C
  C43      1.0000 0.37711  0.97382  0.70771  Biso   1.000  C
  C44      1.0000 0.35762  0.57703  0.93269  Biso   1.000  C
  C45      1.0000 0.50029  0.79768  0.73702  Biso   1.000  C
  H20      1.0000 0.62724  0.80721  0.67478  Biso   1.000  H
  H21      1.0000 0.61811  0.64531  0.76841  Biso   1.000  H
  C46      1.0000 0.49510  0.70042  0.79409  Biso   1.000  C
  C47      1.0000 0.41749  0.94538  0.64979  Biso   1.000  C
  C48      1.0000 0.37625  0.94733  0.77331  Biso   1.000  C
  C49      1.0000 0.28771  0.61052  0.88718  Biso   1.000  C
  C50      1.0000 0.47000  0.58408  0.93621  Biso   1.000  C
  C51      1.0000 0.45112  0.75765  0.78082  Biso   1.000  C
  C52      1.0000 0.45685  0.85904  0.72642  Biso   1.000  C
  C53      1.0000 0.44692  0.65849  0.84312  Biso   1.000  C
  C54      1.0000 0.45742  0.88761  0.65991  Biso   1.000  C
  H22      1.0000 0.41813  0.96468  0.60503  Biso   1.000  H
  H23      1.0000 0.34863  0.96801  0.81178  Biso   1.000  H
  C55      1.0000 0.41630  0.89014  0.78253  Biso   1.000  C
  C56      1.0000 0.33265  0.65112  0.84242  Biso   1.000  C
  H24      1.0000 0.21045  0.60600  0.88638  Biso   1.000  H
  H25      1.0000 0.51664  0.56172  0.96930  Biso   1.000  H
  C57      1.0000 0.51413  0.62423  0.89091  Biso   1.000  C
  H26      1.0000 0.38689  0.76910  0.80208  Biso   1.000  H
  H27      1.0000 0.48542  0.86720  0.62128  Biso   1.000  H
  H28      1.0000 0.41630  0.87168  0.82782  Biso   1.000  H
  H29      1.0000 0.28524  0.67428  0.81082  Biso   1.000  H
  H30      1.0000 0.59151  0.62849  0.89251  Biso   1.000  H
  C58      1.0000 0.45071  0.37439  0.53890  Biso   1.000  C
  C59      1.0000 0.36481  0.37701  0.58179  Biso   1.000  C
  C60      1.0000 0.48557  0.32021  0.51108  Biso   1.000  C
  H31      1.0000 0.48699  0.41002  0.52792  Biso   1.000  H
  C61      1.0000 0.31224  0.32589  0.59890  Biso   1.000  C
  H32      1.0000 0.34240  0.41410  0.59948  Biso   1.000  H
  C62      1.0000 0.43214  0.26999  0.53128  Biso   1.000  C
  C63      1.0000 0.57622  0.31751  0.46360  Biso   1.000  C
  O7       1.0000 0.22290  0.32758  0.64238  Biso   1.000  O
  C64      1.0000 0.34574  0.27301  0.57529  Biso   1.000  C
  H33      1.0000 0.45418  0.23241  0.51502  Biso   1.000  H
  C65      1.0000 0.64207  0.26622  0.46062  Biso   1.000  C
  C66      1.0000 0.59890  0.36618  0.42092  Biso   1.000  C
  C67      1.0000 0.12196  0.32629  0.60732  Biso   1.000  C
  H34      1.0000 0.31060  0.23760  0.58851  Biso   1.000  H
  C68      1.0000 0.72603  0.26342  0.41548  Biso   1.000  C
  H35      1.0000 0.62899  0.23312  0.48982  Biso   1.000  H
  C69      1.0000 0.68524  0.36512  0.37642  Biso   1.000  C
  H36      1.0000 0.55487  0.40088  0.42220  Biso   1.000  H
  N10      1.0000 0.11379  0.32718  0.53629  Biso   1.000  N
  N11      1.0000 0.03860  0.32332  0.64862  Biso   1.000  N
  C70      1.0000 0.79508  0.20858  0.41202  Biso   1.000  C
  C71      1.0000 0.74659  0.31210  0.37339  Biso   1.000  C
  C72      1.0000 0.71290  0.41827  0.33598  Biso   1.000  C
  C73      1.0000 0.01124  0.32798  0.50772  Biso   1.000  C
  C74      1.0000 0.94283  0.32159  0.60972  Biso   1.000  C
  C75      1.0000 0.82817  0.17601  0.47330  Biso   1.000  C
  C76      1.0000 0.82878  0.18822  0.34738  Biso   1.000  C
  H37      1.0000 0.80292  0.30970  0.34200  Biso   1.000  H
  C77      1.0000 0.63269  0.46020  0.31168  Biso   1.000  C
  C78      1.0000 0.82167  0.43101  0.32218  Biso   1.000  C
  O8       1.0000 0.99405  0.33180  0.43525  Biso   1.000  O
  N12      1.0000 0.92025  0.32629  0.53959  Biso   1.000  N
  Cl4      1.0000 0.82786  0.31662  0.65805  Biso   1.000  Cl
  C79      1.0000 0.88952  0.12401  0.47021  Biso   1.000  C
  H38      1.0000 0.80851  0.18950  0.51822  Biso   1.000  H
  C80      1.0000 0.89100  0.13688  0.34360  Biso   1.000  C
  H39      1.0000 0.80861  0.21000  0.30512  Biso   1.000  H
  C81      1.0000 0.65957  0.51065  0.27491  Biso   1.000  C
  H40      1.0000 0.55846  0.45368  0.32068  Biso   1.000  H
  C82      1.0000 0.84958  0.48101  0.28578  Biso   1.000  C
  H41      1.0000 0.87811  0.40398  0.33859  Biso   1.000  H
  C83      1.0000 0.08537  0.32008  0.39481  Biso   1.000  C
  C84      1.0000 0.91807  0.10533  0.40509  Biso   1.000  C
  H42      1.0000 0.91077  0.10201  0.51209  Biso   1.000  H
  H43      1.0000 0.91421  0.12401  0.29942  Biso   1.000  H
  C85      1.0000 0.76823  0.52019  0.26260  Biso   1.000  C
  H44      1.0000 0.60432  0.53820  0.25828  Biso   1.000  H
  H45      1.0000 0.92368  0.48811  0.27699  Biso   1.000  H
  C86      1.0000 0.08831  0.26710  0.36209  Biso   1.000  C
  C87      1.0000 0.16470  0.36272  0.38889  Biso   1.000  C
  O9       1.0000 0.98093  0.05116  0.40285  Biso   1.000  O
  O10      1.0000 0.79642  0.57175  0.22359  Biso   1.000  O
  C88      1.0000 0.17648  0.25348  0.32362  Biso   1.000  C
  H46      1.0000 0.03049  0.23928  0.36529  Biso   1.000  H
  C89      1.0000 0.25440  0.34919  0.35021  Biso   1.000  C
  H47      1.0000 0.15890  0.40048  0.41069  Biso   1.000  H
  C90      1.0000 0.92418  0.00368  0.37509  Biso   1.000  C
  C91      1.0000 0.77877  0.56709  0.15251  Biso   1.000  C
  C92      1.0000 0.26228  0.29395  0.31893  Biso   1.000  C
  H48      1.0000 0.17871  0.21621  0.30022  Biso   1.000  H
  H49      1.0000 0.30978  0.37812  0.34541  Biso   1.000  H
  N13      1.0000 0.81958  0.01207  0.35170  Biso   1.000  N
  N14      1.0000 0.98241  0.95328  0.37371  Biso   1.000  N
  N15      1.0000 0.73723  0.51695  0.12544  Biso   1.000  N
  N16      1.0000 0.80699  0.61509  0.11659  Biso   1.000  N
  C93      1.0000 0.36133  0.27669  0.28280  Biso   1.000  C
  C94      1.0000 0.77071  0.96322  0.32703  Biso   1.000  C
  C95      1.0000 0.92052  0.90962  0.34658  Biso   1.000  C
  C96      1.0000 0.72770  0.51513  0.05451  Biso   1.000  C
  C97      1.0000 0.79318  0.60582  0.04663  Biso   1.000  C
  C98      1.0000 0.40622  0.21963  0.29500  Biso   1.000  C
  C99      1.0000 0.41149  0.31600  0.23910  Biso   1.000  C
  O11      1.0000 0.66418  0.96703  0.30097  Biso   1.000  O
  N17      1.0000 0.81532  0.90922  0.32239  Biso   1.000  N
  Cl5      1.0000 0.98588  0.84054  0.33896  Biso   1.000  Cl
  O12      1.0000 0.68398  0.46668  0.02243  Biso   1.000  O
  N18      1.0000 0.75588  0.55799  0.01028  Biso   1.000  N
  Cl6      1.0000 0.83148  0.66448  0.99483  Biso   1.000  Cl
  C100     1.0000 0.49973  0.20232  0.26297  Biso   1.000  C
  H50      1.0000 0.37277  0.19279  0.32521  Biso   1.000  H
  H51      1.0000 0.38190  0.35469  0.23159  Biso   1.000  H
  C101     1.0000 0.50491  0.29958  0.20590  Biso   1.000  C
  C102     1.0000 0.62290  0.02618  0.29228  Biso   1.000  C
  C103     1.0000 0.64240  0.42297  0.06730  Biso   1.000  C
  C104     1.0000 0.54890  0.24235  0.21922  Biso   1.000  C
  C105     1.0000 0.54317  0.14096  0.27358  Biso   1.000  C
  C106     1.0000 0.55309  0.34151  0.15688  Biso   1.000  C
  C107     1.0000 0.58253  0.05462  0.35021  Biso   1.000  C
  C108     1.0000 0.62376  0.05267  0.22669  Biso   1.000  C
  C109     1.0000 0.71230  0.38948  0.11281  Biso   1.000  C
  C110     1.0000 0.53001  0.41592  0.06379  Biso   1.000  C
  H52      1.0000 0.61312  0.23090  0.19791  Biso   1.000  H
  C111     1.0000 0.54259  0.11239  0.34008  Biso   1.000  C
  C112     1.0000 0.58372  0.10986  0.21752  Biso   1.000  C
  C113     1.0000 0.66737  0.34888  0.15762  Biso   1.000  C
  C114     1.0000 0.48588  0.37577  0.10908  Biso   1.000  C
  H53      1.0000 0.58189  0.03532  0.39502  Biso   1.000  H
  H54      1.0000 0.65138  0.03199  0.18821  Biso   1.000  H
  H55      1.0000 0.78957  0.39400  0.11361  Biso   1.000  H
  H56      1.0000 0.48337  0.43828  0.03069  Biso   1.000  H
  H57      1.0000 0.51459  0.13280  0.37871  Biso   1.000  H
  H58      1.0000 0.58372  0.12832  0.17223  Biso   1.000  H
  H59      1.0000 0.71478  0.32572  0.18922  Biso   1.000  H
  H60      1.0000 0.40850  0.37151  0.10748  Biso   1.000  H
  C115     1.0000 0.62377  0.44733  0.72668  Biso   1.000  C
  C116     1.0000 0.58373  0.39014  0.71752  Biso   1.000  C
  C117     1.0000 0.62291  0.47382  0.79228  Biso   1.000  C
  H61      1.0000 0.65139  0.46801  0.68821  Biso   1.000  H
  C118     1.0000 0.54317  0.35904  0.77357  Biso   1.000  C
  H62      1.0000 0.58373  0.37168  0.67222  Biso   1.000  H
  C119     1.0000 0.58254  0.44538  0.85020  Biso   1.000  C
  O13      1.0000 0.66419  0.53297  0.80096  Biso   1.000  O
  C120     1.0000 0.49974  0.29768  0.76302  Biso   1.000  C
  C121     1.0000 0.54260  0.38761  0.84008  Biso   1.000  C
  H63      1.0000 0.58190  0.46468  0.89502  Biso   1.000  H
  C122     1.0000 0.77072  0.53678  0.82702  Biso   1.000  C
  C123     1.0000 0.54891  0.25765  0.71922  Biso   1.000  C
  C124     1.0000 0.40623  0.28037  0.79500  Biso   1.000  C
  H64      1.0000 0.51460  0.36720  0.87871  Biso   1.000  H
  N19      1.0000 0.81959  0.48793  0.85169  Biso   1.000  N
  N20      1.0000 0.81533  0.59078  0.82239  Biso   1.000  N
  C125     1.0000 0.50492  0.20042  0.70590  Biso   1.000  C
  H65      1.0000 0.61313  0.26910  0.69791  Biso   1.000  H
  C126     1.0000 0.36134  0.22331  0.78279  Biso   1.000  C
  H66      1.0000 0.37278  0.30721  0.82521  Biso   1.000  H
  C127     1.0000 0.92418  0.49632  0.87509  Biso   1.000  C
  C128     1.0000 0.92053  0.59038  0.84658  Biso   1.000  C
  C129     1.0000 0.55310  0.15849  0.65688  Biso   1.000  C
  C130     1.0000 0.41150  0.18400  0.73910  Biso   1.000  C
  C131     1.0000 0.26229  0.20605  0.81892  Biso   1.000  C
  O14      1.0000 0.98094  0.44884  0.90285  Biso   1.000  O
  N21      1.0000 0.98242  0.54672  0.87370  Biso   1.000  N
  Cl7      1.0000 0.98589  0.65946  0.83896  Biso   1.000  Cl
  C132     1.0000 0.48589  0.12423  0.60908  Biso   1.000  C
  C133     1.0000 0.66738  0.15112  0.65762  Biso   1.000  C
  H67      1.0000 0.38191  0.14531  0.73158  Biso   1.000  H
  C134     1.0000 0.17649  0.24652  0.82361  Biso   1.000  C
  C135     1.0000 0.25441  0.15081  0.85020  Biso   1.000  C
  C136     1.0000 0.91808  0.39467  0.90509  Biso   1.000  C
  C137     1.0000 0.53002  0.08408  0.56378  Biso   1.000  C
  H68      1.0000 0.40851  0.12849  0.60748  Biso   1.000  H
  C138     1.0000 0.71231  0.11052  0.61281  Biso   1.000  C
  H69      1.0000 0.71479  0.17428  0.68922  Biso   1.000  H
  H70      1.0000 0.17871  0.28379  0.80022  Biso   1.000  H
  C139     1.0000 0.08832  0.23290  0.86209  Biso   1.000  C
  C140     1.0000 0.16471  0.13728  0.88889  Biso   1.000  C
  H71      1.0000 0.30979  0.12188  0.84541  Biso   1.000  H
  C141     1.0000 0.88952  0.37599  0.97021  Biso   1.000  C
  C142     1.0000 0.89101  0.36312  0.84359  Biso   1.000  C
  C143     1.0000 0.64241  0.07703  0.56730  Biso   1.000  C
  H72      1.0000 0.48338  0.06172  0.53069  Biso   1.000  H
  H73      1.0000 0.78958  0.10600  0.61361  Biso   1.000  H
  H74      1.0000 0.03050  0.26072  0.86528  Biso   1.000  H
  C144     1.0000 0.08546  0.17992  0.89480  Biso   1.000  C
  H75      1.0000 0.15891  0.09952  0.91068  Biso   1.000  H
  C145     1.0000 0.82818  0.32399  0.97330  Biso   1.000  C
  H76      1.0000 0.91078  0.39799  0.01209  Biso   1.000  H
  C146     1.0000 0.82878  0.31178  0.84738  Biso   1.000  C
  H77      1.0000 0.91421  0.37599  0.79942  Biso   1.000  H
  O15      1.0000 0.68398  0.03332  0.52243  Biso   1.000  O
  O16      1.0000 0.99405  0.16820  0.93525  Biso   1.000  O
  C147     1.0000 0.79509  0.29142  0.91202  Biso   1.000  C
  H78      1.0000 0.80851  0.31050  0.01822  Biso   1.000  H
  H79      1.0000 0.80862  0.29000  0.80512  Biso   1.000  H
  C148     1.0000 0.72770  0.98487  0.55451  Biso   1.000  C
  C149     1.0000 0.01125  0.17202  0.00772  Biso   1.000  C
  C150     1.0000 0.72604  0.23658  0.91548  Biso   1.000  C
  N22      1.0000 0.73724  0.98305  0.62544  Biso   1.000  N
  N23      1.0000 0.75589  0.94201  0.51028  Biso   1.000  N
  N24      1.0000 0.92025  0.17371  0.03959  Biso   1.000  N
  N25      1.0000 0.11380  0.17282  0.03628  Biso   1.000  N
  C151     1.0000 0.74660  0.18790  0.87338  Biso   1.000  C
  C152     1.0000 0.64208  0.23378  0.96061  Biso   1.000  C
  C153     1.0000 0.77877  0.93291  0.65251  Biso   1.000  C
  C154     1.0000 0.79319  0.89418  0.54662  Biso   1.000  C
  C155     1.0000 0.94284  0.17841  0.10971  Biso   1.000  C
  C156     1.0000 0.12196  0.17371  0.10731  Biso   1.000  C
  C157     1.0000 0.68524  0.13488  0.87642  Biso   1.000  C
  H80      1.0000 0.80293  0.19030  0.84200  Biso   1.000  H
  C158     1.0000 0.57623  0.18249  0.96360  Biso   1.000  C
  H81      1.0000 0.62900  0.26688  0.98982  Biso   1.000  H
  O17      1.0000 0.79643  0.92825  0.72359  Biso   1.000  O
  N26      1.0000 0.80700  0.88491  0.61659  Biso   1.000  N
  Cl8      1.0000 0.83149  0.83552  0.49483  Biso   1.000  Cl
  Cl9      1.0000 0.82787  0.18338  0.15804  Biso   1.000  Cl
  N27      1.0000 0.03861  0.17668  0.14861  Biso   1.000  N
  O18      1.0000 0.22291  0.17242  0.14238  Biso   1.000  O
  C159     1.0000 0.71291  0.08173  0.83603  Biso   1.000  C
  C160     1.0000 0.59891  0.13382  0.92091  Biso   1.000  C
  C161     1.0000 0.48558  0.17979  0.01108  Biso   1.000  C
  C162     1.0000 0.76823  0.97981  0.76260  Biso   1.000  C
  C163     1.0000 0.31225  0.17411  0.09890  Biso   1.000  C
  C164     1.0000 0.82168  0.06899  0.82223  Biso   1.000  C
  C165     1.0000 0.63270  0.03980  0.81168  Biso   1.000  C
  H82      1.0000 0.55488  0.09912  0.92219  Biso   1.000  H
  C166     1.0000 0.43215  0.23001  0.03133  Biso   1.000  C
  C167     1.0000 0.45072  0.12561  0.03889  Biso   1.000  C
  C168     1.0000 0.84959  0.01899  0.78578  Biso   1.000  C
  C169     1.0000 0.65958  0.98935  0.77491  Biso   1.000  C
  C170     1.0000 0.34574  0.22699  0.07529  Biso   1.000  C
  C171     1.0000 0.36481  0.12299  0.08179  Biso   1.000  C
  H83      1.0000 0.87812  0.09602  0.83859  Biso   1.000  H
  H84      1.0000 0.55855  0.04632  0.82068  Biso   1.000  H
  H85      1.0000 0.45418  0.26759  0.01502  Biso   1.000  H
  H86      1.0000 0.48700  0.08998  0.02792  Biso   1.000  H
  H87      1.0000 0.92368  0.01189  0.77699  Biso   1.000  H
  H88      1.0000 0.60433  0.96180  0.75828  Biso   1.000  H
  H89      1.0000 0.31060  0.26240  0.08850  Biso   1.000  H
  H90      1.0000 0.34241  0.08590  0.09948  Biso   1.000  H
  C172     1.0000 0.37624  0.55267  0.27331  Biso   1.000  C
  C173     1.0000 0.37711  0.52618  0.20771  Biso   1.000  C
  H91      1.0000 0.34863  0.53199  0.31179  Biso   1.000  H
  C174     1.0000 0.41629  0.60986  0.28248  Biso   1.000  C
  O19      1.0000 0.33582  0.46703  0.19903  Biso   1.000  O
  C175     1.0000 0.41748  0.55462  0.14979  Biso   1.000  C
  C176     1.0000 0.45684  0.64096  0.22642  Biso   1.000  C
  H92      1.0000 0.41630  0.62832  0.32782  Biso   1.000  H
  C177     1.0000 0.22931  0.46322  0.17302  Biso   1.000  C
  C178     1.0000 0.45741  0.61239  0.15992  Biso   1.000  C
  H93      1.0000 0.41812  0.53532  0.10498  Biso   1.000  H
  C179     1.0000 0.50028  0.70232  0.23702  Biso   1.000  C
  N28      1.0000 0.18468  0.40922  0.17761  Biso   1.000  N
  N29      1.0000 0.18042  0.51207  0.14830  Biso   1.000  N
  H94      1.0000 0.48542  0.63280  0.12128  Biso   1.000  H
  C180     1.0000 0.59378  0.71963  0.20500  Biso   1.000  C
  C181     1.0000 0.45111  0.74235  0.28083  Biso   1.000  C
  C182     1.0000 0.07949  0.40962  0.15341  Biso   1.000  C
  C183     1.0000 0.07583  0.50368  0.12491  Biso   1.000  C
  H95      1.0000 0.62715  0.69279  0.17478  Biso   1.000  H
  C184     1.0000 0.63868  0.77669  0.21720  Biso   1.000  C
  C185     1.0000 0.49509  0.79958  0.29409  Biso   1.000  C
  H96      1.0000 0.38688  0.73090  0.30209  Biso   1.000  H
  Cl10     1.0000 0.01413  0.34054  0.16103  Biso   1.000  Cl
  N30      1.0000 0.01759  0.45328  0.12629  Biso   1.000  N
  O20      1.0000 0.01908  0.55116  0.09714  Biso   1.000  O
  C186     1.0000 0.58851  0.81600  0.26090  Biso   1.000  C
  C187     1.0000 0.73773  0.79395  0.18112  Biso   1.000  C
  C188     1.0000 0.44692  0.84151  0.34312  Biso   1.000  C
  C189     1.0000 0.08193  0.60533  0.09491  Biso   1.000  C
  H97      1.0000 0.61811  0.85469  0.26841  Biso   1.000  H
  C190     1.0000 0.82352  0.75348  0.17638  Biso   1.000  C
  C191     1.0000 0.74561  0.84919  0.14979  Biso   1.000  C
  C192     1.0000 0.33265  0.84888  0.34243  Biso   1.000  C
  C193     1.0000 0.51412  0.87577  0.39092  Biso   1.000  C
  C194     1.0000 0.11049  0.62401  0.02979  Biso   1.000  C
  C195     1.0000 0.10901  0.63688  0.15640  Biso   1.000  C
  H98      1.0000 0.82130  0.71621  0.19977  Biso   1.000  H
  C196     1.0000 0.91170  0.76710  0.13791  Biso   1.000  C
  C197     1.0000 0.83530  0.86272  0.11110  Biso   1.000  C
  H99      1.0000 0.69023  0.87812  0.15459  Biso   1.000  H
  H100     1.0000 0.28524  0.82572  0.31083  Biso   1.000  H
  C198     1.0000 0.28770  0.88948  0.38719  Biso   1.000  C
  C199     1.0000 0.46999  0.91592  0.43621  Biso   1.000  C
  H101     1.0000 0.59150  0.87151  0.39252  Biso   1.000  H
  C200     1.0000 0.17183  0.67601  0.02670  Biso   1.000  C
  H102     1.0000 0.08924  0.60201  0.98790  Biso   1.000  H
  H103     1.0000 0.08580  0.62401  0.20057  Biso   1.000  H
  C201     1.0000 0.17123  0.68822  0.15262  Biso   1.000  C
  H104     1.0000 0.96951  0.73928  0.13471  Biso   1.000  H
  C202     1.0000 0.91455  0.82008  0.10519  Biso   1.000  C
  H105     1.0000 0.84111  0.90048  0.08931  Biso   1.000  H
  H106     1.0000 0.21044  0.89400  0.38639  Biso   1.000  H
  C203     1.0000 0.35761  0.92297  0.43269  Biso   1.000  C
  H107     1.0000 0.51664  0.93828  0.46930  Biso   1.000  H
  C204     1.0000 0.20492  0.70858  0.08798  Biso   1.000  C
  H108     1.0000 0.19150  0.68950  0.98178  Biso   1.000  H
  H109     1.0000 0.19140  0.71000  0.19493  Biso   1.000  H
  O21      1.0000 0.00596  0.83180  0.06474  Biso   1.000  O
  O22      1.0000 0.31604  0.96668  0.47762  Biso   1.000  O
  C205     1.0000 0.27398  0.76342  0.08451  Biso   1.000  C
  C206     1.0000 0.98877  0.82798  0.99233  Biso   1.000  C
  C207     1.0000 0.27231  0.01513  0.44548  Biso   1.000  C
  C208     1.0000 0.35785  0.76622  0.03938  Biso   1.000  C
  C209     1.0000 0.25342  0.81210  0.12661  Biso   1.000  C
  N31      1.0000 0.88621  0.82718  0.96371  Biso   1.000  N
  N32      1.0000 0.07976  0.82629  0.96041  Biso   1.000  N
  N33      1.0000 0.26277  0.01695  0.37456  Biso   1.000  N
  N34      1.0000 0.24413  0.05799  0.48971  Biso   1.000  N
  H110     1.0000 0.37102  0.73312  0.01018  Biso   1.000  H
  C210     1.0000 0.42379  0.81751  0.03640  Biso   1.000  C
  C211     1.0000 0.31477  0.86512  0.12357  Biso   1.000  C
  H111     1.0000 0.19709  0.80970  0.15800  Biso   1.000  H
  C212     1.0000 0.87805  0.82629  0.89268  Biso   1.000  C
  C213     1.0000 0.05718  0.82159  0.89028  Biso   1.000  C
  C214     1.0000 0.22124  0.06709  0.34749  Biso   1.000  C
  C215     1.0000 0.20684  0.10582  0.45342  Biso   1.000  C
  C216     1.0000 0.40111  0.86618  0.07908  Biso   1.000  C
  C217     1.0000 0.51436  0.82021  0.98892  Biso   1.000  C
  C218     1.0000 0.28711  0.91827  0.16402  Biso   1.000  C
  O23      1.0000 0.77710  0.82758  0.85762  Biso   1.000  O
  N35      1.0000 0.96141  0.82332  0.85138  Biso   1.000  N
  Cl11     1.0000 0.17206  0.81662  0.84195  Biso   1.000  Cl
  O24      1.0000 0.20359  0.07175  0.27640  Biso   1.000  O
  N36      1.0000 0.19301  0.11509  0.38340  Biso   1.000  N
  Cl12     1.0000 0.16853  0.16448  0.50517  Biso   1.000  Cl
  H112     1.0000 0.44506  0.90088  0.07780  Biso   1.000  H
  C219     1.0000 0.56787  0.76999  0.96872  Biso   1.000  C
  C220     1.0000 0.54929  0.87439  0.96110  Biso   1.000  C
  C221     1.0000 0.36731  0.96020  0.18832  Biso   1.000  C
  C222     1.0000 0.17834  0.93101  0.17782  Biso   1.000  C
  C223     1.0000 0.68777  0.82589  0.90110  Biso   1.000  C
  C224     1.0000 0.23178  0.02019  0.23740  Biso   1.000  C
  H113     1.0000 0.54576  0.73241  0.98503  Biso   1.000  H
  C225     1.0000 0.65427  0.77301  0.92470  Biso   1.000  C
  C226     1.0000 0.63520  0.87701  0.91820  Biso   1.000  C
  H114     1.0000 0.51302  0.91002  0.97208  Biso   1.000  H
  H115     1.0000 0.44146  0.95368  0.17931  Biso   1.000  H
  C227     1.0000 0.34044  0.01065  0.22509  Biso   1.000  C
  C228     1.0000 0.15043  0.98101  0.21422  Biso   1.000  C
  H116     1.0000 0.12190  0.90398  0.16141  Biso   1.000  H
  H117     1.0000 0.68941  0.73760  0.91149  Biso   1.000  H
  H118     1.0000 0.65761  0.91410  0.90051  Biso   1.000  H
  H119     1.0000 0.39568  0.03820  0.24171  Biso   1.000  H
  H120     1.0000 0.07633  0.98811  0.22301  Biso   1.000  H
  Ne1      1.0000 0.55653  0.28464  0.33538  Biso   1.000  Ne
  He1      1.0000 0.49886  0.25701  0.38655  Biso   1.000  He
  He2      1.0000 0.53290  0.35486  0.31316  Biso   1.000  He
  He3      1.0000 0.65767  0.24844  0.31123  Biso   1.000  He
  Ar1      1.0000 0.55785  0.28620  0.33712  Biso   1.000  Ar
  Ne2      1.0000 0.44347  0.78464  0.16462  Biso   1.000  Ne
  He4      1.0000 0.34993  0.73252  0.18364  Biso   1.000  He
  He5      1.0000 0.46400  0.84540  0.18410  Biso   1.000  He
  He6      1.0000 0.50075  0.75712  0.11370  Biso   1.000  He
  Ar2      1.0000 0.44294  0.78631  0.16287  Biso   1.000  Ar
  Ne3      1.0000 0.55654  0.21536  0.83538  Biso   1.000  Ne
  He7      1.0000 0.50107  0.24199  0.88480  Biso   1.000  He
  He8      1.0000 0.48006  0.17271  0.84585  Biso   1.000  He
  He9      1.0000 0.63862  0.19575  0.78211  Biso   1.000  He
  Ar3      1.0000 0.55788  0.21379  0.83713  Biso   1.000  Ar
  Ne4      1.0000 0.44348  0.71536  0.66462  Biso   1.000  Ne
  He10     1.0000 0.24580  0.74687  0.77277  Biso   1.000  He
  He11     1.0000 0.46664  0.64673  0.68636  Biso   1.000  He
  He12     1.0000 0.35413  0.76496  0.68265  Biso   1.000  He
  He13     1.0000 0.59976  0.82346  0.56721  Biso   1.000  He
  Ar4      1.0000 0.44295  0.71369  0.66287  Biso   1.000  Ar
