data_image0
_cell_length_a       17.586
_cell_length_b       18.328
_cell_length_c       19.381
_cell_angle_alpha    90
_cell_angle_beta     91.08
_cell_angle_gamma    90

_symmetry_space_group_name_H-M    "P 1"
_symmetry_int_tables_number       1

loop_
  _symmetry_equiv_pos_as_xyz
  'x, y, z'

loop_
  _atom_site_label
  _atom_site_occupancy
  _atom_site_fract_x
  _atom_site_fract_y
  _atom_site_fract_z
  _atom_site_thermal_displace_type
  _atom_site_B_iso_or_equiv
  _atom_site_type_symbol
  C1       1.0000 0.60484  0.51097  0.52772  Biso   1.000  C
  O1       1.0000 0.64397  0.48636  0.47297  Biso   1.000  O
  N1       1.0000 0.57964  0.57862  0.52731  Biso   1.000  N
  N2       1.0000 0.59671  0.46077  0.57675  Biso   1.000  N
  C2       1.0000 0.67728  0.53830  0.42880  Biso   1.000  C
  C3       1.0000 0.53986  0.59472  0.58289  Biso   1.000  C
  C4       1.0000 0.55795  0.48620  0.63001  Biso   1.000  C
  C5       1.0000 0.75564  0.53978  0.42900  Biso   1.000  C
  C6       1.0000 0.63478  0.58293  0.38648  Biso   1.000  C
  O2       1.0000 0.51072  0.66270  0.58728  Biso   1.000  O
  N3       1.0000 0.52572  0.55183  0.63594  Biso   1.000  N
  O3       1.0000 0.54806  0.44375  0.68497  Biso   1.000  O
  H1       1.0000 0.78421  0.50698  0.45728  Biso   1.000  H
  C7       1.0000 0.79196  0.58992  0.38725  Biso   1.000  C
  C8       1.0000 0.67143  0.63226  0.34406  Biso   1.000  C
  H2       1.0000 0.58081  0.58010  0.38612  Biso   1.000  H
  C9       1.0000 0.53329  0.71164  0.53479  Biso   1.000  C
  C10      1.0000 0.59042  0.37478  0.69039  Biso   1.000  C
  H3       1.0000 0.84600  0.59232  0.38792  Biso   1.000  H
  C11      1.0000 0.75030  0.63668  0.34432  Biso   1.000  C
  H4       1.0000 0.64221  0.66330  0.31459  Biso   1.000  H
  C12      1.0000 0.49786  0.71072  0.47194  Biso   1.000  C
  C13      1.0000 0.59186  0.75840  0.54878  Biso   1.000  C
  H5       1.0000 0.55683  0.33561  0.70731  Biso   1.000  H
  H6       1.0000 0.60932  0.36038  0.64461  Biso   1.000  H
  C14      1.0000 0.65669  0.38591  0.74039  Biso   1.000  C
  C15      1.0000 0.67622  0.38100  0.70349  Biso   1.000  C
  C16      1.0000 0.79062  0.69031  0.30050  Biso   1.000  C
  H7       1.0000 0.45448  0.68082  0.46399  Biso   1.000  H
  C17      1.0000 0.52583  0.75420  0.41940  Biso   1.000  C
  C18      1.0000 0.61897  0.80232  0.49593  Biso   1.000  C
  H8       1.0000 0.61389  0.76102  0.59388  Biso   1.000  H
  C19      1.0000 0.71688  0.43589  0.71449  Biso   1.000  C
  H9       1.0000 0.67999  0.33790  0.75082  Biso   1.000  H
  H10      1.0000 0.63712  0.40583  0.78410  Biso   1.000  H
  C20      1.0000 0.69313  0.41210  0.77290  Biso   1.000  C
  H11      1.0000 0.66291  0.38548  0.80738  Biso   1.000  H
  H12      1.0000 0.69862  0.41270  0.66778  Biso   1.000  H
  H13      1.0000 0.69969  0.33211  0.69999  Biso   1.000  H
  C21      1.0000 0.76895  0.70210  0.23212  Biso   1.000  C
  C22      1.0000 0.85327  0.72741  0.32739  Biso   1.000  C
  H14      1.0000 0.50097  0.75327  0.37538  Biso   1.000  H
  C23      1.0000 0.58892  0.79878  0.42931  Biso   1.000  C
  H15      1.0000 0.65909  0.83561  0.50579  Biso   1.000  H
  C24      1.0000 0.78259  0.44342  0.76831  Biso   1.000  C
  H16      1.0000 0.73712  0.41652  0.67078  Biso   1.000  H
  H17      1.0000 0.69462  0.48461  0.70499  Biso   1.000  H
  C25      1.0000 0.77808  0.40817  0.79458  Biso   1.000  C
  H18      1.0000 0.67670  0.46372  0.77342  Biso   1.000  H
  C26      1.0000 0.80982  0.74973  0.19012  Biso   1.000  C
  H19      1.0000 0.72569  0.67749  0.21349  Biso   1.000  H
  H20      1.0000 0.86840  0.71928  0.37409  Biso   1.000  H
  C27      1.0000 0.89453  0.77613  0.28786  Biso   1.000  C
  C28      1.0000 0.62354  0.83964  0.37094  Biso   1.000  C
  H21      1.0000 0.82303  0.47381  0.74932  Biso   1.000  H
  H22      1.0000 0.76339  0.46623  0.81032  Biso   1.000  H
  H23      1.0000 0.80290  0.39491  0.77951  Biso   1.000  H
  H24      1.0000 0.80880  0.43251  0.75980  Biso   1.000  H
  H25      1.0000 0.78560  0.43273  0.83922  Biso   1.000  H
  H26      1.0000 0.79369  0.35710  0.79871  Biso   1.000  H
  C29      1.0000 0.87205  0.78656  0.21881  Biso   1.000  C
  C30      1.0000 0.78775  0.75818  0.11580  Biso   1.000  C
  C31      1.0000 0.96141  0.81542  0.31846  Biso   1.000  C
  C32      1.0000 0.59082  0.83790  0.30448  Biso   1.000  C
  C33      1.0000 0.69004  0.88046  0.38059  Biso   1.000  C
  H27      1.0000 0.89991  0.81940  0.19099  Biso   1.000  H
  C34      1.0000 0.75611  0.70051  0.07932  Biso   1.000  C
  C35      1.0000 0.79912  0.82322  0.08020  Biso   1.000  C
  C36      1.0000 0.96759  0.82677  0.38906  Biso   1.000  C
  C37      1.0000 0.01856  0.84254  0.27743  Biso   1.000  C
  H28      1.0000 0.54641  0.80953  0.29622  Biso   1.000  H
  C38      1.0000 0.62222  0.87691  0.25013  Biso   1.000  C
  H29      1.0000 0.71427  0.88067  0.42482  Biso   1.000  H
  C39      1.0000 0.72186  0.92067  0.32754  Biso   1.000  C
  C40      1.0000 0.73398  0.70701  0.01042  Biso   1.000  C
  H30      1.0000 0.74931  0.65512  0.10208  Biso   1.000  H
  C41      1.0000 0.77756  0.83048  0.01146  Biso   1.000  C
  H31      1.0000 0.82212  0.86332  0.10352  Biso   1.000  H
  H32      1.0000 0.92971  0.80751  0.41832  Biso   1.000  H
  C42      1.0000 0.02784  0.86545  0.41796  Biso   1.000  C
  C43      1.0000 0.07817  0.88280  0.30556  Biso   1.000  C
  H33      1.0000 0.01687  0.83332  0.22918  Biso   1.000  H
  C44      1.0000 0.58568  0.87582  0.18021  Biso   1.000  C
  C45      1.0000 0.68741  0.91816  0.26211  Biso   1.000  C
  C46      1.0000 0.78872  0.96901  0.34076  Biso   1.000  C
  H34      1.0000 0.71278  0.66668  0.98607  Biso   1.000  H
  C47      1.0000 0.74349  0.77286  0.97838  Biso   1.000  C
  H35      1.0000 0.78628  0.87489  0.98756  Biso   1.000  H
  H36      1.0000 0.03209  0.87178  0.46652  Biso   1.000  H
  C48      1.0000 0.08109  0.89448  0.37533  Biso   1.000  C
  H37      1.0000 0.11652  0.90212  0.27682  Biso   1.000  H
  C49      1.0000 0.55917  0.81225  0.14961  Biso   1.000  C
  C50      1.0000 0.57933  0.94086  0.14259  Biso   1.000  C
  H38      1.0000 0.70882  0.94500  0.22531  Biso   1.000  H
  C51      1.0000 0.84071  0.98609  0.28951  Biso   1.000  C
  C52      1.0000 0.79979  0.00082  0.40542  Biso   1.000  C
  O4       1.0000 0.72162  0.77892  0.90788  Biso   1.000  O
  O5       1.0000 0.13878  0.94020  0.40397  Biso   1.000  O
  C53      1.0000 0.52953  0.81176  0.08278  Biso   1.000  C
  H39      1.0000 0.56129  0.76790  0.17500  Biso   1.000  H
  C54      1.0000 0.54996  0.94135  0.07576  Biso   1.000  C
  H40      1.0000 0.59551  0.98538  0.16318  Biso   1.000  H
  H41      1.0000 0.83542  0.96350  0.24559  Biso   1.000  H
  C55      1.0000 0.89986  0.03514  0.30107  Biso   1.000  C
  H42      1.0000 0.76631  0.98892  0.44159  Biso   1.000  H
  C56      1.0000 0.85868  0.04949  0.41791  Biso   1.000  C
  C57      1.0000 0.65237  0.80734  0.89462  Biso   1.000  C
  C58      1.0000 0.11798  0.01080  0.41001  Biso   1.000  C
  H43      1.0000 0.51170  0.76779  0.06229  Biso   1.000  H
  C59      1.0000 0.52662  0.87642  0.04676  Biso   1.000  C
  H44      1.0000 0.54603  0.98560  0.05052  Biso   1.000  H
  C60      1.0000 0.90717  0.06667  0.36527  Biso   1.000  C
  H45      1.0000 0.93438  0.04660  0.26551  Biso   1.000  H
  H46      1.0000 0.86562  0.07082  0.46229  Biso   1.000  H
  N4       1.0000 0.61093  0.82928  0.94752  Biso   1.000  N
  N5       1.0000 0.63358  0.81084  0.82800  Biso   1.000  N
  N6       1.0000 0.17170  0.05522  0.43375  Biso   1.000  N
  N7       1.0000 0.04725  0.02788  0.39143  Biso   1.000  N
  O6       1.0000 0.49670  0.87844  0.97807  Biso   1.000  O
  O7       1.0000 0.96278  0.12151  0.37900  Biso   1.000  O
  C61      1.0000 0.54474  0.85699  0.92842  Biso   1.000  C
  C62      1.0000 0.56568  0.84215  0.81690  Biso   1.000  C
  C63      1.0000 0.14754  0.12429  0.43721  Biso   1.000  C
  C64      1.0000 0.03259  0.09788  0.39737  Biso   1.000  C
  N8       1.0000 0.51799  0.86703  0.86438  Biso   1.000  N
  O8       1.0000 0.54741  0.84805  0.75028  Biso   1.000  O
  O9       1.0000 0.20054  0.16985  0.46198  Biso   1.000  O
  N9       1.0000 0.07924  0.15010  0.42002  Biso   1.000  N
  C65      1.0000 0.48184  0.89175  0.73067  Biso   1.000  C
  C66      1.0000 0.18461  0.24771  0.46399  Biso   1.000  C
  H47      1.0000 0.43506  0.87118  0.75069  Biso   1.000  H
  H48      1.0000 0.48815  0.94249  0.74728  Biso   1.000  H
  C67      1.0000 0.47681  0.88990  0.65279  Biso   1.000  C
  C68      1.0000 0.19661  0.28290  0.39592  Biso   1.000  C
  H49      1.0000 0.13133  0.25540  0.47782  Biso   1.000  H
  H50      1.0000 0.21809  0.27112  0.49919  Biso   1.000  H
  C69      1.0000 0.41486  0.93949  0.62446  Biso   1.000  C
  H51      1.0000 0.52628  0.90501  0.63385  Biso   1.000  H
  H52      1.0000 0.46659  0.83932  0.63736  Biso   1.000  H
  H53      1.0000 0.23149  0.25158  0.36940  Biso   1.000  H
  H54      1.0000 0.14730  0.28372  0.37048  Biso   1.000  H
  C70      1.0000 0.22949  0.36251  0.39618  Biso   1.000  C
  C71      1.0000 0.18170  0.36649  0.41693  Biso   1.000  C
  C72      1.0000 0.41027  0.93638  0.54576  Biso   1.000  C
  H55      1.0000 0.36539  0.92471  0.64356  Biso   1.000  H
  H56      1.0000 0.42529  0.99029  0.63927  Biso   1.000  H
  H57      1.0000 0.26410  0.36982  0.35711  Biso   1.000  H
  H58      1.0000 0.25780  0.37249  0.43989  Biso   1.000  H
  C73      1.0000 0.16219  0.41008  0.38942  Biso   1.000  C
  C74      1.0000 0.23349  0.41161  0.37528  Biso   1.000  C
  H59      1.0000 0.12871  0.40201  0.42849  Biso   1.000  H
  H60      1.0000 0.19240  0.37380  0.46678  Biso   1.000  H
  H61      1.0000 0.12810  0.37991  0.40702  Biso   1.000  H
  H62      1.0000 0.37057  0.96977  0.52889  Biso   1.000  H
  H63      1.0000 0.45929  0.95068  0.52677  Biso   1.000  H
  H64      1.0000 0.39786  0.88651  0.53106  Biso   1.000  H
  H65      1.0000 0.17850  0.46132  0.38890  Biso   1.000  H
  H66      1.0000 0.13468  0.39879  0.34628  Biso   1.000  H
  H67      1.0000 0.20731  0.45651  0.36088  Biso   1.000  H
  H68      1.0000 0.27882  0.42411  0.40310  Biso   1.000  H
  H69      1.0000 0.24862  0.38422  0.33441  Biso   1.000  H
  C75      1.0000 0.39517  0.48903  0.47225  Biso   1.000  C
  N10      1.0000 0.42032  0.42138  0.47271  Biso   1.000  N
  N11      1.0000 0.40325  0.53923  0.42322  Biso   1.000  N
  O10      1.0000 0.35600  0.51364  0.52705  Biso   1.000  O
  C76      1.0000 0.46016  0.40528  0.41713  Biso   1.000  C
  C77      1.0000 0.44207  0.51380  0.37002  Biso   1.000  C
  C78      1.0000 0.32274  0.46170  0.57123  Biso   1.000  C
  O11      1.0000 0.48930  0.33730  0.41275  Biso   1.000  O
  N12      1.0000 0.47430  0.44817  0.36408  Biso   1.000  N
  O12      1.0000 0.45190  0.55625  0.31500  Biso   1.000  O
  C79      1.0000 0.24437  0.46022  0.57097  Biso   1.000  C
  C80      1.0000 0.36524  0.41707  0.61354  Biso   1.000  C
  C81      1.0000 0.46668  0.28836  0.46523  Biso   1.000  C
  C82      1.0000 0.40959  0.62522  0.30958  Biso   1.000  C
  H70      1.0000 0.21581  0.49302  0.54269  Biso   1.000  H
  C83      1.0000 0.20800  0.41008  0.61277  Biso   1.000  C
  C84      1.0000 0.32859  0.36774  0.65591  Biso   1.000  C
  H71      1.0000 0.41921  0.41990  0.61391  Biso   1.000  H
  C85      1.0000 0.40816  0.24160  0.45119  Biso   1.000  C
  C86      1.0000 0.50216  0.28928  0.52809  Biso   1.000  C
  H72      1.0000 0.44319  0.66439  0.29271  Biso   1.000  H
  H73      1.0000 0.39070  0.63962  0.35541  Biso   1.000  H
  C87      1.0000 0.34327  0.61409  0.25958  Biso   1.000  C
  C88      1.0000 0.32380  0.61900  0.29648  Biso   1.000  C
  H74      1.0000 0.15402  0.40768  0.61210  Biso   1.000  H
  C89      1.0000 0.24966  0.36332  0.65571  Biso   1.000  C
  H75      1.0000 0.35781  0.33670  0.68538  Biso   1.000  H
  C90      1.0000 0.38105  0.19768  0.50404  Biso   1.000  C
  H76      1.0000 0.38612  0.23898  0.40609  Biso   1.000  H
  C91      1.0000 0.47419  0.24580  0.58062  Biso   1.000  C
  H77      1.0000 0.54548  0.31918  0.53598  Biso   1.000  H
  C92      1.0000 0.28308  0.56411  0.28548  Biso   1.000  C
  H78      1.0000 0.31997  0.66210  0.24921  Biso   1.000  H
  H79      1.0000 0.36290  0.59417  0.21592  Biso   1.000  H
  C93      1.0000 0.30689  0.58790  0.22712  Biso   1.000  C
  H80      1.0000 0.33711  0.61452  0.19259  Biso   1.000  H
  H81      1.0000 0.30140  0.58730  0.33219  Biso   1.000  H
  H82      1.0000 0.30027  0.66789  0.29999  Biso   1.000  H
  C94      1.0000 0.20940  0.30969  0.69952  Biso   1.000  C
  H83      1.0000 0.34093  0.16439  0.49418  Biso   1.000  H
  C95      1.0000 0.41109  0.20122  0.57071  Biso   1.000  C
  H84      1.0000 0.49899  0.24673  0.62459  Biso   1.000  H
  C96      1.0000 0.21743  0.55658  0.23171  Biso   1.000  C
  H85      1.0000 0.26289  0.58348  0.32920  Biso   1.000  H
  H86      1.0000 0.30540  0.51539  0.29498  Biso   1.000  H
  C97      1.0000 0.22188  0.59183  0.20539  Biso   1.000  C
  H87      1.0000 0.32331  0.53628  0.22660  Biso   1.000  H
  C98      1.0000 0.23107  0.29790  0.76790  Biso   1.000  C
  C99      1.0000 0.14675  0.27259  0.67258  Biso   1.000  C
  C100     1.0000 0.37642  0.16036  0.62908  Biso   1.000  C
  H88      1.0000 0.17699  0.52619  0.25070  Biso   1.000  H
  H89      1.0000 0.23663  0.53377  0.18970  Biso   1.000  H
  H90      1.0000 0.19712  0.60509  0.22051  Biso   1.000  H
  H91      1.0000 0.19122  0.56749  0.24017  Biso   1.000  H
  H92      1.0000 0.21442  0.56727  0.16080  Biso   1.000  H
  H93      1.0000 0.20627  0.64290  0.20132  Biso   1.000  H
  C101     1.0000 0.19020  0.25027  0.80991  Biso   1.000  C
  H94      1.0000 0.27433  0.32251  0.78648  Biso   1.000  H
  H95      1.0000 0.13162  0.28072  0.62588  Biso   1.000  H
  C102     1.0000 0.10543  0.22387  0.71216  Biso   1.000  C
  C103     1.0000 0.40919  0.16210  0.69555  Biso   1.000  C
  C104     1.0000 0.30992  0.11954  0.61938  Biso   1.000  C
  C105     1.0000 0.12791  0.21344  0.78121  Biso   1.000  C
  C106     1.0000 0.21221  0.24182  0.88417  Biso   1.000  C
  C107     1.0000 0.03861  0.18458  0.68156  Biso   1.000  C
  H96      1.0000 0.45361  0.19047  0.70380  Biso   1.000  H
  C108     1.0000 0.37774  0.12309  0.74989  Biso   1.000  C
  H97      1.0000 0.28569  0.11933  0.57520  Biso   1.000  H
  C109     1.0000 0.27810  0.07933  0.67243  Biso   1.000  C
  H98      1.0000 0.10011  0.18060  0.80898  Biso   1.000  H
  C110     1.0000 0.24391  0.29949  0.92065  Biso   1.000  C
  C111     1.0000 0.20084  0.17678  0.91978  Biso   1.000  C
  C112     1.0000 0.03242  0.17323  0.61091  Biso   1.000  C
  C113     1.0000 0.98140  0.15746  0.72254  Biso   1.000  C
  C114     1.0000 0.41428  0.12418  0.81981  Biso   1.000  C
  C115     1.0000 0.31261  0.08184  0.73786  Biso   1.000  C
  C116     1.0000 0.21129  0.03099  0.65922  Biso   1.000  C
  C117     1.0000 0.26598  0.29299  0.98955  Biso   1.000  C
  H99      1.0000 0.25071  0.34488  0.89789  Biso   1.000  H
  C118     1.0000 0.22246  0.16952  0.98857  Biso   1.000  C
  H100     1.0000 0.17790  0.13668  0.89650  Biso   1.000  H
  C119     1.0000 0.97217  0.13455  0.58207  Biso   1.000  C
  H101     1.0000 0.07031  0.19249  0.58170  Biso   1.000  H
  C120     1.0000 0.92180  0.11720  0.69446  Biso   1.000  C
  H102     1.0000 0.98309  0.16668  0.77079  Biso   1.000  H
  C121     1.0000 0.44084  0.18775  0.85042  Biso   1.000  C
  C122     1.0000 0.42063  0.05914  0.85744  Biso   1.000  C
  H103     1.0000 0.29120  0.05500  0.77471  Biso   1.000  H
  C123     1.0000 0.15930  0.01391  0.71046  Biso   1.000  C
  C124     1.0000 0.20023  0.99918  0.59461  Biso   1.000  C
  C125     1.0000 0.25646  0.22714  0.02159  Biso   1.000  C
  H104     1.0000 0.28724  0.33332  0.01390  Biso   1.000  H
  H105     1.0000 0.21374  0.12511  0.01241  Biso   1.000  H
  C126     1.0000 0.91892  0.10552  0.62469  Biso   1.000  C
  H106     1.0000 0.96792  0.12822  0.53350  Biso   1.000  H
  H107     1.0000 0.88350  0.09788  0.72321  Biso   1.000  H
  C127     1.0000 0.47043  0.18824  0.91720  Biso   1.000  C
  H108     1.0000 0.43872  0.23210  0.82497  Biso   1.000  H
  C128     1.0000 0.45005  0.05865  0.92427  Biso   1.000  C
  H109     1.0000 0.40451  0.01462  0.83679  Biso   1.000  H
  H110     1.0000 0.16460  0.03650  0.75438  Biso   1.000  H
  C129     1.0000 0.10016  0.96486  0.69895  Biso   1.000  C
  H111     1.0000 0.23371  0.01108  0.55838  Biso   1.000  H
  C130     1.0000 0.14128  0.95051  0.58207  Biso   1.000  C
  O13      1.0000 0.27840  0.22108  0.09214  Biso   1.000  O
  O14      1.0000 0.86118  0.05980  0.59605  Biso   1.000  O
  H112     1.0000 0.48832  0.23221  0.93768  Biso   1.000  H
  C131     1.0000 0.47340  0.12358  0.95327  Biso   1.000  C
  H113     1.0000 0.45399  0.01440  0.94950  Biso   1.000  H
  C132     1.0000 0.09285  0.93333  0.63475  Biso   1.000  C
  H114     1.0000 0.06558  0.95340  0.73451  Biso   1.000  H
  H115     1.0000 0.13439  0.92918  0.53768  Biso   1.000  H
  C133     1.0000 0.34759  0.19266  0.10535  Biso   1.000  C
  C134     1.0000 0.88198  0.98920  0.59001  Biso   1.000  C
  O15      1.0000 0.50332  0.12156  0.02190  Biso   1.000  O
  O16      1.0000 0.03718  0.87849  0.62098  Biso   1.000  O
  N13      1.0000 0.38909  0.17072  0.05251  Biso   1.000  N
  N14      1.0000 0.36638  0.18916  0.17197  Biso   1.000  N
  N15      1.0000 0.95276  0.97212  0.60859  Biso   1.000  N
  N16      1.0000 0.82826  0.94478  0.56627  Biso   1.000  N
  C135     1.0000 0.45522  0.14301  0.07160  Biso   1.000  C
  C136     1.0000 0.96737  0.90212  0.60260  Biso   1.000  C
  C137     1.0000 0.43433  0.15785  0.18312  Biso   1.000  C
  C138     1.0000 0.85247  0.87571  0.56276  Biso   1.000  C
  N17      1.0000 0.48197  0.13297  0.13564  Biso   1.000  N
  N18      1.0000 0.92078  0.84990  0.57995  Biso   1.000  N
  O17      1.0000 0.45261  0.15195  0.24974  Biso   1.000  O
  O18      1.0000 0.79942  0.83015  0.53805  Biso   1.000  O
  C139     1.0000 0.51818  0.10825  0.26930  Biso   1.000  C
  C140     1.0000 0.81541  0.75229  0.53598  Biso   1.000  C
  H116     1.0000 0.56490  0.12882  0.24933  Biso   1.000  H
  H117     1.0000 0.51181  0.05751  0.25274  Biso   1.000  H
  C141     1.0000 0.52321  0.11010  0.34723  Biso   1.000  C
  C142     1.0000 0.80340  0.71710  0.60410  Biso   1.000  C
  H118     1.0000 0.86869  0.74460  0.52220  Biso   1.000  H
  H119     1.0000 0.78193  0.72888  0.50079  Biso   1.000  H
  C143     1.0000 0.58509  0.06051  0.37551  Biso   1.000  C
  H120     1.0000 0.47373  0.09499  0.36612  Biso   1.000  H
  H121     1.0000 0.53342  0.16068  0.36261  Biso   1.000  H
  H122     1.0000 0.76847  0.74842  0.63057  Biso   1.000  H
  H123     1.0000 0.85272  0.71628  0.62949  Biso   1.000  H
  C144     1.0000 0.77047  0.63749  0.60379  Biso   1.000  C
  C145     1.0000 0.81832  0.63351  0.58310  Biso   1.000  C
  C146     1.0000 0.58974  0.06362  0.45426  Biso   1.000  C
  H124     1.0000 0.63462  0.07529  0.35641  Biso   1.000  H
  H125     1.0000 0.57472  0.00971  0.36070  Biso   1.000  H
  H126     1.0000 0.73592  0.63018  0.64291  Biso   1.000  H
  H127     1.0000 0.74222  0.62751  0.56008  Biso   1.000  H
  C147     1.0000 0.83777  0.58992  0.61060  Biso   1.000  C
  C148     1.0000 0.76647  0.58839  0.62469  Biso   1.000  C
  H128     1.0000 0.87130  0.59799  0.57149  Biso   1.000  H
  H129     1.0000 0.80762  0.62620  0.53319  Biso   1.000  H
  H130     1.0000 0.87192  0.62009  0.59301  Biso   1.000  H
  H131     1.0000 0.62944  0.03023  0.47113  Biso   1.000  H
  H132     1.0000 0.54072  0.04932  0.47320  Biso   1.000  H
  H133     1.0000 0.60210  0.11349  0.46892  Biso   1.000  H
  H134     1.0000 0.82152  0.53868  0.61112  Biso   1.000  H
  H135     1.0000 0.86528  0.60121  0.65369  Biso   1.000  H
  H136     1.0000 0.79270  0.54349  0.63909  Biso   1.000  H
  H137     1.0000 0.72120  0.57589  0.59688  Biso   1.000  H
  H138     1.0000 0.75140  0.61578  0.66562  Biso   1.000  H
  C149     1.0000 0.72242  0.33048  0.48855  Biso   1.000  C
  C150     1.0000 0.70086  0.32322  0.41982  Biso   1.000  C
  C151     1.0000 0.75648  0.27286  0.52158  Biso   1.000  C
  H139     1.0000 0.71370  0.37489  0.51240  Biso   1.000  H
  C152     1.0000 0.71223  0.25818  0.38416  Biso   1.000  C
  H140     1.0000 0.67792  0.36332  0.39649  Biso   1.000  H
  C153     1.0000 0.76600  0.20701  0.48954  Biso   1.000  C
  O19      1.0000 0.77836  0.27892  0.59208  Biso   1.000  O
  C154     1.0000 0.69022  0.24973  0.30989  Biso   1.000  C
  C155     1.0000 0.74387  0.20051  0.42064  Biso   1.000  C
  H141     1.0000 0.78720  0.16668  0.51389  Biso   1.000  H
  C156     1.0000 0.84761  0.30734  0.60534  Biso   1.000  C
  C157     1.0000 0.62793  0.28656  0.28120  Biso   1.000  C
  C158     1.0000 0.73108  0.20210  0.26789  Biso   1.000  C
  H142     1.0000 0.75067  0.15512  0.39788  Biso   1.000  H
  N19      1.0000 0.88905  0.32928  0.55249  Biso   1.000  N
  N20      1.0000 0.86640  0.31084  0.67196  Biso   1.000  N
  C159     1.0000 0.60545  0.27613  0.21215  Biso   1.000  C
  H143     1.0000 0.60007  0.31940  0.30902  Biso   1.000  H
  C160     1.0000 0.70936  0.19031  0.19951  Biso   1.000  C
  H144     1.0000 0.77429  0.17749  0.28652  Biso   1.000  H
  C161     1.0000 0.95524  0.35699  0.57154  Biso   1.000  C
  C162     1.0000 0.93430  0.34215  0.68311  Biso   1.000  C
  C163     1.0000 0.53857  0.31542  0.18155  Biso   1.000  C
  C164     1.0000 0.64671  0.22741  0.17257  Biso   1.000  C
  C165     1.0000 0.74968  0.13668  0.15570  Biso   1.000  C
  N21      1.0000 0.98199  0.36703  0.63563  Biso   1.000  N
  O20      1.0000 0.00328  0.37844  0.52189  Biso   1.000  O
  O21      1.0000 0.95257  0.34805  0.74973  Biso   1.000  O
  C166     1.0000 0.48142  0.34254  0.22258  Biso   1.000  C
  C167     1.0000 0.53238  0.32677  0.11090  Biso   1.000  C
  H145     1.0000 0.63158  0.21928  0.12592  Biso   1.000  H
  C168     1.0000 0.82861  0.13226  0.15595  Biso   1.000  C
  C169     1.0000 0.70802  0.08992  0.11276  Biso   1.000  C
  C170     1.0000 0.97336  0.37642  0.45326  Biso   1.000  C
  C171     1.0000 0.01814  0.39175  0.76929  Biso   1.000  C
  C172     1.0000 0.42181  0.38280  0.19445  Biso   1.000  C
  H146     1.0000 0.48311  0.33332  0.27078  Biso   1.000  H
  C173     1.0000 0.47219  0.36545  0.08205  Biso   1.000  C
  H147     1.0000 0.57027  0.30751  0.08169  Biso   1.000  H
  H148     1.0000 0.85783  0.16330  0.18542  Biso   1.000  H
  C174     1.0000 0.86526  0.08293  0.11353  Biso   1.000  C
  C175     1.0000 0.74439  0.03978  0.07096  Biso   1.000  C
  H149     1.0000 0.65398  0.09232  0.11209  Biso   1.000  H
  C176     1.0000 0.97045  0.31176  0.41718  Biso   1.000  C
  C177     1.0000 0.95007  0.44135  0.42425  Biso   1.000  C
  H150     1.0000 0.06492  0.37118  0.74932  Biso   1.000  H
  H151     1.0000 0.01182  0.44249  0.75267  Biso   1.000  H
  C178     1.0000 0.02317  0.38990  0.84717  Biso   1.000  C
  H152     1.0000 0.38352  0.40212  0.22320  Biso   1.000  H
  C179     1.0000 0.41889  0.39448  0.12468  Biso   1.000  C
  H153     1.0000 0.46789  0.37178  0.03349  Biso   1.000  H
  H154     1.0000 0.91917  0.08010  0.11389  Biso   1.000  H
  C180     1.0000 0.82276  0.03830  0.07122  Biso   1.000  C
  H155     1.0000 0.71577  0.00698  0.04268  Biso   1.000  H
  C181     1.0000 0.94086  0.31225  0.35041  Biso   1.000  C
  H156     1.0000 0.98828  0.26779  0.43772  Biso   1.000  H
  C182     1.0000 0.92065  0.44086  0.35742  Biso   1.000  C
  H157     1.0000 0.95401  0.48560  0.44949  Biso   1.000  H
  H158     1.0000 0.97369  0.40501  0.86611  Biso   1.000  H
  C183     1.0000 0.08511  0.43949  0.87550  Biso   1.000  C
  H159     1.0000 0.03338  0.33932  0.86260  Biso   1.000  H
  O22      1.0000 0.36120  0.44020  0.09604  Biso   1.000  O
  O23      1.0000 0.85601  0.98636  0.02704  Biso   1.000  O
  C184     1.0000 0.91430  0.37582  0.31980  Biso   1.000  C
  H160     1.0000 0.93869  0.26790  0.32502  Biso   1.000  H
  H161     1.0000 0.90453  0.48538  0.33678  Biso   1.000  H
  C185     1.0000 0.08971  0.43638  0.95420  Biso   1.000  C
  H162     1.0000 0.13459  0.42471  0.85640  Biso   1.000  H
  H163     1.0000 0.07468  0.49029  0.86069  Biso   1.000  H
  C186     1.0000 0.38200  0.51080  0.09000  Biso   1.000  C
  C187     1.0000 0.89514  0.01097  0.97224  Biso   1.000  C
  C188     1.0000 0.87776  0.37691  0.24988  Biso   1.000  C
  H164     1.0000 0.12941  0.46977  0.97112  Biso   1.000  H
  H165     1.0000 0.04069  0.45068  0.97319  Biso   1.000  H
  H166     1.0000 0.10212  0.38651  0.96890  Biso   1.000  H
  N22      1.0000 0.32828  0.55522  0.06626  Biso   1.000  N
  N23      1.0000 0.45273  0.52788  0.10858  Biso   1.000  N
  N24      1.0000 0.90327  0.96077  0.92321  Biso   1.000  N
  N25      1.0000 0.92034  0.07862  0.97270  Biso   1.000  N
  C189     1.0000 0.81257  0.41816  0.23790  Biso   1.000  C
  C190     1.0000 0.90916  0.33790  0.19554  Biso   1.000  C
  C191     1.0000 0.35249  0.62429  0.06280  Biso   1.000  C
  C192     1.0000 0.46739  0.59788  0.10264  Biso   1.000  C
  C193     1.0000 0.94203  0.98620  0.86995  Biso   1.000  C
  C194     1.0000 0.96018  0.09472  0.91712  Biso   1.000  C
  C195     1.0000 0.77812  0.42067  0.17247  Biso   1.000  C
  H167     1.0000 0.79122  0.44500  0.27470  Biso   1.000  H
  C196     1.0000 0.87644  0.33964  0.12907  Biso   1.000  C
  H168     1.0000 0.95362  0.30953  0.20379  Biso   1.000  H
  O24      1.0000 0.29944  0.66985  0.03803  Biso   1.000  O
  N26      1.0000 0.42074  0.65010  0.07999  Biso   1.000  N
  O25      1.0000 0.53720  0.62151  0.12096  Biso   1.000  O
  O26      1.0000 0.95192  0.94375  0.81499  Biso   1.000  O
  N27      1.0000 0.97426  0.05183  0.86407  Biso   1.000  N
  O27      1.0000 0.98926  0.16270  0.91268  Biso   1.000  O
  C197     1.0000 0.71131  0.46901  0.15920  Biso   1.000  C
  C198     1.0000 0.80994  0.38046  0.11942  Biso   1.000  C
  C199     1.0000 0.91106  0.29878  0.07070  Biso   1.000  C
  C200     1.0000 0.31537  0.74771  0.03602  Biso   1.000  C
  C201     1.0000 0.59287  0.56667  0.13474  Biso   1.000  C
  C202     1.0000 0.90956  0.87478  0.80957  Biso   1.000  C
  C203     1.0000 0.96669  0.21164  0.96517  Biso   1.000  C
  C204     1.0000 0.70025  0.50082  0.09459  Biso   1.000  C
  C205     1.0000 0.65933  0.48609  0.21050  Biso   1.000  C
  H169     1.0000 0.78571  0.38067  0.07519  Biso   1.000  H
  C206     1.0000 0.88107  0.30232  0.00403  Biso   1.000  C
  C207     1.0000 0.97421  0.25420  0.08061  Biso   1.000  C
  C208     1.0000 0.30342  0.78290  0.10409  Biso   1.000  C
  H170     1.0000 0.36871  0.75540  0.02219  Biso   1.000  H
  H171     1.0000 0.28189  0.77112  0.00083  Biso   1.000  H
  C209     1.0000 0.64131  0.54949  0.08211  Biso   1.000  C
  C210     1.0000 0.60012  0.53514  0.19894  Biso   1.000  C
  H172     1.0000 0.94321  0.83561  0.79270  Biso   1.000  H
  H173     1.0000 0.89066  0.86038  0.85540  Biso   1.000  H
  C211     1.0000 0.84329  0.88591  0.75957  Biso   1.000  C
  C212     1.0000 0.82376  0.88100  0.79647  Biso   1.000  C
  C213     1.0000 0.90812  0.25840  0.95118  Biso   1.000  C
  C214     1.0000 0.00218  0.21072  0.02807  Biso   1.000  C
  H174     1.0000 0.73373  0.48892  0.05842  Biso   1.000  H
  H175     1.0000 0.66462  0.46350  0.25442  Biso   1.000  H
  H176     1.0000 0.84089  0.33561  0.99417  Biso   1.000  H
  H177     1.0000 0.99901  0.25327  0.12458  Biso   1.000  H
  H178     1.0000 0.26849  0.75158  0.13062  Biso   1.000  H
  H179     1.0000 0.35268  0.78372  0.12948  Biso   1.000  H
  C215     1.0000 0.27049  0.86251  0.10378  Biso   1.000  C
  C216     1.0000 0.31828  0.86649  0.08309  Biso   1.000  C
  H180     1.0000 0.63441  0.57082  0.03772  Biso   1.000  H
  H181     1.0000 0.56560  0.54660  0.23450  Biso   1.000  H
  C217     1.0000 0.78310  0.93589  0.78547  Biso   1.000  C
  H182     1.0000 0.81999  0.83790  0.74919  Biso   1.000  H
  H183     1.0000 0.86286  0.90583  0.71586  Biso   1.000  H
  C218     1.0000 0.80691  0.91210  0.72706  Biso   1.000  C
  H184     1.0000 0.83707  0.88548  0.69258  Biso   1.000  H
  H185     1.0000 0.80136  0.91270  0.83218  Biso   1.000  H
  H186     1.0000 0.80029  0.83211  0.79997  Biso   1.000  H
  H187     1.0000 0.88608  0.26102  0.90608  Biso   1.000  H
  H188     1.0000 0.04550  0.18082  0.03602  Biso   1.000  H
  H189     1.0000 0.23588  0.86982  0.14290  Biso   1.000  H
  H190     1.0000 0.24218  0.87249  0.06012  Biso   1.000  H
  C219     1.0000 0.33779  0.91008  0.11059  Biso   1.000  C
  C220     1.0000 0.26649  0.91161  0.12468  Biso   1.000  C
  H191     1.0000 0.37132  0.90201  0.07147  Biso   1.000  H
  H192     1.0000 0.30758  0.87380  0.03318  Biso   1.000  H
  H193     1.0000 0.37189  0.87991  0.09299  Biso   1.000  H
  C221     1.0000 0.71739  0.94342  0.73170  Biso   1.000  C
  H194     1.0000 0.76286  0.91652  0.82918  Biso   1.000  H
  H195     1.0000 0.80536  0.98461  0.79497  Biso   1.000  H
  C222     1.0000 0.72190  0.90817  0.70538  Biso   1.000  C
  H196     1.0000 0.82328  0.96372  0.72659  Biso   1.000  H
  H197     1.0000 0.32148  0.96132  0.11111  Biso   1.000  H
  H198     1.0000 0.36530  0.89879  0.15368  Biso   1.000  H
  H199     1.0000 0.29272  0.95651  0.13908  Biso   1.000  H
  H200     1.0000 0.22122  0.92411  0.09692  Biso   1.000  H
  H201     1.0000 0.25142  0.88422  0.16560  Biso   1.000  H
  H202     1.0000 0.67695  0.97381  0.75069  Biso   1.000  H
  H203     1.0000 0.73659  0.96623  0.68969  Biso   1.000  H
  H204     1.0000 0.69708  0.89491  0.72050  Biso   1.000  H
  H205     1.0000 0.69118  0.93251  0.74016  Biso   1.000  H
  H206     1.0000 0.71438  0.93273  0.66079  Biso   1.000  H
  H207     1.0000 0.70629  0.85710  0.70125  Biso   1.000  H
  C223     1.0000 0.27754  0.66952  0.51142  Biso   1.000  C
  C224     1.0000 0.24353  0.72714  0.47844  Biso   1.000  C
  H208     1.0000 0.28631  0.62511  0.48757  Biso   1.000  H
  C225     1.0000 0.29916  0.67678  0.58021  Biso   1.000  C
  O28      1.0000 0.22160  0.72108  0.40789  Biso   1.000  O
  C226     1.0000 0.23402  0.79299  0.51044  Biso   1.000  C
  C227     1.0000 0.28778  0.74182  0.61582  Biso   1.000  C
  H209     1.0000 0.32210  0.63668  0.60348  Biso   1.000  H
  C228     1.0000 0.15240  0.69266  0.39463  Biso   1.000  C
  H210     1.0000 0.21282  0.83332  0.48608  Biso   1.000  H
  C229     1.0000 0.25609  0.79949  0.57933  Biso   1.000  C
  C230     1.0000 0.30980  0.75027  0.69013  Biso   1.000  C
  N28      1.0000 0.13362  0.68916  0.32801  Biso   1.000  N
  N29      1.0000 0.11091  0.67072  0.44753  Biso   1.000  N
  H211     1.0000 0.24929  0.84488  0.60209  Biso   1.000  H
  C231     1.0000 0.37209  0.71344  0.71882  Biso   1.000  C
  C232     1.0000 0.26893  0.79790  0.73214  Biso   1.000  C
  C233     1.0000 0.06572  0.65785  0.31691  Biso   1.000  C
  C234     1.0000 0.04478  0.64301  0.42843  Biso   1.000  C
  H212     1.0000 0.39989  0.68060  0.69101  Biso   1.000  H
  C235     1.0000 0.39456  0.72387  0.78782  Biso   1.000  C
  C236     1.0000 0.29060  0.80969  0.80051  Biso   1.000  C
  H213     1.0000 0.22573  0.82251  0.71351  Biso   1.000  H
  O29      1.0000 0.04739  0.65195  0.25029  Biso   1.000  O
  N30      1.0000 0.01803  0.63297  0.36439  Biso   1.000  N
  O30      1.0000 0.99668  0.62156  0.47813  Biso   1.000  O
  C237     1.0000 0.35331  0.77259  0.82740  Biso   1.000  C
  C238     1.0000 0.46139  0.68458  0.81842  Biso   1.000  C
  C239     1.0000 0.25034  0.86332  0.84428  Biso   1.000  C
  C240     1.0000 0.98188  0.60825  0.23068  Biso   1.000  C
  C241     1.0000 0.02660  0.62358  0.54671  Biso   1.000  C
  H214     1.0000 0.36838  0.78072  0.87410  Biso   1.000  H
  C242     1.0000 0.46758  0.67323  0.88907  Biso   1.000  C
  C243     1.0000 0.51859  0.65746  0.77745  Biso   1.000  C
  C244     1.0000 0.17141  0.86774  0.84407  Biso   1.000  C
  C245     1.0000 0.29200  0.91008  0.88726  Biso   1.000  C
  H215     1.0000 0.93510  0.62882  0.25070  Biso   1.000  H
  H216     1.0000 0.98819  0.55751  0.24730  Biso   1.000  H
  C246     1.0000 0.97685  0.61010  0.15281  Biso   1.000  C
  C247     1.0000 0.02956  0.68824  0.58279  Biso   1.000  C
  C248     1.0000 0.04994  0.55865  0.57577  Biso   1.000  C
  C249     1.0000 0.52783  0.63455  0.91797  Biso   1.000  C
  H217     1.0000 0.42969  0.69249  0.91828  Biso   1.000  H
  C250     1.0000 0.57820  0.61720  0.80552  Biso   1.000  C
  H218     1.0000 0.51691  0.66668  0.72919  Biso   1.000  H
  H219     1.0000 0.14219  0.83670  0.81460  Biso   1.000  H
  C251     1.0000 0.13476  0.91707  0.88649  Biso   1.000  C
  C252     1.0000 0.25562  0.96022  0.92901  Biso   1.000  C
  H220     1.0000 0.34598  0.90768  0.88788  Biso   1.000  H
  H221     1.0000 0.02632  0.59499  0.13392  Biso   1.000  H
  C253     1.0000 0.91490  0.56051  0.12453  Biso   1.000  C
  H222     1.0000 0.96657  0.66068  0.13738  Biso   1.000  H
  H223     1.0000 0.01168  0.73221  0.56230  Biso   1.000  H
  C254     1.0000 0.05915  0.68775  0.64957  Biso   1.000  C
  H224     1.0000 0.04601  0.51440  0.55048  Biso   1.000  H
  C255     1.0000 0.07937  0.55914  0.64255  Biso   1.000  C
  H225     1.0000 0.53207  0.62822  0.96648  Biso   1.000  H
  C256     1.0000 0.58107  0.60552  0.87529  Biso   1.000  C
  H226     1.0000 0.61650  0.59788  0.77677  Biso   1.000  H
  H227     1.0000 0.08079  0.91990  0.88608  Biso   1.000  H
  C257     1.0000 0.17726  0.96170  0.92875  Biso   1.000  C
  H228     1.0000 0.28419  0.99302  0.95729  Biso   1.000  H
  C258     1.0000 0.91031  0.56362  0.04577  Biso   1.000  C
  H229     1.0000 0.86537  0.57529  0.14362  Biso   1.000  H
  H230     1.0000 0.92527  0.50971  0.13928  Biso   1.000  H
  H231     1.0000 0.06127  0.73210  0.67501  Biso   1.000  H
  C259     1.0000 0.08572  0.62418  0.68022  Biso   1.000  C
  H232     1.0000 0.09549  0.51462  0.66319  Biso   1.000  H
  O31      1.0000 0.63882  0.55980  0.90398  Biso   1.000  O
  O32      1.0000 0.14400  0.01364  0.97298  Biso   1.000  O
  H233     1.0000 0.87061  0.53023  0.02890  Biso   1.000  H
  H234     1.0000 0.95927  0.54932  0.02678  Biso   1.000  H
  H235     1.0000 0.89789  0.61349  0.03112  Biso   1.000  H
  C260     1.0000 0.12226  0.62309  0.75009  Biso   1.000  C
  C261     1.0000 0.61802  0.48920  0.91002  Biso   1.000  C
  C262     1.0000 0.10482  0.98903  0.02779  Biso   1.000  C
  C263     1.0000 0.09080  0.66210  0.80449  Biso   1.000  C
  C264     1.0000 0.18739  0.58184  0.76212  Biso   1.000  C
  N31      1.0000 0.67173  0.44478  0.93371  Biso   1.000  N
  N32      1.0000 0.54723  0.47212  0.89139  Biso   1.000  N
  N33      1.0000 0.07968  0.92138  0.02732  Biso   1.000  N
  N34      1.0000 0.09674  0.03923  0.07676  Biso   1.000  N
  H236     1.0000 0.04639  0.69047  0.79618  Biso   1.000  H
  C265     1.0000 0.12357  0.66036  0.87090  Biso   1.000  C
  H237     1.0000 0.20880  0.55500  0.72532  Biso   1.000  H
  C266     1.0000 0.22190  0.57933  0.82756  Biso   1.000  C
  C267     1.0000 0.64752  0.37571  0.93722  Biso   1.000  C
  C268     1.0000 0.53263  0.40212  0.89738  Biso   1.000  C
  C269     1.0000 0.03984  0.90528  0.08290  Biso   1.000  C
  C270     1.0000 0.05799  0.01380  0.13002  Biso   1.000  C
  C271     1.0000 0.19008  0.61954  0.88061  Biso   1.000  C
  C272     1.0000 0.08890  0.70122  0.92932  Biso   1.000  C
  C273     1.0000 0.28870  0.53099  0.84077  Biso   1.000  C
  N35      1.0000 0.57922  0.34990  0.92003  Biso   1.000  N
  O33      1.0000 0.70058  0.33015  0.96199  Biso   1.000  O
  O34      1.0000 0.46282  0.37849  0.87901  Biso   1.000  O
  O35      1.0000 0.01076  0.83730  0.08729  Biso   1.000  O
  N36      1.0000 0.02570  0.94817  0.13595  Biso   1.000  N
  O36      1.0000 0.04810  0.05625  0.18498  Biso   1.000  O
  H238     1.0000 0.21431  0.61933  0.92478  Biso   1.000  H
  C274     1.0000 0.11895  0.69768  0.99595  Biso   1.000  C
  C275     1.0000 0.02581  0.74580  0.91941  Biso   1.000  C
  C276     1.0000 0.34069  0.51391  0.78952  Biso   1.000  C
  C277     1.0000 0.29977  0.49918  0.90538  Biso   1.000  C
  C278     1.0000 0.68459  0.25229  0.96400  Biso   1.000  C
  C279     1.0000 0.40715  0.43333  0.86523  Biso   1.000  C
  C280     1.0000 0.03332  0.78836  0.03481  Biso   1.000  C
  C281     1.0000 0.09046  0.12522  0.19040  Biso   1.000  C
  H239     1.0000 0.15913  0.66439  0.00580  Biso   1.000  H
  C282     1.0000 0.09190  0.74160  0.04884  Biso   1.000  C
  H240     1.0000 0.00101  0.74673  0.87539  Biso   1.000  H
  C283     1.0000 0.99784  0.78928  0.97195  Biso   1.000  C
  C284     1.0000 0.39984  0.46486  0.80103  Biso   1.000  C
  H241     1.0000 0.33540  0.53650  0.74560  Biso   1.000  H
  C285     1.0000 0.35871  0.45051  0.91792  Biso   1.000  C
  H242     1.0000 0.26629  0.51108  0.94160  Biso   1.000  H
  C286     1.0000 0.69659  0.21710  0.89588  Biso   1.000  C
  H243     1.0000 0.63131  0.24460  0.97778  Biso   1.000  H
  H244     1.0000 0.71807  0.22888  0.99920  Biso   1.000  H
  H245     1.0000 0.05681  0.16439  0.20732  Biso   1.000  H
  H246     1.0000 0.10930  0.13962  0.14462  Biso   1.000  H
  C287     1.0000 0.15672  0.11409  0.24040  Biso   1.000  C
  C288     1.0000 0.17620  0.11900  0.20351  Biso   1.000  C
  H247     1.0000 0.11393  0.73898  0.09395  Biso   1.000  H
  H248     1.0000 0.95452  0.81918  0.96400  Biso   1.000  H
  H249     1.0000 0.43442  0.45340  0.76552  Biso   1.000  H
  H250     1.0000 0.36560  0.42918  0.96230  Biso   1.000  H
  H251     1.0000 0.73152  0.24842  0.86941  Biso   1.000  H
  H252     1.0000 0.64728  0.21628  0.87049  Biso   1.000  H
  C289     1.0000 0.72952  0.13749  0.89619  Biso   1.000  C
  C290     1.0000 0.68168  0.13351  0.91689  Biso   1.000  C
  C291     1.0000 0.21691  0.06411  0.21450  Biso   1.000  C
  H253     1.0000 0.18003  0.16210  0.25083  Biso   1.000  H
  H254     1.0000 0.13710  0.09417  0.28411  Biso   1.000  H
  C292     1.0000 0.19311  0.08790  0.27292  Biso   1.000  C
  H255     1.0000 0.16289  0.11452  0.30744  Biso   1.000  H
  H256     1.0000 0.19860  0.08730  0.16785  Biso   1.000  H
  H257     1.0000 0.19973  0.16789  0.20005  Biso   1.000  H
  H258     1.0000 0.76408  0.13018  0.85713  Biso   1.000  H
  H259     1.0000 0.75778  0.12751  0.93990  Biso   1.000  H
  C293     1.0000 0.66223  0.08992  0.88938  Biso   1.000  C
  C294     1.0000 0.73352  0.08839  0.87529  Biso   1.000  C
  H260     1.0000 0.62869  0.09799  0.92850  Biso   1.000  H
  H261     1.0000 0.69238  0.12620  0.96679  Biso   1.000  H
  H262     1.0000 0.62807  0.12009  0.90698  Biso   1.000  H
  C295     1.0000 0.28263  0.05658  0.26832  Biso   1.000  C
  H263     1.0000 0.23710  0.08348  0.17084  Biso   1.000  H
  H264     1.0000 0.19460  0.01539  0.20500  Biso   1.000  H
  C296     1.0000 0.27812  0.09183  0.29464  Biso   1.000  C
  H265     1.0000 0.17674  0.03628  0.27343  Biso   1.000  H
  H266     1.0000 0.67848  0.03868  0.88891  Biso   1.000  H
  H267     1.0000 0.63472  0.10121  0.84629  Biso   1.000  H
  H268     1.0000 0.70729  0.04349  0.86089  Biso   1.000  H
  H269     1.0000 0.77880  0.07589  0.90311  Biso   1.000  H
  H270     1.0000 0.74860  0.11578  0.83442  Biso   1.000  H
  H271     1.0000 0.32301  0.02619  0.24933  Biso   1.000  H
  H272     1.0000 0.26343  0.03377  0.31033  Biso   1.000  H
  H273     1.0000 0.30293  0.10509  0.27952  Biso   1.000  H
  H274     1.0000 0.30884  0.06749  0.25981  Biso   1.000  H
  H275     1.0000 0.28564  0.06727  0.33923  Biso   1.000  H
  H276     1.0000 0.29372  0.14290  0.29872  Biso   1.000  H
