data_image0
_cell_length_a       12.676
_cell_length_b       16.376
_cell_length_c       16.708
_cell_angle_alpha    90
_cell_angle_beta     100.49
_cell_angle_gamma    90

_symmetry_space_group_name_H-M    "P 1"
_symmetry_int_tables_number       1

loop_
  _symmetry_equiv_pos_as_xyz
  'x, y, z'

loop_
  _atom_site_label
  _atom_site_occupancy
  _atom_site_fract_x
  _atom_site_fract_y
  _atom_site_fract_z
  _atom_site_thermal_displace_type
  _atom_site_B_iso_or_equiv
  _atom_site_type_symbol
  O1       1.0000 0.58060  0.56308  0.45420  Biso   1.000  O
  C1       1.0000 0.50821  0.54268  0.39979  Biso   1.000  C
  N1       1.0000 0.52260  0.49151  0.33612  Biso   1.000  N
  N2       1.0000 0.40283  0.56259  0.38999  Biso   1.000  N
  C2       1.0000 0.42118  0.47362  0.28432  Biso   1.000  C
  C3       1.0000 0.62067  0.45011  0.33058  Biso   1.000  C
  C4       1.0000 0.33811  0.51551  0.32802  Biso   1.000  C
  C5       1.0000 0.35873  0.60277  0.45408  Biso   1.000  C
  H1       1.0000 0.40860  0.41457  0.27890  Biso   1.000  H
  N3       1.0000 0.40384  0.51398  0.20549  Biso   1.000  N
  H2       1.0000 0.60515  0.39289  0.31883  Biso   1.000  H
  H3       1.0000 0.66843  0.45310  0.38299  Biso   1.000  H
  N4       1.0000 0.67562  0.48309  0.26898  Biso   1.000  N
  H4       1.0000 0.29472  0.47539  0.35103  Biso   1.000  H
  N5       1.0000 0.27370  0.56277  0.26381  Biso   1.000  N
  H5       1.0000 0.30201  0.56888  0.46820  Biso   1.000  H
  H6       1.0000 0.41443  0.60729  0.50211  Biso   1.000  H
  N6       1.0000 0.31661  0.68197  0.43272  Biso   1.000  N
  C6       1.0000 0.31082  0.55942  0.19362  Biso   1.000  C
  C7       1.0000 0.44770  0.48541  0.13677  Biso   1.000  C
  C8       1.0000 0.76088  0.53481  0.28761  Biso   1.000  C
  C9       1.0000 0.65032  0.46269  0.18291  Biso   1.000  C
  C10      1.0000 0.17252  0.60253  0.27148  Biso   1.000  C
  C11      1.0000 0.37760  0.75000  0.45743  Biso   1.000  C
  C12      1.0000 0.20671  0.70127  0.39358  Biso   1.000  C
  O2       1.0000 0.26912  0.58989  0.12801  Biso   1.000  O
  H7       1.0000 0.44192  0.42629  0.13440  Biso   1.000  H
  H8       1.0000 0.40469  0.50702  0.08741  Biso   1.000  H
  N7       1.0000 0.55810  0.50782  0.13890  Biso   1.000  N
  N8       1.0000 0.79814  0.55282  0.21870  Biso   1.000  N
  O3       1.0000 0.79678  0.55881  0.35669  Biso   1.000  O
  C13      1.0000 0.74740  0.50440  0.14992  Biso   1.000  C
  C14      1.0000 0.63816  0.36981  0.16678  Biso   1.000  C
  H9       1.0000 0.12787  0.60619  0.21791  Biso   1.000  H
  H10      1.0000 0.13521  0.56827  0.30471  Biso   1.000  H
  N9       1.0000 0.18411  0.68210  0.30629  Biso   1.000  N
  O4       1.0000 0.46967  0.75000  0.49559  Biso   1.000  O
  N10      1.0000 0.31661  0.81803  0.43272  Biso   1.000  N
  C15      1.0000 0.12578  0.66219  0.43868  Biso   1.000  C
  C16      1.0000 0.20671  0.79873  0.39358  Biso   1.000  C
  C17      1.0000 0.58391  0.55789  0.07913  Biso   1.000  C
  C18      1.0000 0.89441  0.60118  0.22339  Biso   1.000  C
  N11      1.0000 0.69193  0.55410  0.08217  Biso   1.000  N
  C19      1.0000 0.82544  0.44468  0.12040  Biso   1.000  C
  H11      1.0000 0.62158  0.36010  0.10920  Biso   1.000  H
  H12      1.0000 0.70423  0.34282  0.18930  Biso   1.000  H
  H13      1.0000 0.58140  0.34880  0.19192  Biso   1.000  H
  C20      1.0000 0.16552  0.75000  0.26009  Biso   1.000  C
  C21      1.0000 0.35873  0.89723  0.45408  Biso   1.000  C
  H14      1.0000 0.05440  0.67593  0.41178  Biso   1.000  H
  H15      1.0000 0.13464  0.60399  0.43911  Biso   1.000  H
  H16      1.0000 0.13710  0.68210  0.49371  Biso   1.000  H
  N12      1.0000 0.18411  0.81790  0.30629  Biso   1.000  N
  C22      1.0000 0.12578  0.83781  0.43868  Biso   1.000  C
  O5       1.0000 0.51974  0.59532  0.02964  Biso   1.000  O
  H17      1.0000 0.92982  0.60430  0.27988  Biso   1.000  H
  H18      1.0000 0.94262  0.57328  0.19350  Biso   1.000  H
  N13      1.0000 0.87714  0.68142  0.19253  Biso   1.000  N
  C23      1.0000 0.74357  0.60192  0.02648  Biso   1.000  C
  H19      1.0000 0.78818  0.41420  0.07493  Biso   1.000  H
  H20      1.0000 0.88324  0.47472  0.10421  Biso   1.000  H
  H21      1.0000 0.85381  0.40791  0.16368  Biso   1.000  H
  O6       1.0000 0.13170  0.75000  0.18358  Biso   1.000  O
  H22      1.0000 0.30201  0.93112  0.46820  Biso   1.000  H
  H23      1.0000 0.41443  0.89271  0.50211  Biso   1.000  H
  N14      1.0000 0.40283  0.93741  0.38999  Biso   1.000  N
  C24      1.0000 0.17252  0.89747  0.27148  Biso   1.000  C
  H24      1.0000 0.05440  0.82407  0.41178  Biso   1.000  H
  H25      1.0000 0.13464  0.89601  0.43911  Biso   1.000  H
  H26      1.0000 0.13710  0.81790  0.49371  Biso   1.000  H
  C25      1.0000 0.88244  0.75000  0.24122  Biso   1.000  C
  C26      1.0000 0.87182  0.70188  0.10591  Biso   1.000  C
  H27      1.0000 0.80711  0.57291  0.01741  Biso   1.000  H
  N15      1.0000 0.77412  0.68222  0.05417  Biso   1.000  N
  H28      1.0000 0.69500  0.60589  0.97462  Biso   1.000  H
  C27      1.0000 0.50821  0.95732  0.39979  Biso   1.000  C
  C28      1.0000 0.33811  0.98449  0.32802  Biso   1.000  C
  H29      1.0000 0.12787  0.89381  0.21791  Biso   1.000  H
  H30      1.0000 0.13521  0.93173  0.30471  Biso   1.000  H
  N16      1.0000 0.27370  0.93723  0.26381  Biso   1.000  N
  O7       1.0000 0.89698  0.75000  0.31463  Biso   1.000  O
  N17      1.0000 0.87714  0.81858  0.19253  Biso   1.000  N
  H31      1.0000 0.93348  0.67990  0.08509  Biso   1.000  H
  C29      1.0000 0.87182  0.79812  0.10591  Biso   1.000  C
  C30      1.0000 0.72049  0.75000  0.01838  Biso   1.000  C
  O8       1.0000 0.58060  0.93692  0.45420  Biso   1.000  O
  N18      1.0000 0.52260  0.00849  0.33612  Biso   1.000  N
  H32      1.0000 0.29472  0.02461  0.35103  Biso   1.000  H
  C31      1.0000 0.42118  0.02638  0.28432  Biso   1.000  C
  C32      1.0000 0.31082  0.94058  0.19362  Biso   1.000  C
  C33      1.0000 0.89441  0.89882  0.22339  Biso   1.000  C
  N19      1.0000 0.77412  0.81778  0.05417  Biso   1.000  N
  H33      1.0000 0.93348  0.82010  0.08509  Biso   1.000  H
  O9       1.0000 0.64029  0.75000  0.96689  Biso   1.000  O
  C34      1.0000 0.62067  0.04989  0.33058  Biso   1.000  C
  N20      1.0000 0.40384  0.98602  0.20549  Biso   1.000  N
  H34      1.0000 0.40860  0.08543  0.27890  Biso   1.000  H
  O10      1.0000 0.26912  0.91011  0.12801  Biso   1.000  O
  H35      1.0000 0.92982  0.89570  0.27988  Biso   1.000  H
  H36      1.0000 0.94262  0.92672  0.19350  Biso   1.000  H
  N21      1.0000 0.79814  0.94718  0.21870  Biso   1.000  N
  C35      1.0000 0.74357  0.89808  0.02648  Biso   1.000  C
  H37      1.0000 0.60515  0.10711  0.31883  Biso   1.000  H
  H38      1.0000 0.66843  0.04690  0.38299  Biso   1.000  H
  N22      1.0000 0.67562  0.01691  0.26898  Biso   1.000  N
  C36      1.0000 0.44770  0.01459  0.13677  Biso   1.000  C
  C37      1.0000 0.76088  0.96519  0.28761  Biso   1.000  C
  C38      1.0000 0.74740  0.99560  0.14992  Biso   1.000  C
  H39      1.0000 0.80711  0.92709  0.01741  Biso   1.000  H
  N23      1.0000 0.69193  0.94590  0.08217  Biso   1.000  N
  H40      1.0000 0.69500  0.89411  0.97462  Biso   1.000  H
  C39      1.0000 0.65032  0.03731  0.18291  Biso   1.000  C
  H41      1.0000 0.40469  0.99298  0.08741  Biso   1.000  H
  N24      1.0000 0.55810  0.99218  0.13890  Biso   1.000  N
  H42      1.0000 0.44192  0.07371  0.13440  Biso   1.000  H
  O11      1.0000 0.79678  0.94119  0.35669  Biso   1.000  O
  C40      1.0000 0.82544  0.05532  0.12040  Biso   1.000  C
  C41      1.0000 0.58391  0.94211  0.07913  Biso   1.000  C
  C42      1.0000 0.63816  0.13019  0.16678  Biso   1.000  C
  H43      1.0000 0.78818  0.08580  0.07493  Biso   1.000  H
  H44      1.0000 0.88324  0.02528  0.10421  Biso   1.000  H
  H45      1.0000 0.85381  0.09209  0.16368  Biso   1.000  H
  O12      1.0000 0.51974  0.90468  0.02964  Biso   1.000  O
  H46      1.0000 0.62158  0.13990  0.10920  Biso   1.000  H
  H47      1.0000 0.70423  0.15718  0.18930  Biso   1.000  H
  H48      1.0000 0.58140  0.15120  0.19192  Biso   1.000  H
  O13      1.0000 0.41940  0.43692  0.54581  Biso   1.000  O
  C43      1.0000 0.49178  0.45732  0.60023  Biso   1.000  C
  N25      1.0000 0.59724  0.43741  0.61003  Biso   1.000  N
  N26      1.0000 0.47740  0.50849  0.66390  Biso   1.000  N
  C44      1.0000 0.64133  0.39723  0.54587  Biso   1.000  C
  C45      1.0000 0.66189  0.48449  0.67199  Biso   1.000  C
  C46      1.0000 0.57882  0.52638  0.71570  Biso   1.000  C
  C47      1.0000 0.37931  0.54989  0.66938  Biso   1.000  C
  N27      1.0000 0.68339  0.31803  0.56730  Biso   1.000  N
  H49      1.0000 0.69799  0.43112  0.53181  Biso   1.000  H
  H50      1.0000 0.58564  0.39271  0.49791  Biso   1.000  H
  N28      1.0000 0.72629  0.43723  0.73621  Biso   1.000  N
  H51      1.0000 0.70528  0.52461  0.64898  Biso   1.000  H
  H52      1.0000 0.59140  0.58543  0.72111  Biso   1.000  H
  N29      1.0000 0.59623  0.48602  0.79452  Biso   1.000  N
  H53      1.0000 0.39493  0.60711  0.68118  Biso   1.000  H
  H54      1.0000 0.33165  0.54690  0.61703  Biso   1.000  H
  N30      1.0000 0.32444  0.51691  0.73097  Biso   1.000  N
  C48      1.0000 0.62240  0.25000  0.54259  Biso   1.000  C
  C49      1.0000 0.79327  0.29873  0.60638  Biso   1.000  C
  C50      1.0000 0.82755  0.39747  0.72848  Biso   1.000  C
  C51      1.0000 0.68925  0.44058  0.80639  Biso   1.000  C
  C52      1.0000 0.55228  0.51459  0.86318  Biso   1.000  C
  C53      1.0000 0.23912  0.46519  0.71241  Biso   1.000  C
  C54      1.0000 0.34968  0.53731  0.81710  Biso   1.000  C
  O14      1.0000 0.53033  0.25000  0.50442  Biso   1.000  O
  N31      1.0000 0.68339  0.18197  0.56730  Biso   1.000  N
  C55      1.0000 0.79327  0.20127  0.60638  Biso   1.000  C
  C56      1.0000 0.87420  0.33781  0.56127  Biso   1.000  C
  N32      1.0000 0.81589  0.31790  0.69372  Biso   1.000  N
  H55      1.0000 0.87213  0.39381  0.78210  Biso   1.000  H
  H56      1.0000 0.86479  0.43173  0.69531  Biso   1.000  H
  O15      1.0000 0.73095  0.41011  0.87201  Biso   1.000  O
  H57      1.0000 0.55815  0.57371  0.86562  Biso   1.000  H
  H58      1.0000 0.59530  0.49298  0.91261  Biso   1.000  H
  N33      1.0000 0.44189  0.49218  0.86111  Biso   1.000  N
  N34      1.0000 0.20193  0.44718  0.78131  Biso   1.000  N
  O16      1.0000 0.20321  0.44119  0.64332  Biso   1.000  O
  C57      1.0000 0.25260  0.49560  0.85009  Biso   1.000  C
  C58      1.0000 0.36182  0.63019  0.83317  Biso   1.000  C
  C59      1.0000 0.64133  0.10277  0.54587  Biso   1.000  C
  C60      1.0000 0.87420  0.16219  0.56127  Biso   1.000  C
  N35      1.0000 0.81589  0.18210  0.69372  Biso   1.000  N
  H59      1.0000 0.94558  0.32407  0.58818  Biso   1.000  H
  H60      1.0000 0.86543  0.39601  0.56091  Biso   1.000  H
  H61      1.0000 0.86290  0.31790  0.50631  Biso   1.000  H
  C61      1.0000 0.83455  0.25000  0.73992  Biso   1.000  C
  C62      1.0000 0.41608  0.44211  0.92089  Biso   1.000  C
  C63      1.0000 0.10559  0.39882  0.77663  Biso   1.000  C
  C64      1.0000 0.17464  0.55532  0.87962  Biso   1.000  C
  N36      1.0000 0.30813  0.44590  0.91778  Biso   1.000  N
  H62      1.0000 0.37842  0.63990  0.89082  Biso   1.000  H
  H63      1.0000 0.29584  0.65718  0.81071  Biso   1.000  H
  H64      1.0000 0.41860  0.65120  0.80810  Biso   1.000  H
  H65      1.0000 0.69799  0.06888  0.53181  Biso   1.000  H
  H66      1.0000 0.58564  0.10729  0.49791  Biso   1.000  H
  N37      1.0000 0.59724  0.06259  0.61003  Biso   1.000  N
  H67      1.0000 0.94558  0.17593  0.58818  Biso   1.000  H
  H68      1.0000 0.86543  0.10399  0.56091  Biso   1.000  H
  H69      1.0000 0.86290  0.18210  0.50631  Biso   1.000  H
  C65      1.0000 0.82755  0.10253  0.72848  Biso   1.000  C
  O17      1.0000 0.86828  0.25000  0.81637  Biso   1.000  O
  O18      1.0000 0.48034  0.40468  0.97037  Biso   1.000  O
  H70      1.0000 0.07024  0.39570  0.72008  Biso   1.000  H
  H71      1.0000 0.05746  0.42672  0.80651  Biso   1.000  H
  N38      1.0000 0.12293  0.31858  0.80749  Biso   1.000  N
  H72      1.0000 0.21182  0.58580  0.92509  Biso   1.000  H
  H73      1.0000 0.11683  0.52528  0.89581  Biso   1.000  H
  H74      1.0000 0.14625  0.59209  0.83628  Biso   1.000  H
  C66      1.0000 0.25641  0.39808  0.97348  Biso   1.000  C
  C67      1.0000 0.49178  0.04268  0.60023  Biso   1.000  C
  C68      1.0000 0.66189  0.01551  0.67199  Biso   1.000  C
  H75      1.0000 0.87213  0.10619  0.78210  Biso   1.000  H
  H76      1.0000 0.86479  0.06827  0.69531  Biso   1.000  H
  N39      1.0000 0.72629  0.06277  0.73621  Biso   1.000  N
  C69      1.0000 0.11764  0.25000  0.75879  Biso   1.000  C
  C70      1.0000 0.12826  0.29812  0.89410  Biso   1.000  C
  H77      1.0000 0.19289  0.42709  0.98261  Biso   1.000  H
  N40      1.0000 0.22594  0.31778  0.94578  Biso   1.000  N
  H78      1.0000 0.30500  0.39411  0.02540  Biso   1.000  H
  O19      1.0000 0.41940  0.06308  0.54581  Biso   1.000  O
  N41      1.0000 0.47740  0.99151  0.66390  Biso   1.000  N
  H79      1.0000 0.70528  0.97539  0.64898  Biso   1.000  H
  C71      1.0000 0.57882  0.97362  0.71570  Biso   1.000  C
  C72      1.0000 0.68925  0.05942  0.80639  Biso   1.000  C
  N42      1.0000 0.12293  0.18142  0.80749  Biso   1.000  N
  O20      1.0000 0.10302  0.25000  0.68538  Biso   1.000  O
  C73      1.0000 0.12826  0.20188  0.89410  Biso   1.000  C
  H80      1.0000 0.06651  0.32010  0.91492  Biso   1.000  H
  C74      1.0000 0.27951  0.25000  0.98163  Biso   1.000  C
  C75      1.0000 0.37931  0.95011  0.66938  Biso   1.000  C
  N43      1.0000 0.59623  0.01398  0.79452  Biso   1.000  N
  H81      1.0000 0.59140  0.91457  0.72111  Biso   1.000  H
  O21      1.0000 0.73095  0.08989  0.87201  Biso   1.000  O
  C76      1.0000 0.10559  0.10118  0.77663  Biso   1.000  C
  N44      1.0000 0.22594  0.18222  0.94578  Biso   1.000  N
  H82      1.0000 0.06651  0.17990  0.91492  Biso   1.000  H
  O22      1.0000 0.35971  0.25000  0.03313  Biso   1.000  O
  H83      1.0000 0.39493  0.89289  0.68118  Biso   1.000  H
  H84      1.0000 0.33165  0.95310  0.61703  Biso   1.000  H
  N45      1.0000 0.32444  0.98309  0.73097  Biso   1.000  N
  C77      1.0000 0.55228  0.98541  0.86318  Biso   1.000  C
  N46      1.0000 0.20193  0.05282  0.78131  Biso   1.000  N
  H85      1.0000 0.07024  0.10430  0.72008  Biso   1.000  H
  H86      1.0000 0.05746  0.07328  0.80651  Biso   1.000  H
  C78      1.0000 0.25641  0.10192  0.97348  Biso   1.000  C
  C79      1.0000 0.23912  0.03481  0.71241  Biso   1.000  C
  C80      1.0000 0.34968  0.96269  0.81710  Biso   1.000  C
  H87      1.0000 0.59530  0.00702  0.91261  Biso   1.000  H
  N47      1.0000 0.44189  0.00782  0.86111  Biso   1.000  N
  H88      1.0000 0.55815  0.92629  0.86562  Biso   1.000  H
  C81      1.0000 0.25260  0.00440  0.85009  Biso   1.000  C
  N48      1.0000 0.30813  0.05410  0.91778  Biso   1.000  N
  H89      1.0000 0.19289  0.07291  0.98261  Biso   1.000  H
  H90      1.0000 0.30500  0.10589  0.02540  Biso   1.000  H
  O23      1.0000 0.20321  0.05881  0.64332  Biso   1.000  O
  C82      1.0000 0.36182  0.86981  0.83317  Biso   1.000  C
  C83      1.0000 0.41608  0.05789  0.92089  Biso   1.000  C
  C84      1.0000 0.17464  0.94468  0.87962  Biso   1.000  C
  H91      1.0000 0.37842  0.86010  0.89082  Biso   1.000  H
  H92      1.0000 0.29584  0.84282  0.81071  Biso   1.000  H
  H93      1.0000 0.41860  0.84880  0.80810  Biso   1.000  H
  O24      1.0000 0.48034  0.09532  0.97037  Biso   1.000  O
  H94      1.0000 0.21182  0.91420  0.92509  Biso   1.000  H
  H95      1.0000 0.11683  0.97472  0.89581  Biso   1.000  H
  H96      1.0000 0.14625  0.90791  0.83628  Biso   1.000  H
