data_image0
_cell_length_a       12.393
_cell_length_b       15.625
_cell_length_c       18.275
_cell_angle_alpha    82.2
_cell_angle_beta     81.51
_cell_angle_gamma    76.52

_symmetry_space_group_name_H-M    "P 1"
_symmetry_int_tables_number       1

loop_
  _symmetry_equiv_pos_as_xyz
  'x, y, z'

loop_
  _atom_site_label
  _atom_site_occupancy
  _atom_site_fract_x
  _atom_site_fract_y
  _atom_site_fract_z
  _atom_site_thermal_displace_type
  _atom_site_B_iso_or_equiv
  _atom_site_type_symbol
  C1       1.0000 0.61809  0.55284  0.44008  Biso   1.000  C
  C2       1.0000 0.52852  0.58317  0.39918  Biso   1.000  C
  H1       1.0000 0.61731  0.57617  0.48558  Biso   1.000  H
  C3       1.0000 0.70944  0.48835  0.41482  Biso   1.000  C
  C4       1.0000 0.52538  0.54989  0.33287  Biso   1.000  C
  O1       1.0000 0.43554  0.64679  0.42199  Biso   1.000  O
  C5       1.0000 0.70560  0.45427  0.34911  Biso   1.000  C
  C6       1.0000 0.81079  0.46157  0.45576  Biso   1.000  C
  C7       1.0000 0.42786  0.58349  0.28847  Biso   1.000  C
  C8       1.0000 0.61566  0.48415  0.30861  Biso   1.000  C
  C9       1.0000 0.43230  0.67617  0.49321  Biso   1.000  C
  O2       1.0000 0.79711  0.38839  0.32758  Biso   1.000  O
  H2       1.0000 0.78711  0.46222  0.50990  Biso   1.000  H
  H3       1.0000 0.85027  0.40053  0.44653  Biso   1.000  H
  C10      1.0000 0.88959  0.52395  0.43067  Biso   1.000  C
  C11      1.0000 0.44078  0.65988  0.22977  Biso   1.000  C
  H4       1.0000 0.41667  0.53404  0.26393  Biso   1.000  H
  H5       1.0000 0.35959  0.60250  0.32324  Biso   1.000  H
  H6       1.0000 0.61535  0.45970  0.26377  Biso   1.000  H
  H7       1.0000 0.48967  0.71151  0.49109  Biso   1.000  H
  H8       1.0000 0.44911  0.62441  0.53071  Biso   1.000  H
  C12      1.0000 0.32517  0.72836  0.51418  Biso   1.000  C
  C13      1.0000 0.78742  0.33819  0.27122  Biso   1.000  C
  C14      1.0000 0.89468  0.58947  0.47340  Biso   1.000  C
  C15      1.0000 0.95072  0.52108  0.36057  Biso   1.000  C
  C16      1.0000 0.39776  0.74728  0.24340  Biso   1.000  C
  C17      1.0000 0.49804  0.64438  0.15967  Biso   1.000  C
  H9       1.0000 0.29355  0.68388  0.54934  Biso   1.000  H
  H10      1.0000 0.34597  0.76600  0.54684  Biso   1.000  H
  Br1      1.0000 0.29837  0.84470  0.44870  Biso   1.000  Br
  H11      1.0000 0.26727  0.69566  0.50995  Biso   1.000  H
  H12      1.0000 0.31911  0.73994  0.56676  Biso   1.000  H
  Br2      1.0000 0.21095  0.79234  0.49098  Biso   1.000  Br
  H13      1.0000 0.71027  0.32867  0.27634  Biso   1.000  H
  H14      1.0000 0.80231  0.37103  0.22187  Biso   1.000  H
  C18      1.0000 0.86712  0.25195  0.27617  Biso   1.000  C
  O3       1.0000 0.82808  0.59063  0.54089  Biso   1.000  O
  C19      1.0000 0.96443  0.64783  0.44781  Biso   1.000  C
  H15      1.0000 0.94595  0.47785  0.33003  Biso   1.000  H
  C20      1.0000 0.01898  0.58059  0.33470  Biso   1.000  C
  C21      1.0000 0.41194  0.81667  0.18910  Biso   1.000  C
  H16      1.0000 0.35807  0.75998  0.29069  Biso   1.000  H
  O4       1.0000 0.54095  0.55618  0.14871  Biso   1.000  O
  C22      1.0000 0.51195  0.71270  0.10548  Biso   1.000  C
  H17      1.0000 0.82013  0.20844  0.29464  Biso   1.000  H
  H18      1.0000 0.89521  0.24152  0.22388  Biso   1.000  H
  H19      1.0000 0.85794  0.22198  0.32730  Biso   1.000  H
  H20      1.0000 0.85194  0.21397  0.24151  Biso   1.000  H
  Br3      1.0000 0.97619  0.21860  0.32018  Biso   1.000  Br
  Br4      1.0000 0.02498  0.26960  0.25036  Biso   1.000  Br
  C23      1.0000 0.83730  0.65163  0.58929  Biso   1.000  C
  H21      1.0000 0.97027  0.69034  0.47885  Biso   1.000  H
  C24      1.0000 0.02566  0.64534  0.37787  Biso   1.000  C
  O5       1.0000 0.08262  0.58007  0.26588  Biso   1.000  O
  O6       1.0000 0.37204  0.90505  0.20229  Biso   1.000  O
  C25      1.0000 0.46946  0.80220  0.11867  Biso   1.000  C
  C26      1.0000 0.59523  0.53708  0.07789  Biso   1.000  C
  H22      1.0000 0.55079  0.69935  0.05814  Biso   1.000  H
  H23      1.0000 0.91548  0.64213  0.59992  Biso   1.000  H
  H24      1.0000 0.81408  0.71316  0.56620  Biso   1.000  H
  C27      1.0000 0.76148  0.63584  0.66011  Biso   1.000  C
  C28      1.0000 0.09880  0.71087  0.34967  Biso   1.000  C
  C29      1.0000 0.05747  0.53135  0.21292  Biso   1.000  C
  C30      1.0000 0.26842  0.92759  0.24569  Biso   1.000  C
  C31      1.0000 0.49272  0.87580  0.06070  Biso   1.000  C
  H25      1.0000 0.54138  0.55510  0.04073  Biso   1.000  H
  H26      1.0000 0.65538  0.57031  0.06326  Biso   1.000  H
  C32      1.0000 0.64367  0.43998  0.08023  Biso   1.000  C
  H27      1.0000 0.77326  0.57181  0.67691  Biso   1.000  H
  H28      1.0000 0.77743  0.66659  0.69989  Biso   1.000  H
  Br5      1.0000 0.60427  0.68293  0.63780  Biso   1.000  Br
  Br6      1.0000 0.60518  0.65585  0.64648  Biso   1.000  Br
  H29      1.0000 0.78632  0.57413  0.68198  Biso   1.000  H
  H30      1.0000 0.76932  0.67537  0.69605  Biso   1.000  H
  C33      1.0000 0.04953  0.77990  0.28930  Biso   1.000  C
  H31      1.0000 0.10833  0.74113  0.39178  Biso   1.000  H
  H32      1.0000 0.17356  0.67864  0.32958  Biso   1.000  H
  H33      1.0000 0.97551  0.54260  0.21247  Biso   1.000  H
  H34      1.0000 0.08569  0.46721  0.22582  Biso   1.000  H
  C34      1.0000 0.11263  0.56080  0.13809  Biso   1.000  C
  H35      1.0000 0.21381  0.89938  0.22922  Biso   1.000  H
  H36      1.0000 0.27631  0.90557  0.29848  Biso   1.000  H
  C35      1.0000 0.22767  0.02498  0.23840  Biso   1.000  C
  C36      1.0000 0.59758  0.90319  0.07060  Biso   1.000  C
  H37      1.0000 0.42890  0.92729  0.06420  Biso   1.000  H
  H38      1.0000 0.50041  0.85594  0.01068  Biso   1.000  H
  Br7      1.0000 0.53060  0.36906  0.10676  Biso   1.000  Br
  H39      1.0000 0.68425  0.42669  0.03077  Biso   1.000  H
  H40      1.0000 0.69843  0.42316  0.11678  Biso   1.000  H
  C37      1.0000 0.95907  0.85017  0.30677  Biso   1.000  C
  C38      1.0000 0.09071  0.77530  0.21570  Biso   1.000  C
  Br8      1.0000 0.27450  0.53395  0.13542  Biso   1.000  Br
  H41      1.0000 0.09202  0.53068  0.09959  Biso   1.000  H
  H42      1.0000 0.08544  0.62537  0.12651  Biso   1.000  H
  H43      1.0000 0.16804  0.04515  0.27862  Biso   1.000  H
  Br9      1.0000 0.30740  0.06735  0.31312  Biso   1.000  Br
  H44      1.0000 0.24773  0.05102  0.18710  Biso   1.000  H
  H45      1.0000 0.14553  0.04118  0.25097  Biso   1.000  H
  Br10     1.0000 0.16673  0.03474  0.13636  Biso   1.000  Br
  H46      1.0000 0.28872  0.05686  0.23556  Biso   1.000  H
  C39      1.0000 0.59217  0.97388  0.11049  Biso   1.000  C
  C40      1.0000 0.70290  0.85703  0.04351  Biso   1.000  C
  C41      1.0000 0.91194  0.90981  0.25258  Biso   1.000  C
  O7       1.0000 0.92008  0.85407  0.38127  Biso   1.000  O
  C42      1.0000 0.04400  0.83638  0.15951  Biso   1.000  C
  H47      1.0000 0.15280  0.72925  0.20246  Biso   1.000  H
  C43      1.0000 0.68880  0.99616  0.12540  Biso   1.000  C
  H48      1.0000 0.52108  0.00781  0.12807  Biso   1.000  H
  O8       1.0000 0.70423  0.78837  0.00373  Biso   1.000  O
  C44      1.0000 0.79848  0.87991  0.05842  Biso   1.000  C
  C45      1.0000 0.95282  0.90429  0.17792  Biso   1.000  C
  H49      1.0000 0.85006  0.95584  0.26605  Biso   1.000  H
  C46      1.0000 0.89256  0.93504  0.40580  Biso   1.000  C
  O9       1.0000 0.08313  0.83427  0.08490  Biso   1.000  O
  C47      1.0000 0.79374  0.94940  0.09942  Biso   1.000  C
  O10      1.0000 0.68821  0.06263  0.16852  Biso   1.000  O
  C48      1.0000 0.80819  0.74322  0.96851  Biso   1.000  C
  H50      1.0000 0.86951  0.84681  0.03995  Biso   1.000  H
  C49      1.0000 0.89950  0.97096  0.11750  Biso   1.000  C
  H51      1.0000 0.95911  0.96145  0.39356  Biso   1.000  H
  H52      1.0000 0.83402  0.97212  0.37665  Biso   1.000  H
  C50      1.0000 0.85448  0.94195  0.48091  Biso   1.000  C
  C51      1.0000 0.19634  0.78799  0.06660  Biso   1.000  C
  C52      1.0000 0.58347  0.11761  0.19139  Biso   1.000  C
  H53      1.0000 0.85567  0.70985  0.00640  Biso   1.000  H
  H54      1.0000 0.84810  0.78627  0.93797  Biso   1.000  H
  C53      1.0000 0.78501  0.68128  0.92027  Biso   1.000  C
  H55      1.0000 0.95365  0.97147  0.07194  Biso   1.000  H
  H56      1.0000 0.88128  0.03092  0.13430  Biso   1.000  H
  H57      1.0000 0.77483  0.93890  0.48581  Biso   1.000  H
  Br11     1.0000 0.99716  0.86884  0.53655  Biso   1.000  Br
  Br12     1.0000 0.90288  0.88044  0.55847  Biso   1.000  Br
  H58      1.0000 0.78881  0.91498  0.49654  Biso   1.000  H
  H59      1.0000 0.85448  0.00364  0.48809  Biso   1.000  H
  H60      1.0000 0.83418  0.00452  0.49154  Biso   1.000  H
  C54      1.0000 0.22436  0.80738  0.98437  Biso   1.000  C
  H61      1.0000 0.24731  0.80869  0.09363  Biso   1.000  H
  H62      1.0000 0.20364  0.72363  0.08028  Biso   1.000  H
  H63      1.0000 0.54585  0.14668  0.14743  Biso   1.000  H
  H64      1.0000 0.53448  0.08204  0.22315  Biso   1.000  H
  C55      1.0000 0.60599  0.18583  0.23417  Biso   1.000  C
  Br13     1.0000 0.69840  0.74442  0.84077  Biso   1.000  Br
  H65      1.0000 0.85670  0.64629  0.89808  Biso   1.000  H
  H66      1.0000 0.74331  0.63970  0.95115  Biso   1.000  H
  Br14     1.0000 0.12945  0.76429  0.92695  Biso   1.000  Br
  H67      1.0000 0.21543  0.87207  0.97179  Biso   1.000  H
  H68      1.0000 0.30354  0.77931  0.96990  Biso   1.000  H
  Br15     1.0000 0.66024  0.12950  0.32975  Biso   1.000  Br
  H69      1.0000 0.66292  0.21551  0.20429  Biso   1.000  H
  H70      1.0000 0.53668  0.23126  0.24402  Biso   1.000  H
  C56      1.0000 0.38207  0.44707  0.55991  Biso   1.000  C
  C57      1.0000 0.29072  0.51156  0.58517  Biso   1.000  C
  C58      1.0000 0.47156  0.41674  0.60081  Biso   1.000  C
  H71      1.0000 0.38278  0.42376  0.51435  Biso   1.000  H
  C59      1.0000 0.18938  0.53835  0.54417  Biso   1.000  C
  C60      1.0000 0.29448  0.54565  0.65088  Biso   1.000  C
  O11      1.0000 0.56454  0.35313  0.57800  Biso   1.000  O
  C61      1.0000 0.47479  0.45004  0.66707  Biso   1.000  C
  C62      1.0000 0.11057  0.47597  0.56932  Biso   1.000  C
  H72      1.0000 0.21305  0.53769  0.49009  Biso   1.000  H
  H73      1.0000 0.14989  0.59938  0.55346  Biso   1.000  H
  O12      1.0000 0.20297  0.61153  0.67241  Biso   1.000  O
  C63      1.0000 0.38450  0.51576  0.69138  Biso   1.000  C
  C64      1.0000 0.56786  0.32375  0.50678  Biso   1.000  C
  C65      1.0000 0.57231  0.41644  0.71146  Biso   1.000  C
  C66      1.0000 0.10549  0.41044  0.52659  Biso   1.000  C
  C67      1.0000 0.04937  0.47885  0.63936  Biso   1.000  C
  C68      1.0000 0.21274  0.66173  0.72877  Biso   1.000  C
  H74      1.0000 0.38481  0.54022  0.73622  Biso   1.000  H
  H75      1.0000 0.51049  0.28841  0.50890  Biso   1.000  H
  H76      1.0000 0.55105  0.37550  0.46928  Biso   1.000  H
  C69      1.0000 0.67499  0.27156  0.48581  Biso   1.000  C
  C70      1.0000 0.55939  0.34005  0.77016  Biso   1.000  C
  H77      1.0000 0.58351  0.46581  0.73605  Biso   1.000  H
  H78      1.0000 0.64049  0.39742  0.67675  Biso   1.000  H
  O13      1.0000 0.17208  0.40929  0.45910  Biso   1.000  O
  C71      1.0000 0.03567  0.35202  0.55218  Biso   1.000  C
  H79      1.0000 0.05413  0.52207  0.66996  Biso   1.000  H
  C72      1.0000 0.98118  0.41933  0.66529  Biso   1.000  C
  H80      1.0000 0.28989  0.67125  0.72365  Biso   1.000  H
  H81      1.0000 0.19777  0.62889  0.77812  Biso   1.000  H
  C73      1.0000 0.13299  0.74791  0.72376  Biso   1.000  C
  H82      1.0000 0.70653  0.31604  0.45065  Biso   1.000  H
  H83      1.0000 0.65412  0.23393  0.45309  Biso   1.000  H
  Br16     1.0000 0.70179  0.15522  0.55129  Biso   1.000  Br
  H84      1.0000 0.73290  0.30427  0.48998  Biso   1.000  H
  H85      1.0000 0.68097  0.25998  0.43323  Biso   1.000  H
  Br17     1.0000 0.78912  0.20757  0.50901  Biso   1.000  Br
  C74      1.0000 0.60240  0.25264  0.75658  Biso   1.000  C
  C75      1.0000 0.50213  0.35555  0.84026  Biso   1.000  C
  C76      1.0000 0.16286  0.34829  0.41070  Biso   1.000  C
  H86      1.0000 0.02980  0.30958  0.52114  Biso   1.000  H
  C77      1.0000 0.97444  0.35451  0.62211  Biso   1.000  C
  O14      1.0000 0.91746  0.41985  0.73411  Biso   1.000  O
  H87      1.0000 0.17995  0.79148  0.70534  Biso   1.000  H
  H88      1.0000 0.10487  0.75840  0.77611  Biso   1.000  H
  H89      1.0000 0.14222  0.77794  0.67269  Biso   1.000  H
  H90      1.0000 0.14823  0.78594  0.75848  Biso   1.000  H
  Br18     1.0000 0.02389  0.78132  0.67981  Biso   1.000  Br
  Br19     1.0000 0.97518  0.73032  0.74963  Biso   1.000  Br
  C78      1.0000 0.58822  0.18324  0.81088  Biso   1.000  C
  H91      1.0000 0.64209  0.23994  0.70929  Biso   1.000  H
  O15      1.0000 0.45921  0.44374  0.85128  Biso   1.000  O
  C79      1.0000 0.48822  0.28722  0.89450  Biso   1.000  C
  C80      1.0000 0.23868  0.36408  0.33988  Biso   1.000  C
  H92      1.0000 0.08468  0.35778  0.40007  Biso   1.000  H
  H93      1.0000 0.18608  0.28676  0.43379  Biso   1.000  H
  C81      1.0000 0.90137  0.28906  0.65027  Biso   1.000  C
  C82      1.0000 0.94269  0.46857  0.78707  Biso   1.000  C
  O16      1.0000 0.62814  0.09480  0.79770  Biso   1.000  O
  C83      1.0000 0.53071  0.19772  0.88126  Biso   1.000  C
  C84      1.0000 0.40493  0.46284  0.92210  Biso   1.000  C
  H94      1.0000 0.44938  0.30057  0.94179  Biso   1.000  H
  H95      1.0000 0.22690  0.42811  0.32307  Biso   1.000  H
  H96      1.0000 0.22273  0.33332  0.30010  Biso   1.000  H
  Br20     1.0000 0.39581  0.31699  0.36219  Biso   1.000  Br
  Br21     1.0000 0.39498  0.34407  0.35351  Biso   1.000  Br
  H97      1.0000 0.21376  0.42578  0.31801  Biso   1.000  H
  H98      1.0000 0.23085  0.32456  0.30388  Biso   1.000  H
  C85      1.0000 0.95055  0.22002  0.71069  Biso   1.000  C
  H99      1.0000 0.89183  0.25879  0.60821  Biso   1.000  H
  H100     1.0000 0.82660  0.32128  0.67041  Biso   1.000  H
  H101     1.0000 0.02465  0.45732  0.78752  Biso   1.000  H
  H102     1.0000 0.91447  0.53270  0.77417  Biso   1.000  H
  C86      1.0000 0.88753  0.43912  0.86190  Biso   1.000  C
  C87      1.0000 0.73165  0.07233  0.75430  Biso   1.000  C
  C88      1.0000 0.50744  0.12411  0.93929  Biso   1.000  C
  H103     1.0000 0.45870  0.44482  0.95926  Biso   1.000  H
  H104     1.0000 0.34479  0.42962  0.93668  Biso   1.000  H
  C89      1.0000 0.35641  0.55994  0.91976  Biso   1.000  C
  C90      1.0000 0.04110  0.14975  0.69316  Biso   1.000  C
  C91      1.0000 0.90937  0.22462  0.78429  Biso   1.000  C
  Br22     1.0000 0.72566  0.46596  0.86457  Biso   1.000  Br
  H105     1.0000 0.90806  0.46924  0.90040  Biso   1.000  H
  H106     1.0000 0.91464  0.37455  0.87347  Biso   1.000  H
  H107     1.0000 0.78635  0.10054  0.77077  Biso   1.000  H
  H108     1.0000 0.72378  0.09435  0.70145  Biso   1.000  H
  C92      1.0000 0.77241  0.97494  0.76159  Biso   1.000  C
  C93      1.0000 0.40250  0.09673  0.92939  Biso   1.000  C
  H109     1.0000 0.57126  0.07263  0.93579  Biso   1.000  H
  H110     1.0000 0.49967  0.14398  0.98931  Biso   1.000  H
  Br23     1.0000 0.46948  0.63085  0.89322  Biso   1.000  Br
  H111     1.0000 0.31583  0.57322  0.96922  Biso   1.000  H
  H112     1.0000 0.30173  0.57676  0.88321  Biso   1.000  H
  O17      1.0000 0.08009  0.14586  0.61866  Biso   1.000  O
  C94      1.0000 0.08822  0.09011  0.74740  Biso   1.000  C
  C95      1.0000 0.95608  0.16354  0.84048  Biso   1.000  C
  H113     1.0000 0.84728  0.27067  0.79753  Biso   1.000  H
  H114     1.0000 0.83212  0.95477  0.72137  Biso   1.000  H
  Br24     1.0000 0.69276  0.93257  0.68687  Biso   1.000  Br
  H115     1.0000 0.75235  0.94890  0.81289  Biso   1.000  H
  H116     1.0000 0.85463  0.95874  0.74902  Biso   1.000  H
  Br25     1.0000 0.83343  0.96518  0.86363  Biso   1.000  Br
  H117     1.0000 0.71144  0.94306  0.76443  Biso   1.000  H
  C96      1.0000 0.40799  0.02604  0.88950  Biso   1.000  C
  C97      1.0000 0.29726  0.14289  0.95648  Biso   1.000  C
  C98      1.0000 0.10760  0.06488  0.59418  Biso   1.000  C
  H118     1.0000 0.15010  0.04408  0.73394  Biso   1.000  H
  C99      1.0000 0.04734  0.09563  0.82207  Biso   1.000  C
  O18      1.0000 0.91703  0.16565  0.91509  Biso   1.000  O
  C100     1.0000 0.31128  0.00375  0.87459  Biso   1.000  C
  H119     1.0000 0.47909  0.99212  0.87186  Biso   1.000  H
  C101     1.0000 0.20160  0.12001  0.94157  Biso   1.000  C
  O19      1.0000 0.29593  0.21155  0.99626  Biso   1.000  O
  H120     1.0000 0.04107  0.03840  0.60642  Biso   1.000  H
  H121     1.0000 0.16614  0.02780  0.62334  Biso   1.000  H
  C102     1.0000 0.14568  0.05797  0.51908  Biso   1.000  C
  C103     1.0000 0.10060  0.02889  0.88249  Biso   1.000  C
  C104     1.0000 0.80382  0.21192  0.93339  Biso   1.000  C
  C105     1.0000 0.20642  0.05052  0.90057  Biso   1.000  C
  O20      1.0000 0.31195  0.93729  0.83147  Biso   1.000  O
  H122     1.0000 0.13058  0.15311  0.95999  Biso   1.000  H
  C106     1.0000 0.19189  0.25669  0.03148  Biso   1.000  C
  H123     1.0000 0.22533  0.06102  0.51418  Biso   1.000  H
  Br26     1.0000 0.00292  0.13108  0.46344  Biso   1.000  Br
  Br27     1.0000 0.09728  0.11948  0.44152  Biso   1.000  Br
  H124     1.0000 0.21135  0.08494  0.50344  Biso   1.000  H
  H125     1.0000 0.14560  0.99628  0.51190  Biso   1.000  H
  H126     1.0000 0.16599  0.99540  0.50840  Biso   1.000  H
  H127     1.0000 0.04643  0.02845  0.92805  Biso   1.000  H
  H128     1.0000 0.11888  0.96900  0.86569  Biso   1.000  H
  H129     1.0000 0.75280  0.19117  0.90630  Biso   1.000  H
  H130     1.0000 0.79652  0.27629  0.91971  Biso   1.000  H
  C107     1.0000 0.77581  0.19255  0.01557  Biso   1.000  C
  C108     1.0000 0.41661  0.88230  0.80860  Biso   1.000  C
  H131     1.0000 0.14449  0.29007  0.99359  Biso   1.000  H
  H132     1.0000 0.15199  0.21365  0.06197  Biso   1.000  H
  C109     1.0000 0.21507  0.31864  0.07971  Biso   1.000  C
  Br28     1.0000 0.87072  0.23563  0.07298  Biso   1.000  Br
  H133     1.0000 0.78465  0.12785  0.02820  Biso   1.000  H
  H134     1.0000 0.69654  0.22061  0.03009  Biso   1.000  H
  H135     1.0000 0.45431  0.85324  0.85256  Biso   1.000  H
  H136     1.0000 0.46562  0.91781  0.77684  Biso   1.000  H
  C110     1.0000 0.39418  0.81409  0.76576  Biso   1.000  C
  Br29     1.0000 0.30177  0.25551  0.15916  Biso   1.000  Br
  H137     1.0000 0.14346  0.35363  0.10191  Biso   1.000  H
  H138     1.0000 0.25685  0.36022  0.04884  Biso   1.000  H
  Br30     1.0000 0.33992  0.87042  0.67024  Biso   1.000  Br
  H139     1.0000 0.33724  0.78441  0.79570  Biso   1.000  H
  H140     1.0000 0.46348  0.76866  0.75597  Biso   1.000  H
