data_image0
_cell_length_a       12.036
_cell_length_b       12.903
_cell_length_c       22.467
_cell_angle_alpha    76.33
_cell_angle_beta     89.29
_cell_angle_gamma    85.57

_symmetry_space_group_name_H-M    "P 1"
_symmetry_int_tables_number       1

loop_
  _symmetry_equiv_pos_as_xyz
  'x, y, z'

loop_
  _atom_site_label
  _atom_site_occupancy
  _atom_site_fract_x
  _atom_site_fract_y
  _atom_site_fract_z
  _atom_site_thermal_displace_type
  _atom_site_B_iso_or_equiv
  _atom_site_type_symbol
  C1       1.0000 0.61183  0.35768  0.59120  Biso   1.000  C
  N1       1.0000 0.68122  0.27266  0.57512  Biso   1.000  N
  H1       1.0000 0.54733  0.37966  0.56372  Biso   1.000  H
  C2       1.0000 0.69088  0.44908  0.58538  Biso   1.000  C
  N2       1.0000 0.57929  0.33758  0.65464  Biso   1.000  N
  C3       1.0000 0.63547  0.18138  0.55913  Biso   1.000  C
  C4       1.0000 0.78584  0.30494  0.55584  Biso   1.000  C
  N3       1.0000 0.79445  0.40313  0.56843  Biso   1.000  N
  H2       1.0000 0.66412  0.51211  0.55391  Biso   1.000  H
  N4       1.0000 0.68732  0.47129  0.64539  Biso   1.000  N
  C5       1.0000 0.48643  0.27354  0.67801  Biso   1.000  C
  C6       1.0000 0.61718  0.40960  0.68378  Biso   1.000  C
  H3       1.0000 0.68666  0.15387  0.53179  Biso   1.000  H
  H4       1.0000 0.56565  0.20493  0.53728  Biso   1.000  H
  N5       1.0000 0.61624  0.09583  0.61223  Biso   1.000  N
  O1       1.0000 0.85671  0.25524  0.53270  Biso   1.000  O
  C7       1.0000 0.88558  0.46788  0.54562  Biso   1.000  C
  C8       1.0000 0.73325  0.56448  0.65730  Biso   1.000  C
  N6       1.0000 0.51733  0.15973  0.69422  Biso   1.000  N
  H5       1.0000 0.42802  0.28815  0.64709  Biso   1.000  H
  H6       1.0000 0.45647  0.29520  0.71387  Biso   1.000  H
  O2       1.0000 0.59135  0.41919  0.73517  Biso   1.000  O
  C9       1.0000 0.51774  0.09497  0.64938  Biso   1.000  C
  C10      1.0000 0.67651  0.99979  0.62400  Biso   1.000  C
  H7       1.0000 0.92906  0.43411  0.51782  Biso   1.000  H
  H8       1.0000 0.85504  0.53712  0.52230  Biso   1.000  H
  N7       1.0000 0.95997  0.48429  0.59312  Biso   1.000  N
  H9       1.0000 0.72005  0.62354  0.62171  Biso   1.000  H
  H10      1.0000 0.69396  0.58389  0.69147  Biso   1.000  H
  N8       1.0000 0.85109  0.55038  0.67095  Biso   1.000  N
  C11      1.0000 0.50778  0.10035  0.75208  Biso   1.000  C
  H11      1.0000 0.44995  0.11095  0.62418  Biso   1.000  H
  C12      1.0000 0.52431  0.97928  0.68978  Biso   1.000  C
  N9       1.0000 0.63187  0.93413  0.67333  Biso   1.000  N
  O3       1.0000 0.75864  0.97531  0.59496  Biso   1.000  O
  C13      1.0000 0.94166  0.56855  0.62707  Biso   1.000  C
  C14      1.0000 0.05734  0.42536  0.60691  Biso   1.000  C
  C15      1.0000 0.88635  0.52538  0.73027  Biso   1.000  C
  N10      1.0000 0.51620  0.99391  0.75121  Biso   1.000  N
  O4       1.0000 0.48980  0.13505  0.79821  Biso   1.000  O
  H12      1.0000 0.46319  0.93947  0.68039  Biso   1.000  H
  C16      1.0000 0.66353  0.81971  0.69124  Biso   1.000  C
  C17      1.0000 0.92932  0.67851  0.58341  Biso   1.000  C
  C18      1.0000 0.04851  0.54730  0.67068  Biso   1.000  C
  N11      1.0000 0.10851  0.45357  0.65350  Biso   1.000  N
  O5       1.0000 0.09678  0.35776  0.58025  Biso   1.000  O
  O6       1.0000 0.82643  0.51194  0.77530  Biso   1.000  O
  N12      1.0000 0.00007  0.51927  0.73133  Biso   1.000  N
  C19      1.0000 0.51104  0.90764  0.80508  Biso   1.000  C
  H13      1.0000 0.59676  0.78129  0.69468  Biso   1.000  H
  H14      1.0000 0.70905  0.79966  0.65918  Biso   1.000  H
  N13      1.0000 0.72550  0.78651  0.74951  Biso   1.000  N
  H15      1.0000 0.99112  0.68651  0.55570  Biso   1.000  H
  H16      1.0000 0.86111  0.68597  0.56060  Biso   1.000  H
  H17      1.0000 0.92797  0.73253  0.60641  Biso   1.000  H
  C20      1.0000 0.12318  0.63897  0.66289  Biso   1.000  C
  C21      1.0000 0.21576  0.40186  0.67727  Biso   1.000  C
  C22      1.0000 0.05938  0.48813  0.78950  Biso   1.000  C
  H18      1.0000 0.47444  0.93530  0.83737  Biso   1.000  H
  H19      1.0000 0.46565  0.85438  0.79587  Biso   1.000  H
  N14      1.0000 0.62010  0.85569  0.82739  Biso   1.000  N
  C23      1.0000 0.67585  0.76303  0.81044  Biso   1.000  C
  C24      1.0000 0.83758  0.77532  0.74988  Biso   1.000  C
  H20      1.0000 0.15331  0.65377  0.62230  Biso   1.000  H
  H21      1.0000 0.08048  0.70135  0.66921  Biso   1.000  H
  H22      1.0000 0.18285  0.61962  0.69230  Biso   1.000  H
  H23      1.0000 0.26008  0.45483  0.68758  Biso   1.000  H
  H24      1.0000 0.25447  0.37486  0.64530  Biso   1.000  H
  N15      1.0000 0.20798  0.31433  0.73082  Biso   1.000  N
  H25      1.0000 0.01217  0.50767  0.82111  Biso   1.000  H
  H26      1.0000 0.12548  0.52753  0.78671  Biso   1.000  H
  N16      1.0000 0.09197  0.37454  0.80728  Biso   1.000  N
  C25      1.0000 0.67094  0.88478  0.87411  Biso   1.000  C
  C26      1.0000 0.78222  0.73854  0.85400  Biso   1.000  C
  C27      1.0000 0.60016  0.67168  0.81800  Biso   1.000  C
  N17      1.0000 0.87377  0.75402  0.81003  Biso   1.000  N
  O7       1.0000 0.89821  0.78199  0.70563  Biso   1.000  O
  C28      1.0000 0.19954  0.32887  0.79248  Biso   1.000  C
  C29      1.0000 0.22135  0.20865  0.72867  Biso   1.000  C
  C30      1.0000 0.04096  0.30707  0.85478  Biso   1.000  C
  N18      1.0000 0.76857  0.82279  0.88776  Biso   1.000  N
  O8       1.0000 0.63619  0.95520  0.89958  Biso   1.000  O
  C31      1.0000 0.79478  0.62812  0.89688  Biso   1.000  C
  H27      1.0000 0.63960  0.61202  0.80641  Biso   1.000  H
  H28      1.0000 0.57741  0.65071  0.86000  Biso   1.000  H
  H29      1.0000 0.53552  0.69487  0.79230  Biso   1.000  H
  C32      1.0000 0.99166  0.74199  0.82450  Biso   1.000  C
  H30      1.0000 0.26063  0.36789  0.80247  Biso   1.000  H
  C33      1.0000 0.20396  0.21206  0.83238  Biso   1.000  C
  N19      1.0000 0.20629  0.14850  0.78708  Biso   1.000  N
  O9       1.0000 0.24308  0.17457  0.68369  Biso   1.000  O
  O10      1.0000 0.95818  0.33001  0.88172  Biso   1.000  O
  N20      1.0000 0.10219  0.21130  0.86742  Biso   1.000  N
  C34      1.0000 0.83872  0.83469  0.93714  Biso   1.000  C
  H31      1.0000 0.73374  0.61991  0.92510  Biso   1.000  H
  H32      1.0000 0.79483  0.57481  0.87347  Biso   1.000  H
  H33      1.0000 0.86365  0.61994  0.91919  Biso   1.000  H
  H34      1.0000 0.00520  0.68297  0.86000  Biso   1.000  H
  H35      1.0000 0.03236  0.72349  0.79037  Biso   1.000  H
  N21      1.0000 0.03525  0.83725  0.83687  Biso   1.000  N
  H36      1.0000 0.27007  0.19495  0.85899  Biso   1.000  H
  C35      1.0000 0.23776  0.03367  0.80370  Biso   1.000  C
  C36      1.0000 0.08191  0.12625  0.92079  Biso   1.000  C
  H37      1.0000 0.86705  0.76421  0.95991  Biso   1.000  H
  H38      1.0000 0.79350  0.86732  0.96490  Biso   1.000  H
  N22      1.0000 0.93170  0.89826  0.91758  Biso   1.000  N
  C37      1.0000 0.03607  0.85647  0.89752  Biso   1.000  C
  C38      1.0000 0.10813  0.89691  0.79830  Biso   1.000  C
  N23      1.0000 0.14558  0.96943  0.82697  Biso   1.000  N
  H39      1.0000 0.29604  0.01951  0.83467  Biso   1.000  H
  H40      1.0000 0.26814  0.01187  0.76797  Biso   1.000  H
  N24      1.0000 0.03864  0.03388  0.90576  Biso   1.000  N
  H41      1.0000 0.02921  0.15428  0.94727  Biso   1.000  H
  H42      1.0000 0.15110  0.10398  0.94351  Biso   1.000  H
  C39      1.0000 0.93720  0.00020  0.92542  Biso   1.000  C
  C40      1.0000 0.11249  0.94998  0.89037  Biso   1.000  C
  H43      1.0000 0.06654  0.79311  0.92771  Biso   1.000  H
  O11      1.0000 0.13434  0.88577  0.74690  Biso   1.000  O
  O12      1.0000 0.86627  0.04970  0.94846  Biso   1.000  O
  H44      1.0000 0.17700  0.93078  0.91809  Biso   1.000  H
  C41      1.0000 0.38824  0.64245  0.40879  Biso   1.000  C
  C42      1.0000 0.30919  0.55105  0.41461  Biso   1.000  C
  N25      1.0000 0.42078  0.66255  0.34535  Biso   1.000  N
  H45      1.0000 0.45274  0.62047  0.43628  Biso   1.000  H
  N26      1.0000 0.31885  0.72747  0.42487  Biso   1.000  N
  N27      1.0000 0.31275  0.52884  0.35460  Biso   1.000  N
  H46      1.0000 0.33595  0.48793  0.44608  Biso   1.000  H
  N28      1.0000 0.20563  0.59692  0.43156  Biso   1.000  N
  C43      1.0000 0.38289  0.59053  0.31621  Biso   1.000  C
  C44      1.0000 0.51365  0.72651  0.32199  Biso   1.000  C
  C45      1.0000 0.21424  0.69511  0.44416  Biso   1.000  C
  C46      1.0000 0.36460  0.81875  0.44086  Biso   1.000  C
  C47      1.0000 0.26682  0.43565  0.34269  Biso   1.000  C
  C48      1.0000 0.11449  0.53224  0.45437  Biso   1.000  C
  O13      1.0000 0.40871  0.58094  0.26482  Biso   1.000  O
  H47      1.0000 0.57205  0.71190  0.35291  Biso   1.000  H
  H48      1.0000 0.54360  0.70492  0.28612  Biso   1.000  H
  N29      1.0000 0.48275  0.84032  0.30577  Biso   1.000  N
  O14      1.0000 0.14336  0.74488  0.46729  Biso   1.000  O
  H49      1.0000 0.31341  0.84626  0.46821  Biso   1.000  H
  H50      1.0000 0.43442  0.79512  0.46271  Biso   1.000  H
  N30      1.0000 0.38384  0.90422  0.38777  Biso   1.000  N
  N31      1.0000 0.14898  0.44975  0.32904  Biso   1.000  N
  H51      1.0000 0.28003  0.37651  0.37828  Biso   1.000  H
  H52      1.0000 0.30610  0.41624  0.30852  Biso   1.000  H
  N32      1.0000 0.04010  0.51586  0.40682  Biso   1.000  N
  H53      1.0000 0.07101  0.56594  0.48218  Biso   1.000  H
  H54      1.0000 0.14503  0.46293  0.47769  Biso   1.000  H
  C49      1.0000 0.49230  0.89969  0.24791  Biso   1.000  C
  C50      1.0000 0.48233  0.90516  0.35062  Biso   1.000  C
  C51      1.0000 0.32356  0.00026  0.37599  Biso   1.000  C
  C52      1.0000 0.11372  0.47475  0.26972  Biso   1.000  C
  C53      1.0000 0.05842  0.43150  0.37292  Biso   1.000  C
  C54      1.0000 0.94274  0.57469  0.39308  Biso   1.000  C
  O15      1.0000 0.51028  0.86500  0.20178  Biso   1.000  O
  N33      1.0000 0.48387  0.00622  0.24878  Biso   1.000  N
  H55      1.0000 0.55012  0.88910  0.37581  Biso   1.000  H
  C55      1.0000 0.47576  0.02077  0.31021  Biso   1.000  C
  N34      1.0000 0.36820  0.06599  0.32666  Biso   1.000  N
  O16      1.0000 0.24143  0.02482  0.40504  Biso   1.000  O
  O17      1.0000 0.17364  0.48811  0.22469  Biso   1.000  O
  N35      1.0000 1.00000  0.48086  0.26866  Biso   1.000  N
  C56      1.0000 0.95148  0.45282  0.32931  Biso   1.000  C
  C57      1.0000 0.07075  0.32154  0.41658  Biso   1.000  C
  N36      1.0000 0.89156  0.54656  0.34649  Biso   1.000  N
  O18      1.0000 0.90329  0.64231  0.41969  Biso   1.000  O
  C58      1.0000 0.48903  0.09248  0.19491  Biso   1.000  C
  H56      1.0000 0.53689  0.06058  0.31960  Biso   1.000  H
  C59      1.0000 0.33654  0.18042  0.30875  Biso   1.000  C
  C60      1.0000 0.94069  0.51192  0.21049  Biso   1.000  C
  C61      1.0000 0.87689  0.36115  0.33710  Biso   1.000  C
  H57      1.0000 0.00896  0.31354  0.44429  Biso   1.000  H
  H58      1.0000 0.13896  0.31416  0.43939  Biso   1.000  H
  H59      1.0000 0.07210  0.26752  0.39358  Biso   1.000  H
  C62      1.0000 0.78431  0.59818  0.32272  Biso   1.000  C
  H60      1.0000 0.52564  0.06475  0.16262  Biso   1.000  H
  H61      1.0000 0.53443  0.14568  0.20408  Biso   1.000  H
  N37      1.0000 0.37998  0.14436  0.17261  Biso   1.000  N
  H62      1.0000 0.40332  0.21876  0.30531  Biso   1.000  H
  H63      1.0000 0.29102  0.20039  0.34081  Biso   1.000  H
  N38      1.0000 0.27457  0.21361  0.25048  Biso   1.000  N
  H64      1.0000 0.98790  0.49246  0.17888  Biso   1.000  H
  H65      1.0000 0.87460  0.47252  0.21328  Biso   1.000  H
  N39      1.0000 0.90810  0.62551  0.19271  Biso   1.000  N
  H66      1.0000 0.84676  0.34636  0.37769  Biso   1.000  H
  H67      1.0000 0.91959  0.29877  0.33078  Biso   1.000  H
  H68      1.0000 0.81723  0.38043  0.30769  Biso   1.000  H
  H69      1.0000 0.74000  0.54522  0.31241  Biso   1.000  H
  H70      1.0000 0.74560  0.62527  0.35469  Biso   1.000  H
  N40      1.0000 0.79209  0.68571  0.26917  Biso   1.000  N
  C63      1.0000 0.32913  0.11527  0.12588  Biso   1.000  C
  C64      1.0000 0.32422  0.23710  0.18955  Biso   1.000  C
  C65      1.0000 0.16249  0.22480  0.25011  Biso   1.000  C
  C66      1.0000 0.95912  0.69298  0.14521  Biso   1.000  C
  C67      1.0000 0.80054  0.67118  0.20751  Biso   1.000  C
  C68      1.0000 0.77872  0.79142  0.27128  Biso   1.000  C
  N41      1.0000 0.23151  0.17725  0.11223  Biso   1.000  N
  O19      1.0000 0.36388  0.04485  0.10041  Biso   1.000  O
  C69      1.0000 0.21785  0.26159  0.14599  Biso   1.000  C
  C70      1.0000 0.39992  0.32837  0.18200  Biso   1.000  C
  N42      1.0000 0.12630  0.24610  0.18997  Biso   1.000  N
  O20      1.0000 0.10187  0.21808  0.29432  Biso   1.000  O
  O21      1.0000 0.04189  0.67012  0.11828  Biso   1.000  O
  N43      1.0000 0.89788  0.78883  0.13257  Biso   1.000  N
  H71      1.0000 0.73944  0.63225  0.19748  Biso   1.000  H
  C71      1.0000 0.79611  0.78798  0.16761  Biso   1.000  C
  N44      1.0000 0.79378  0.85163  0.21292  Biso   1.000  N
  O22      1.0000 0.75699  0.82556  0.31631  Biso   1.000  O
  C72      1.0000 0.16135  0.16535  0.06285  Biso   1.000  C
  C73      1.0000 0.20529  0.37200  0.10311  Biso   1.000  C
  H72      1.0000 0.36047  0.38811  0.19359  Biso   1.000  H
  H73      1.0000 0.42266  0.34942  0.13999  Biso   1.000  H
  H74      1.0000 0.46455  0.30518  0.20769  Biso   1.000  H
  C74      1.0000 0.00842  0.25806  0.17549  Biso   1.000  C
  C75      1.0000 0.91817  0.87382  0.07916  Biso   1.000  C
  H75      1.0000 0.73001  0.80510  0.14100  Biso   1.000  H
  C76      1.0000 0.76231  0.96645  0.19629  Biso   1.000  C
  N45      1.0000 0.06837  0.10187  0.08241  Biso   1.000  N
  H76      1.0000 0.13303  0.23584  0.04008  Biso   1.000  H
  H77      1.0000 0.20657  0.13280  0.03509  Biso   1.000  H
  H78      1.0000 0.26634  0.38014  0.07490  Biso   1.000  H
  H79      1.0000 0.20524  0.42526  0.12648  Biso   1.000  H
  H80      1.0000 0.13642  0.38019  0.08081  Biso   1.000  H
  N46      1.0000 0.96482  0.16288  0.16312  Biso   1.000  N
  H81      1.0000 0.99488  0.31708  0.13999  Biso   1.000  H
  H82      1.0000 0.96771  0.27656  0.20962  Biso   1.000  H
  H83      1.0000 0.97087  0.84579  0.05268  Biso   1.000  H
  H84      1.0000 0.84896  0.89615  0.05648  Biso   1.000  H
  N47      1.0000 0.96135  0.96625  0.09423  Biso   1.000  N
  H85      1.0000 0.70402  0.98064  0.16528  Biso   1.000  H
  H86      1.0000 0.73193  0.98818  0.23202  Biso   1.000  H
  N48      1.0000 0.85449  0.03069  0.17302  Biso   1.000  N
  C77      1.0000 0.06287  0.99992  0.07458  Biso   1.000  C
  C78      1.0000 0.96400  0.14358  0.10247  Biso   1.000  C
  C79      1.0000 0.89194  0.10321  0.20169  Biso   1.000  C
  C80      1.0000 0.88758  0.05007  0.10962  Biso   1.000  C
  O23      1.0000 0.13380  0.95042  0.05153  Biso   1.000  O
  H87      1.0000 0.93353  0.20694  0.07229  Biso   1.000  H
  O24      1.0000 0.86574  0.11428  0.25309  Biso   1.000  O
  H88      1.0000 0.82307  0.06927  0.08190  Biso   1.000  H
