data_image0
_cell_length_a       15.249
_cell_length_b       15.3
_cell_length_c       17.853
_cell_angle_alpha    99.56
_cell_angle_beta     113.42
_cell_angle_gamma    101.93

_symmetry_space_group_name_H-M    "P 1"
_symmetry_int_tables_number       1

loop_
  _symmetry_equiv_pos_as_xyz
  'x, y, z'

loop_
  _atom_site_label
  _atom_site_occupancy
  _atom_site_fract_x
  _atom_site_fract_y
  _atom_site_fract_z
  _atom_site_thermal_displace_type
  _atom_site_B_iso_or_equiv
  _atom_site_type_symbol
  C1       1.0000 0.49707  0.57726  0.37317  Biso   1.000  C
  C2       1.0000 0.40228  0.50998  0.36561  Biso   1.000  C
  C3       1.0000 0.54497  0.64820  0.46057  Biso   1.000  C
  O1       1.0000 0.47107  0.62447  0.30908  Biso   1.000  O
  H1       1.0000 0.54450  0.54282  0.36841  Biso   1.000  H
  C4       1.0000 0.43096  0.46234  0.43580  Biso   1.000  C
  O2       1.0000 0.34979  0.44423  0.28367  Biso   1.000  O
  H2       1.0000 0.35759  0.54655  0.37279  Biso   1.000  H
  C5       1.0000 0.56647  0.59894  0.53070  Biso   1.000  C
  O3       1.0000 0.63573  0.70965  0.47137  Biso   1.000  O
  H3       1.0000 0.49832  0.68459  0.46318  Biso   1.000  H
  H4       1.0000 0.51836  0.67278  0.32280  Biso   1.000  H
  O4       1.0000 0.49737  0.41385  0.42678  Biso   1.000  O
  O5       1.0000 0.47778  0.52923  0.51577  Biso   1.000  O
  H5       1.0000 0.36954  0.41732  0.43027  Biso   1.000  H
  H6       1.0000 0.31899  0.46985  0.24778  Biso   1.000  H
  H7       1.0000 0.61924  0.56870  0.53228  Biso   1.000  H
  C6       1.0000 0.60106  0.66411  0.61670  Biso   1.000  C
  C7       1.0000 0.64804  0.80670  0.49360  Biso   1.000  C
  C8       1.0000 0.46876  0.31436  0.41655  Biso   1.000  C
  O6       1.0000 0.53238  0.71204  0.61899  Biso   1.000  O
  H8       1.0000 0.61144  0.62834  0.65919  Biso   1.000  H
  H9       1.0000 0.66625  0.70980  0.63258  Biso   1.000  H
  O7       1.0000 0.72906  0.85290  0.57255  Biso   1.000  O
  H10      1.0000 0.58579  0.81562  0.49551  Biso   1.000  H
  C9       1.0000 0.66226  0.84754  0.42437  Biso   1.000  C
  C10      1.0000 0.47247  0.26771  0.33766  Biso   1.000  C
  H11      1.0000 0.39928  0.29255  0.41071  Biso   1.000  H
  C11      1.0000 0.54258  0.29613  0.49538  Biso   1.000  C
  H12      1.0000 0.49234  0.68178  0.63379  Biso   1.000  H
  C12      1.0000 0.82507  0.85404  0.57897  Biso   1.000  C
  O8       1.0000 0.57898  0.80287  0.34408  Biso   1.000  O
  H13      1.0000 0.66716  0.91493  0.43910  Biso   1.000  H
  C13      1.0000 0.75965  0.83984  0.42386  Biso   1.000  C
  O9       1.0000 0.39292  0.27858  0.26671  Biso   1.000  O
  C14      1.0000 0.45850  0.16556  0.33188  Biso   1.000  C
  H14      1.0000 0.53838  0.29717  0.33919  Biso   1.000  H
  O10      1.0000 0.53247  0.19803  0.48356  Biso   1.000  O
  H15      1.0000 0.61298  0.33235  0.51088  Biso   1.000  H
  C15      1.0000 0.51683  0.32121  0.57008  Biso   1.000  C
  C16      1.0000 0.84317  0.89380  0.51037  Biso   1.000  C
  H16      1.0000 0.83215  0.79014  0.57376  Biso   1.000  H
  C17      1.0000 0.89632  0.91717  0.66815  Biso   1.000  C
  H17      1.0000 0.56127  0.74542  0.33811  Biso   1.000  H
  O11      1.0000 0.77606  0.87855  0.36282  Biso   1.000  O
  H18      1.0000 0.75814  0.77310  0.41217  Biso   1.000  H
  H19      1.0000 0.40419  0.33499  0.26748  Biso   1.000  H
  O12      1.0000 0.45587  0.11686  0.25661  Biso   1.000  O
  C18      1.0000 0.53857  0.15474  0.41026  Biso   1.000  C
  H20      1.0000 0.39229  0.13886  0.33087  Biso   1.000  H
  O13      1.0000 0.41877  0.27353  0.55337  Biso   1.000  O
  H21      1.0000 0.56462  0.30761  0.62007  Biso   1.000  H
  H22      1.0000 0.52605  0.38894  0.58507  Biso   1.000  H
  O14      1.0000 0.93486  0.88261  0.51158  Biso   1.000  O
  H23      1.0000 0.84687  0.96111  0.52129  Biso   1.000  H
  H24      1.0000 0.88778  0.88619  0.71039  Biso   1.000  H
  H25      1.0000 0.96628  0.92653  0.67679  Biso   1.000  H
  O15      1.0000 0.88005  0.00665  0.68308  Biso   1.000  O
  H26      1.0000 0.72315  0.88757  0.33036  Biso   1.000  H
  H27      1.0000 0.51398  0.11557  0.26538  Biso   1.000  H
  O16      1.0000 0.63275  0.19721  0.41376  Biso   1.000  O
  H28      1.0000 0.52987  0.08725  0.40601  Biso   1.000  H
  H29      1.0000 0.37825  0.29751  0.52269  Biso   1.000  H
  C19      1.0000 0.01555  0.96351  0.53717  Biso   1.000  C
  H30      1.0000 0.85715  0.01091  0.71877  Biso   1.000  H
  C20      1.0000 0.70104  0.14365  0.42106  Biso   1.000  C
  H31      1.0000 0.99345  0.01986  0.54657  Biso   1.000  H
  O17      1.0000 0.09749  0.96683  0.61130  Biso   1.000  O
  C21      1.0000 0.04795  0.96151  0.46591  Biso   1.000  C
  C22      1.0000 0.72670  0.14365  0.34668  Biso   1.000  C
  H32      1.0000 0.66840  0.07846  0.41801  Biso   1.000  H
  C23      1.0000 0.79434  0.18780  0.50605  Biso   1.000  C
  C24      1.0000 0.13523  0.88703  0.60565  Biso   1.000  C
  O18      1.0000 0.96895  0.96372  0.38930  Biso   1.000  O
  C25      1.0000 0.08304  0.87712  0.45238  Biso   1.000  C
  H33      1.0000 0.10584  0.01835  0.48439  Biso   1.000  H
  O19      1.0000 0.63806  0.09139  0.27110  Biso   1.000  O
  C26      1.0000 0.80937  0.09828  0.35812  Biso   1.000  C
  H34      1.0000 0.74929  0.20883  0.34421  Biso   1.000  H
  O20      1.0000 0.87275  0.14683  0.51018  Biso   1.000  O
  H35      1.0000 0.81926  0.25584  0.51278  Biso   1.000  H
  C27      1.0000 0.77528  0.17494  0.58145  Biso   1.000  C
  C28      1.0000 0.16645  0.87703  0.53330  Biso   1.000  C
  H36      1.0000 0.08145  0.82931  0.59415  Biso   1.000  H
  C29      1.0000 0.22123  0.90341  0.69070  Biso   1.000  C
  H37      1.0000 0.91396  0.93075  0.38321  Biso   1.000  H
  O21      1.0000 0.11595  0.87426  0.38727  Biso   1.000  O
  H38      1.0000 0.02552  0.82001  0.43427  Biso   1.000  H
  H39      1.0000 0.62377  0.12444  0.23749  Biso   1.000  H
  O22      1.0000 0.83620  0.09637  0.29021  Biso   1.000  O
  C30      1.0000 0.89967  0.15022  0.44279  Biso   1.000  C
  H40      1.0000 0.78441  0.03288  0.35901  Biso   1.000  H
  O23      1.0000 0.73245  0.07871  0.57205  Biso   1.000  O
  H41      1.0000 0.83928  0.20051  0.63417  Biso   1.000  H
  H42      1.0000 0.72915  0.20992  0.58665  Biso   1.000  H
  O24      1.0000 0.18403  0.78929  0.52085  Biso   1.000  O
  H43      1.0000 0.22842  0.92824  0.54867  Biso   1.000  H
  O25      1.0000 0.18631  0.90536  0.75275  Biso   1.000  O
  H44      1.0000 0.25286  0.85322  0.68930  Biso   1.000  H
  H45      1.0000 0.27228  0.96333  0.70480  Biso   1.000  H
  H46      1.0000 0.15093  0.92764  0.39369  Biso   1.000  H
  H47      1.0000 0.88149  0.14548  0.30197  Biso   1.000  H
  O26      1.0000 0.93524  0.24265  0.44139  Biso   1.000  O
  H48      1.0000 0.95350  0.11975  0.45028  Biso   1.000  H
  H49      1.0000 0.77437  0.06039  0.60800  Biso   1.000  H
  C31      1.0000 0.28324  0.78621  0.53870  Biso   1.000  C
  H50      1.0000 0.15503  0.85109  0.74805  Biso   1.000  H
  C32      1.0000 0.03926  0.27661  0.46419  Biso   1.000  C
  C33      1.0000 0.27658  0.72762  0.45790  Biso   1.000  C
  O27      1.0000 0.32118  0.74762  0.60698  Biso   1.000  O
  H51      1.0000 0.32806  0.85062  0.55331  Biso   1.000  H
  C34      1.0000 0.05196  0.31187  0.39331  Biso   1.000  C
  H52      1.0000 0.07075  0.22569  0.47366  Biso   1.000  H
  C35      1.0000 0.08998  0.35721  0.54556  Biso   1.000  C
  C36      1.0000 0.20699  0.63125  0.43656  Biso   1.000  C
  O28      1.0000 0.24613  0.76896  0.39095  Biso   1.000  O
  H53      1.0000 0.34476  0.72214  0.46959  Biso   1.000  H
  C37      1.0000 0.26254  0.65431  0.59358  Biso   1.000  C
  O29      1.0000 0.00617  0.23417  0.31842  Biso   1.000  O
  C38      1.0000 0.16294  0.34952  0.42125  Biso   1.000  C
  H54      1.0000 0.01938  0.36174  0.38238  Biso   1.000  H
  O30      1.0000 0.19487  0.39263  0.56747  Biso   1.000  O
  H55      1.0000 0.05772  0.40774  0.53616  Biso   1.000  H
  C39      1.0000 0.08509  0.32734  0.62038  Biso   1.000  C
  C40      1.0000 0.24756  0.59016  0.51050  Biso   1.000  C
  O31      1.0000 0.19935  0.57192  0.36148  Biso   1.000  O
  H56      1.0000 0.13897  0.63563  0.42697  Biso   1.000  H
  H57      1.0000 0.20439  0.79566  0.39419  Biso   1.000  H
  H58      1.0000 0.19566  0.65534  0.58989  Biso   1.000  H
  C41      1.0000 0.31834  0.62301  0.67050  Biso   1.000  C
  H59      1.0000 0.00128  0.25359  0.27599  Biso   1.000  H
  O32      1.0000 0.18258  0.38516  0.35780  Biso   1.000  O
  C42      1.0000 0.21335  0.42539  0.50465  Biso   1.000  C
  H60      1.0000 0.19286  0.29751  0.42996  Biso   1.000  H
  O33      1.0000 0.13048  0.25599  0.63359  Biso   1.000  O
  H61      1.0000 0.12039  0.38101  0.67190  Biso   1.000  H
  H62      1.0000 0.01434  0.30450  0.60958  Biso   1.000  H
  O34      1.0000 0.17599  0.50196  0.49100  Biso   1.000  O
  H63      1.0000 0.31296  0.58069  0.51717  Biso   1.000  H
  H64      1.0000 0.18175  0.51610  0.36136  Biso   1.000  H
  O35      1.0000 0.41004  0.61442  0.67367  Biso   1.000  O
  H65      1.0000 0.33137  0.66882  0.72277  Biso   1.000  H
  H66      1.0000 0.27660  0.56237  0.66745  Biso   1.000  H
  H67      1.0000 0.19596  0.34514  0.32928  Biso   1.000  H
  H68      1.0000 0.28727  0.44585  0.52345  Biso   1.000  H
  H69      1.0000 0.10357  0.22100  0.65506  Biso   1.000  H
  H70      1.0000 0.42684  0.57522  0.69978  Biso   1.000  H
  O36      1.0000 0.36597  0.52045  0.14171  Biso   1.000  O
  C43      1.0000 0.38786  0.55215  0.07781  Biso   1.000  C
  H71      1.0000 0.31318  0.53098  0.13942  Biso   1.000  H
  C44      1.0000 0.31421  0.48877  0.99022  Biso   1.000  C
  C45      1.0000 0.37822  0.64941  0.08111  Biso   1.000  C
  H72      1.0000 0.45758  0.55324  0.08848  Biso   1.000  H
  O37      1.0000 0.32897  0.39804  0.98641  Biso   1.000  O
  H73      1.0000 0.24389  0.48449  0.98025  Biso   1.000  H
  C46      1.0000 0.33553  0.52578  0.92200  Biso   1.000  C
  O38      1.0000 0.44588  0.71255  0.16172  Biso   1.000  O
  C47      1.0000 0.40004  0.68325  0.01258  Biso   1.000  C
  H74      1.0000 0.30810  0.64758  0.07019  Biso   1.000  H
  C48      1.0000 0.24352  0.32039  0.95986  Biso   1.000  C
  O39      1.0000 0.33391  0.62090  0.93235  Biso   1.000  O
  H75      1.0000 0.40275  0.52240  0.92803  Biso   1.000  H
  C49      1.0000 0.25774  0.47420  0.83434  Biso   1.000  C
  H76      1.0000 0.41428  0.72488  0.18922  Biso   1.000  H
  O40      1.0000 0.50031  0.68851  0.03151  Biso   1.000  O
  H77      1.0000 0.39128  0.74640  0.01353  Biso   1.000  H
  C50      1.0000 0.26296  0.27120  0.03017  Biso   1.000  C
  O41      1.0000 0.22462  0.25929  0.88376  Biso   1.000  O
  H78      1.0000 0.18403  0.34268  0.95115  Biso   1.000  H
  O42      1.0000 0.15999  0.48159  0.82012  Biso   1.000  O
  H79      1.0000 0.27671  0.49900  0.79331  Biso   1.000  H
  H80      1.0000 0.25494  0.40790  0.82405  Biso   1.000  H
  C51      1.0000 0.56481  0.77768  0.04160  Biso   1.000  C
  O43      1.0000 0.27718  0.33286  0.10569  Biso   1.000  O
  H81      1.0000 0.20329  0.21620  0.01200  Biso   1.000  H
  C52      1.0000 0.35369  0.23766  0.04408  Biso   1.000  C
  C53      1.0000 0.30341  0.21858  0.88986  Biso   1.000  C
  H82      1.0000 0.14995  0.52537  0.79833  Biso   1.000  H
  C54      1.0000 0.65586  0.80360  0.12748  Biso   1.000  C
  H83      1.0000 0.52865  0.82546  0.03970  Biso   1.000  H
  C55      1.0000 0.59582  0.76867  0.97034  Biso   1.000  C
  H84      1.0000 0.26656  0.38238  0.09559  Biso   1.000  H
  O44      1.0000 0.36920  0.18977  0.10792  Biso   1.000  O
  H85      1.0000 0.41420  0.29177  0.06218  Biso   1.000  H
  C56      1.0000 0.33075  0.17211  0.95903  Biso   1.000  C
  H86      1.0000 0.36391  0.26667  0.89710  Biso   1.000  H
  C57      1.0000 0.25942  0.14388  0.80436  Biso   1.000  C
  O45      1.0000 0.62939  0.81964  0.19506  Biso   1.000  O
  C58      1.0000 0.72915  0.89239  0.13548  Biso   1.000  C
  H87      1.0000 0.68801  0.75266  0.13091  Biso   1.000  H
  O46      1.0000 0.67020  0.85245  0.98361  Biso   1.000  O
  H88      1.0000 0.62484  0.71579  0.96932  Biso   1.000  H
  C59      1.0000 0.50900  0.75180  0.88344  Biso   1.000  C
  H89      1.0000 0.39769  0.15020  0.10010  Biso   1.000  H
  O47      1.0000 0.42306  0.15007  0.96964  Biso   1.000  O
  H90      1.0000 0.27573  0.11396  0.94436  Biso   1.000  H
  O48      1.0000 0.16910  0.07772  0.79522  Biso   1.000  O
  H91      1.0000 0.24267  0.17312  0.75704  Biso   1.000  H
  H92      1.0000 0.30895  0.11147  0.80322  Biso   1.000  H
  H93      1.0000 0.56916  0.78959  0.17811  Biso   1.000  H
  O49      1.0000 0.81637  0.91926  0.21412  Biso   1.000  O
  C60      1.0000 0.75647  0.87757  0.06199  Biso   1.000  C
  H94      1.0000 0.69648  0.94285  0.13269  Biso   1.000  H
  O50      1.0000 0.46190  0.82266  0.88186  Biso   1.000  O
  H95      1.0000 0.53413  0.74918  0.84012  Biso   1.000  H
  H96      1.0000 0.45921  0.69097  0.86896  Biso   1.000  H
  C61      1.0000 0.42025  0.05527  0.95484  Biso   1.000  C
  H97      1.0000 0.16965  0.02330  0.77851  Biso   1.000  H
  H98      1.0000 0.83135  0.97632  0.23667  Biso   1.000  H
  O51      1.0000 0.80517  0.80709  0.06771  Biso   1.000  O
  H99      1.0000 0.80401  0.93666  0.06720  Biso   1.000  H
  H100     1.0000 0.49982  0.87186  0.88306  Biso   1.000  H
  C62      1.0000 0.49730  0.04462  0.03398  Biso   1.000  C
  O52      1.0000 0.43939  0.02750  0.88490  Biso   1.000  O
  H101     1.0000 0.35243  0.01610  0.94283  Biso   1.000  H
  C63      1.0000 0.90482  0.83067  0.07502  Biso   1.000  C
  O53      1.0000 0.47489  0.06730  0.10341  Biso   1.000  O
  C64      1.0000 0.59898  0.10757  0.05393  Biso   1.000  C
  H102     1.0000 0.49846  0.97856  0.02407  Biso   1.000  H
  C65      1.0000 0.53613  0.07868  0.89621  Biso   1.000  C
  C66      1.0000 0.97228  0.81087  0.15371  Biso   1.000  C
  H103     1.0000 0.92831  0.89809  0.07883  Biso   1.000  H
  C67      1.0000 0.89997  0.77053  0.99460  Biso   1.000  C
  H104     1.0000 0.45801  0.11605  0.10360  Biso   1.000  H
  O54      1.0000 0.67290  0.10139  0.13040  Biso   1.000  O
  H105     1.0000 0.59709  0.17316  0.06009  Biso   1.000  H
  C68      1.0000 0.61870  0.07584  0.97910  Biso   1.000  C
  H106     1.0000 0.53799  0.14488  0.89862  Biso   1.000  H
  C69      1.0000 0.54640  0.03620  0.81872  Biso   1.000  C
  O55      1.0000 0.98306  0.87515  0.22841  Biso   1.000  O
  H107     1.0000 0.94370  0.74565  0.15321  Biso   1.000  H
  C70      1.0000 0.07439  0.82357  0.15708  Biso   1.000  C
  H108     1.0000 0.86524  0.70410  0.98564  Biso   1.000  H
  C71      1.0000 0.84713  0.80025  0.91641  Biso   1.000  C
  O56      1.0000 0.00218  0.78019  0.00489  Biso   1.000  O
  H109     1.0000 0.68187  0.14437  0.17112  Biso   1.000  H
  O57      1.0000 0.71168  0.14125  0.99390  Biso   1.000  O
  H110     1.0000 0.62541  0.01179  0.97472  Biso   1.000  H
  O58      1.0000 0.55294  0.94483  0.81923  Biso   1.000  O
  H111     1.0000 0.48762  0.03373  0.76663  Biso   1.000  H
  H112     1.0000 0.60733  0.07470  0.81904  Biso   1.000  H
  H113     1.0000 0.93783  0.85301  0.24156  Biso   1.000  H
  O59      1.0000 0.14185  0.80707  0.23146  Biso   1.000  O
  C72      1.0000 0.06347  0.75909  0.07667  Biso   1.000  C
  H114     1.0000 0.10150  0.88916  0.15791  Biso   1.000  H
  O60      1.0000 0.89412  0.89589  0.92714  Biso   1.000  O
  H115     1.0000 0.84814  0.76089  0.86693  Biso   1.000  H
  H116     1.0000 0.77630  0.79141  0.90485  Biso   1.000  H
  C73      1.0000 0.78573  0.10524  0.98221  Biso   1.000  C
  H117     1.0000 0.57163  0.92553  0.78302  Biso   1.000  H
  H118     1.0000 0.13809  0.75043  0.22200  Biso   1.000  H
  O61      1.0000 0.02318  0.66625  0.07559  Biso   1.000  O
  H119     1.0000 0.13117  0.76699  0.07870  Biso   1.000  H
  H120     1.0000 0.86521  0.92935  0.94480  Biso   1.000  H
  C74      1.0000 0.87859  0.13668  0.06669  Biso   1.000  C
  O62      1.0000 0.80619  0.13510  0.91971  Biso   1.000  O
  H121     1.0000 0.76004  0.03576  0.96430  Biso   1.000  H
  C75      1.0000 0.07658  0.60150  0.06981  Biso   1.000  C
  O63      1.0000 0.85518  0.10660  0.12888  Biso   1.000  O
  H122     1.0000 0.92972  0.10847  0.06022  Biso   1.000  H
  C76      1.0000 0.92159  0.24255  0.09248  Biso   1.000  C
  C77      1.0000 0.84425  0.23568  0.93864  Biso   1.000  C
  C78      1.0000 0.01563  0.52740  0.98342  Biso   1.000  C
  C79      1.0000 0.09246  0.55869  0.14247  Biso   1.000  C
  H123     1.0000 0.14307  0.63455  0.07438  Biso   1.000  H
  H124     1.0000 0.90750  0.10457  0.16851  Biso   1.000  H
  H125     1.0000 0.87231  0.27166  0.10169  Biso   1.000  H
  C80      1.0000 0.94173  0.27157  0.02191  Biso   1.000  C
  O64      1.0000 0.01200  0.26975  0.16978  Biso   1.000  O
  H126     1.0000 0.79356  0.26461  0.94506  Biso   1.000  H
  C81      1.0000 0.85923  0.25458  0.86445  Biso   1.000  C
  O65      1.0000 0.06023  0.45277  0.98075  Biso   1.000  O
  H127     1.0000 0.94511  0.50180  0.97434  Biso   1.000  H
  C82      1.0000 0.01518  0.56668  0.91012  Biso   1.000  C
  C83      1.0000 0.13752  0.48141  0.13212  Biso   1.000  C
  O66      1.0000 0.15857  0.62898  0.22022  Biso   1.000  O
  H128     1.0000 0.02667  0.53320  0.14279  Biso   1.000  H
  O67      1.0000 0.97670  0.36960  0.04408  Biso   1.000  O
  H129     1.0000 0.99348  0.24520  0.01467  Biso   1.000  H
  H130     1.0000 0.03498  0.32799  0.18630  Biso   1.000  H
  O68      1.0000 0.93625  0.22047  0.85747  Biso   1.000  O
  H131     1.0000 0.79585  0.22447  0.81173  Biso   1.000  H
  H132     1.0000 0.87720  0.32239  0.87131  Biso   1.000  H
  C84      1.0000 0.07130  0.41021  0.04650  Biso   1.000  C
  H133     1.0000 0.98103  0.51557  0.85670  Biso   1.000  H
  H134     1.0000 0.97682  0.61211  0.90396  Biso   1.000  H
  O69      1.0000 0.11224  0.61031  0.92295  Biso   1.000  O
  O70      1.0000 0.14948  0.43574  0.19888  Biso   1.000  O
  H135     1.0000 0.20482  0.50830  0.13510  Biso   1.000  H
  H136     1.0000 0.12696  0.64038  0.24798  Biso   1.000  H
  H137     1.0000 0.97135  0.25884  0.84406  Biso   1.000  H
  H138     1.0000 0.10340  0.36046  0.04040  Biso   1.000  H
  H139     1.0000 0.12970  0.57419  0.89456  Biso   1.000  H
  H140     1.0000 0.16858  0.47565  0.24512  Biso   1.000  H
  Ne1      1.0000 0.85670  0.53371  0.47661  Biso   1.000  Ne
  He1      1.0000 0.87648  0.54777  0.55067  Biso   1.000  He
  He2      1.0000 0.83605  0.53364  0.44518  Biso   1.000  He
  Ar1      1.0000 0.83299  0.52921  0.45620  Biso   1.000  Ar
  Ne2      1.0000 0.67828  0.45992  0.01798  Biso   1.000  Ne
  He3      1.0000 0.73702  0.48523  0.14995  Biso   1.000  He
  He4      1.0000 0.64940  0.45724  0.94065  Biso   1.000  He
  Ar2      1.0000 0.68849  0.47437  0.04158  Biso   1.000  Ar
