data_image0
_cell_length_a       10.657
_cell_length_b       14.732
_cell_length_c       17.013
_cell_angle_alpha    66.54
_cell_angle_beta     80.16
_cell_angle_gamma    80.33

_symmetry_space_group_name_H-M    "P 1"
_symmetry_int_tables_number       1

loop_
  _symmetry_equiv_pos_as_xyz
  'x, y, z'

loop_
  _atom_site_label
  _atom_site_occupancy
  _atom_site_fract_x
  _atom_site_fract_y
  _atom_site_fract_z
  _atom_site_thermal_displace_type
  _atom_site_B_iso_or_equiv
  _atom_site_type_symbol
  C1       1.0000 0.76578  0.35824  0.75720  Biso   1.000  C
  C2       1.0000 0.88425  0.38121  0.76088  Biso   1.000  C
  C3       1.0000 0.73344  0.26205  0.79939  Biso   1.000  C
  H1       1.0000 0.70684  0.40799  0.72592  Biso   1.000  H
  C4       1.0000 0.97251  0.30599  0.80816  Biso   1.000  C
  H2       1.0000 0.90530  0.44616  0.73231  Biso   1.000  H
  C5       1.0000 0.82142  0.18472  0.84474  Biso   1.000  C
  H3       1.0000 0.65203  0.24854  0.79771  Biso   1.000  H
  C6       1.0000 0.09295  0.33311  0.81964  Biso   1.000  C
  C7       1.0000 0.94136  0.20890  0.84815  Biso   1.000  C
  C8       1.0000 0.78692  0.08123  0.88660  Biso   1.000  C
  N1       1.0000 0.10551  0.42240  0.80320  Biso   1.000  N
  H4       1.0000 0.16023  0.28390  0.83919  Biso   1.000  H
  H5       1.0000 0.00155  0.15890  0.87783  Biso   1.000  H
  C9       1.0000 0.65845  0.06177  0.90459  Biso   1.000  C
  C10      1.0000 0.88071  0.99943  0.90653  Biso   1.000  C
  C11      1.0000 0.22297  0.44795  0.81732  Biso   1.000  C
  C12      1.0000 0.62611  0.96655  0.93562  Biso   1.000  C
  H6       1.0000 0.59398  0.11473  0.89531  Biso   1.000  H
  C13      1.0000 0.84846  0.90299  0.94033  Biso   1.000  C
  H7       1.0000 0.96653  0.01005  0.89692  Biso   1.000  H
  C14      1.0000 0.27615  0.52812  0.73508  Biso   1.000  C
  H8       1.0000 0.20592  0.47192  0.86389  Biso   1.000  H
  H9       1.0000 0.28503  0.38932  0.83338  Biso   1.000  H
  C15      1.0000 0.72067  0.88481  0.95336  Biso   1.000  C
  H10      1.0000 0.54024  0.95604  0.94497  Biso   1.000  H
  H11      1.0000 0.91253  0.84979  0.95439  Biso   1.000  H
  N2       1.0000 0.33288  0.48801  0.66929  Biso   1.000  N
  H12      1.0000 0.34089  0.55743  0.74830  Biso   1.000  H
  H13      1.0000 0.20785  0.58035  0.71257  Biso   1.000  H
  C16      1.0000 0.68822  0.78228  0.98174  Biso   1.000  C
  C17      1.0000 0.32730  0.56560  0.58240  Biso   1.000  C
  C18      1.0000 0.46373  0.44294  0.68270  Biso   1.000  C
  N3       1.0000 0.57339  0.76222  0.99529  Biso   1.000  N
  H14      1.0000 0.75419  0.73053  0.99000  Biso   1.000  H
  C19      1.0000 0.20179  0.57534  0.54783  Biso   1.000  C
  H15      1.0000 0.33847  0.62892  0.58388  Biso   1.000  H
  H16      1.0000 0.39735  0.55001  0.54357  Biso   1.000  H
  C20      1.0000 0.50124  0.36120  0.64678  Biso   1.000  C
  H17      1.0000 0.52177  0.49378  0.65471  Biso   1.000  H
  H18      1.0000 0.47208  0.41500  0.74398  Biso   1.000  H
  C21      1.0000 0.55423  0.65933  0.01619  Biso   1.000  C
  N4       1.0000 0.20277  0.49655  0.51603  Biso   1.000  N
  H19      1.0000 0.18900  0.63982  0.50132  Biso   1.000  H
  H20      1.0000 0.13152  0.57093  0.59317  Biso   1.000  H
  H21      1.0000 0.59383  0.34949  0.63723  Biso   1.000  H
  H22      1.0000 0.46808  0.38220  0.59188  Biso   1.000  H
  N5       1.0000 0.45003  0.26927  0.70702  Biso   1.000  N
  C22      1.0000 0.51409  0.64914  0.93917  Biso   1.000  C
  H23      1.0000 0.63316  0.61652  0.03231  Biso   1.000  H
  H24      1.0000 0.48854  0.63860  0.06482  Biso   1.000  H
  C23      1.0000 0.12917  0.43040  0.55802  Biso   1.000  C
  C24      1.0000 0.38014  0.23194  0.67787  Biso   1.000  C
  N6       1.0000 0.61876  0.65740  0.86938  Biso   1.000  N
  H25      1.0000 0.44462  0.70040  0.91730  Biso   1.000  H
  H26      1.0000 0.48215  0.58510  0.95768  Biso   1.000  H
  C25      1.0000 0.12107  0.34620  0.53383  Biso   1.000  C
  H27      1.0000 0.07742  0.43499  0.60652  Biso   1.000  H
  C26      1.0000 0.32594  0.13733  0.72902  Biso   1.000  C
  H28      1.0000 0.36176  0.26569  0.62123  Biso   1.000  H
  C27      1.0000 0.56603  0.68759  0.78759  Biso   1.000  C
  C28      1.0000 0.70364  0.56399  0.88641  Biso   1.000  C
  C29      1.0000 0.03558  0.27743  0.58240  Biso   1.000  C
  C30      1.0000 0.19651  0.33497  0.46152  Biso   1.000  C
  C31      1.0000 0.32049  0.09333  0.81842  Biso   1.000  C
  C32      1.0000 0.28045  0.08772  0.68657  Biso   1.000  C
  C33      1.0000 0.52563  0.79849  0.74843  Biso   1.000  C
  H29      1.0000 0.62982  0.66882  0.74721  Biso   1.000  H
  H30      1.0000 0.49238  0.65207  0.79713  Biso   1.000  H
  H31      1.0000 0.70887  0.53150  0.94788  Biso   1.000  H
  H32      1.0000 0.66685  0.52030  0.86860  Biso   1.000  H
  C34      1.0000 0.83766  0.57909  0.83977  Biso   1.000  C
  C35      1.0000 0.02170  0.19813  0.56008  Biso   1.000  C
  H33      1.0000 0.98645  0.28410  0.63091  Biso   1.000  H
  C36      1.0000 0.18427  0.25645  0.43978  Biso   1.000  C
  H34      1.0000 0.25438  0.38042  0.42843  Biso   1.000  H
  C37      1.0000 0.27304  0.00354  0.86312  Biso   1.000  C
  H35      1.0000 0.34950  0.12535  0.84822  Biso   1.000  H
  C38      1.0000 0.23615  0.99619  0.73147  Biso   1.000  C
  H36      1.0000 0.28013  0.11693  0.62710  Biso   1.000  H
  N7       1.0000 0.63719  0.85358  0.71534  Biso   1.000  N
  H37      1.0000 0.47293  0.81975  0.79178  Biso   1.000  H
  H38      1.0000 0.47487  0.81284  0.70180  Biso   1.000  H
  H39      1.0000 0.83234  0.62800  0.78152  Biso   1.000  H
  H40      1.0000 0.87945  0.51701  0.83609  Biso   1.000  H
  N8       1.0000 0.91383  0.61280  0.88408  Biso   1.000  N
  C39      1.0000 0.92689  0.12702  0.60975  Biso   1.000  C
  C40      1.0000 0.09767  0.18974  0.48758  Biso   1.000  C
  H41      1.0000 0.23510  0.24850  0.39231  Biso   1.000  H
  C41      1.0000 0.23058  0.95129  0.82106  Biso   1.000  C
  H42      1.0000 0.26872  0.97644  0.92298  Biso   1.000  H
  H43      1.0000 0.20920  0.96364  0.70147  Biso   1.000  H
  C42      1.0000 0.63569  0.93027  0.73121  Biso   1.000  C
  C43      1.0000 0.97546  0.68621  0.84061  Biso   1.000  C
  C44      1.0000 0.81118  0.15620  0.64994  Biso   1.000  C
  C45      1.0000 0.94885  0.02743  0.61607  Biso   1.000  C
  H44      1.0000 0.08968  0.13792  0.47120  Biso   1.000  H
  C46      1.0000 0.18460  0.85229  0.86886  Biso   1.000  C
  C47      1.0000 0.73936  0.99470  0.69502  Biso   1.000  C
  H45      1.0000 0.56701  0.94659  0.76682  Biso   1.000  H
  H46      1.0000 0.96636  0.71920  0.78223  Biso   1.000  H
  C48      1.0000 0.06188  0.72178  0.87912  Biso   1.000  C
  C49      1.0000 0.71963  0.09219  0.69193  Biso   1.000  C
  H47      1.0000 0.79539  0.22101  0.64819  Biso   1.000  H
  C50      1.0000 0.85693  0.96345  0.65768  Biso   1.000  C
  H48      1.0000 0.02637  0.00474  0.59201  Biso   1.000  H
  C51      1.0000 0.10587  0.81420  0.83422  Biso   1.000  C
  C52      1.0000 0.21890  0.79219  0.95149  Biso   1.000  C
  C53      1.0000 0.09753  0.66401  0.96097  Biso   1.000  C
  H49      1.0000 0.64385  0.11400  0.71863  Biso   1.000  H
  H50      1.0000 0.87335  0.89798  0.66109  Biso   1.000  H
  H51      1.0000 0.08228  0.85220  0.77933  Biso   1.000  H
  C54      1.0000 0.17580  0.70001  0.99600  Biso   1.000  C
  H52      1.0000 0.27143  0.81492  0.97658  Biso   1.000  H
  H53      1.0000 0.06890  0.60172  0.99167  Biso   1.000  H
  H54      1.0000 0.19999  0.66145  0.05057  Biso   1.000  H
  C55      1.0000 0.23420  0.64183  0.24279  Biso   1.000  C
  C56      1.0000 0.11575  0.61880  0.23911  Biso   1.000  C
  H55      1.0000 0.29315  0.59202  0.27407  Biso   1.000  H
  C57      1.0000 0.26653  0.73802  0.20061  Biso   1.000  C
  C58      1.0000 0.02748  0.69402  0.19183  Biso   1.000  C
  H56      1.0000 0.09468  0.55392  0.26769  Biso   1.000  H
  C59      1.0000 0.17847  0.81536  0.15526  Biso   1.000  C
  H57      1.0000 0.34795  0.75154  0.20228  Biso   1.000  H
  C60      1.0000 0.05863  0.79111  0.15184  Biso   1.000  C
  C61      1.0000 0.90704  0.66690  0.18035  Biso   1.000  C
  C62      1.0000 0.21306  0.91884  0.11340  Biso   1.000  C
  H58      1.0000 0.99844  0.84111  0.12217  Biso   1.000  H
  H59      1.0000 0.83977  0.71611  0.16081  Biso   1.000  H
  N9       1.0000 0.89448  0.57760  0.19680  Biso   1.000  N
  C63      1.0000 0.34153  0.93831  0.09540  Biso   1.000  C
  C64      1.0000 0.11926  0.00062  0.09353  Biso   1.000  C
  C65      1.0000 0.77701  0.55213  0.18267  Biso   1.000  C
  H60      1.0000 0.40600  0.88535  0.10469  Biso   1.000  H
  C66      1.0000 0.37387  0.03353  0.06437  Biso   1.000  C
  H61      1.0000 0.03344  0.99003  0.10308  Biso   1.000  H
  C67      1.0000 0.15152  0.09699  0.05973  Biso   1.000  C
  C68      1.0000 0.72385  0.47189  0.26492  Biso   1.000  C
  H62      1.0000 0.79408  0.52809  0.13610  Biso   1.000  H
  H63      1.0000 0.71497  0.61069  0.16661  Biso   1.000  H
  H64      1.0000 0.45974  0.04404  0.05502  Biso   1.000  H
  C69      1.0000 0.27932  0.11520  0.04664  Biso   1.000  C
  H65      1.0000 0.08746  0.15022  0.04560  Biso   1.000  H
  H66      1.0000 0.65908  0.44265  0.25169  Biso   1.000  H
  H67      1.0000 0.79212  0.41973  0.28743  Biso   1.000  H
  N10      1.0000 0.66710  0.51207  0.33071  Biso   1.000  N
  C70      1.0000 0.31177  0.21772  0.01825  Biso   1.000  C
  C71      1.0000 0.53625  0.55714  0.31729  Biso   1.000  C
  C72      1.0000 0.67269  0.43441  0.41759  Biso   1.000  C
  H68      1.0000 0.24578  0.26955  0.01000  Biso   1.000  H
  N11      1.0000 0.42659  0.23786  0.00471  Biso   1.000  N
  C73      1.0000 0.49866  0.63880  0.35322  Biso   1.000  C
  H69      1.0000 0.47822  0.50622  0.34529  Biso   1.000  H
  H70      1.0000 0.52792  0.58501  0.25601  Biso   1.000  H
  H71      1.0000 0.66153  0.37109  0.41611  Biso   1.000  H
  H72      1.0000 0.60255  0.45000  0.45643  Biso   1.000  H
  C74      1.0000 0.79819  0.42474  0.45217  Biso   1.000  C
  C75      1.0000 0.44576  0.34068  0.98381  Biso   1.000  C
  H73      1.0000 0.40606  0.65049  0.36283  Biso   1.000  H
  H74      1.0000 0.53191  0.61781  0.40811  Biso   1.000  H
  N12      1.0000 0.54996  0.73073  0.29297  Biso   1.000  N
  H75      1.0000 0.81098  0.36025  0.49868  Biso   1.000  H
  H76      1.0000 0.86848  0.42908  0.40682  Biso   1.000  H
  N13      1.0000 0.79721  0.50353  0.48397  Biso   1.000  N
  H77      1.0000 0.36684  0.38349  0.96768  Biso   1.000  H
  H78      1.0000 0.51145  0.36141  0.93517  Biso   1.000  H
  C76      1.0000 0.48589  0.35094  0.06083  Biso   1.000  C
  C77      1.0000 0.61984  0.76813  0.32213  Biso   1.000  C
  C78      1.0000 0.87083  0.56961  0.44198  Biso   1.000  C
  H79      1.0000 0.55537  0.29961  0.08269  Biso   1.000  H
  H80      1.0000 0.51784  0.41491  0.04231  Biso   1.000  H
  N14      1.0000 0.38124  0.34261  0.13062  Biso   1.000  N
  C79      1.0000 0.67403  0.86275  0.27098  Biso   1.000  C
  H81      1.0000 0.63822  0.73429  0.37883  Biso   1.000  H
  H82      1.0000 0.92248  0.56502  0.39347  Biso   1.000  H
  C80      1.0000 0.87892  0.65378  0.46623  Biso   1.000  C
  C81      1.0000 0.29635  0.43602  0.11359  Biso   1.000  C
  C82      1.0000 0.43396  0.31242  0.21241  Biso   1.000  C
  C83      1.0000 0.67939  0.90675  0.18158  Biso   1.000  C
  C84      1.0000 0.71955  0.91229  0.31342  Biso   1.000  C
  C85      1.0000 0.96440  0.72264  0.41759  Biso   1.000  C
  C86      1.0000 0.80348  0.66504  0.53847  Biso   1.000  C
  H83      1.0000 0.29112  0.46851  0.05212  Biso   1.000  H
  H84      1.0000 0.33314  0.47971  0.13139  Biso   1.000  H
  C87      1.0000 0.16233  0.42092  0.16023  Biso   1.000  C
  C88      1.0000 0.47436  0.20149  0.25163  Biso   1.000  C
  H85      1.0000 0.37015  0.33126  0.25279  Biso   1.000  H
  H86      1.0000 0.50750  0.34791  0.20293  Biso   1.000  H
  C89      1.0000 0.72694  0.99654  0.13688  Biso   1.000  C
  H87      1.0000 0.65048  0.87473  0.15178  Biso   1.000  H
  H88      1.0000 0.71985  0.88315  0.37289  Biso   1.000  H
  C90      1.0000 0.76384  0.00381  0.26853  Biso   1.000  C
  H89      1.0000 0.01345  0.71591  0.36909  Biso   1.000  H
  C91      1.0000 0.97829  0.80188  0.43991  Biso   1.000  C
  C92      1.0000 0.81571  0.74363  0.56021  Biso   1.000  C
  H90      1.0000 0.74558  0.61963  0.57163  Biso   1.000  H
  H91      1.0000 0.16764  0.37207  0.21847  Biso   1.000  H
  H92      1.0000 0.12055  0.48300  0.16390  Biso   1.000  H
  N15      1.0000 0.08616  0.38721  0.11591  Biso   1.000  N
  H93      1.0000 0.52705  0.18033  0.20822  Biso   1.000  H
  H94      1.0000 0.52511  0.18724  0.29820  Biso   1.000  H
  N16      1.0000 0.36281  0.14643  0.28465  Biso   1.000  N
  C93      1.0000 0.76932  0.04872  0.17893  Biso   1.000  C
  H95      1.0000 0.73126  0.02364  0.07702  Biso   1.000  H
  H96      1.0000 0.79078  0.03644  0.29852  Biso   1.000  H
  C94      1.0000 0.07309  0.87305  0.39025  Biso   1.000  C
  C95      1.0000 0.90231  0.81034  0.51241  Biso   1.000  C
  H97      1.0000 0.76490  0.75150  0.60769  Biso   1.000  H
  C96      1.0000 0.02452  0.31387  0.15939  Biso   1.000  C
  C97      1.0000 0.36430  0.06974  0.26879  Biso   1.000  C
  C98      1.0000 0.81539  0.14772  0.13114  Biso   1.000  C
  C99      1.0000 0.18881  0.84380  0.35006  Biso   1.000  C
  C100     1.0000 0.05103  0.97264  0.38392  Biso   1.000  C
  H98      1.0000 0.91030  0.86215  0.52880  Biso   1.000  H
  C101     1.0000 0.93811  0.27823  0.12088  Biso   1.000  C
  H99      1.0000 0.03360  0.28084  0.21783  Biso   1.000  H
  C102     1.0000 0.26064  0.00531  0.30497  Biso   1.000  C
  H100     1.0000 0.43298  0.05342  0.23318  Biso   1.000  H
  C103     1.0000 0.78109  0.20782  0.04851  Biso   1.000  C
  C104     1.0000 0.89403  0.18581  0.16577  Biso   1.000  C
  H101     1.0000 0.20460  0.77900  0.35180  Biso   1.000  H
  C105     1.0000 0.28027  0.90782  0.30807  Biso   1.000  C
  H102     1.0000 0.97361  0.99534  0.40798  Biso   1.000  H
  C106     1.0000 0.14305  0.03663  0.34232  Biso   1.000  C
  C107     1.0000 0.90246  0.33599  0.03902  Biso   1.000  C
  C108     1.0000 0.82419  0.30000  0.00400  Biso   1.000  C
  H103     1.0000 0.72856  0.18509  0.02341  Biso   1.000  H
  H104     1.0000 0.91769  0.14785  0.22073  Biso   1.000  H
  H105     1.0000 0.35613  0.88598  0.28143  Biso   1.000  H
  H106     1.0000 0.12664  0.10203  0.33890  Biso   1.000  H
  H107     1.0000 0.93109  0.39829  0.00832  Biso   1.000  H
  H108     1.0000 0.79991  0.33855  0.94943  Biso   1.000  H
