data_image0
_cell_length_a       17.652
_cell_length_b       27.369
_cell_length_c       11.152
_cell_angle_alpha    90
_cell_angle_beta     102.65
_cell_angle_gamma    90

_symmetry_space_group_name_H-M    "P 1"
_symmetry_int_tables_number       1

loop_
  _symmetry_equiv_pos_as_xyz
  'x, y, z'

loop_
  _atom_site_label
  _atom_site_occupancy
  _atom_site_fract_x
  _atom_site_fract_y
  _atom_site_fract_z
  _atom_site_thermal_displace_type
  _atom_site_B_iso_or_equiv
  _atom_site_type_symbol
  C1       1.0000 0.48465  0.45964  0.38166  Biso   1.000  C
  C2       1.0000 0.42585  0.44653  0.28177  Biso   1.000  C
  C3       1.0000 0.55837  0.46995  0.36742  Biso   1.000  C
  H1       1.0000 0.47390  0.46151  0.45950  Biso   1.000  H
  C4       1.0000 0.34848  0.43264  0.29868  Biso   1.000  C
  C5       1.0000 0.44419  0.44474  0.16662  Biso   1.000  C
  C6       1.0000 0.57839  0.46575  0.25291  Biso   1.000  C
  H2       1.0000 0.59584  0.47989  0.43515  Biso   1.000  H
  N1       1.0000 0.32704  0.43878  0.39839  Biso   1.000  N
  H3       1.0000 0.31370  0.41869  0.23278  Biso   1.000  H
  H4       1.0000 0.40561  0.43728  0.09778  Biso   1.000  H
  C7       1.0000 0.51907  0.45387  0.15301  Biso   1.000  C
  C8       1.0000 0.65972  0.47313  0.24050  Biso   1.000  C
  C9       1.0000 0.25257  0.41858  0.40758  Biso   1.000  C
  H5       1.0000 0.52989  0.45201  0.07517  Biso   1.000  H
  C10      1.0000 0.72134  0.47568  0.34398  Biso   1.000  C
  C11      1.0000 0.67895  0.47718  0.12646  Biso   1.000  C
  C12      1.0000 0.26483  0.37685  0.49865  Biso   1.000  C
  H6       1.0000 0.22118  0.44371  0.43414  Biso   1.000  H
  H7       1.0000 0.22519  0.40688  0.32763  Biso   1.000  H
  C13      1.0000 0.79706  0.48157  0.33443  Biso   1.000  C
  H8       1.0000 0.71058  0.47331  0.42182  Biso   1.000  H
  C14      1.0000 0.75486  0.48391  0.11377  Biso   1.000  C
  H9       1.0000 0.63957  0.47539  0.05597  Biso   1.000  H
  N2       1.0000 0.29737  0.33366  0.45215  Biso   1.000  N
  H10      1.0000 0.21557  0.36830  0.51804  Biso   1.000  H
  H11      1.0000 0.29957  0.38741  0.57410  Biso   1.000  H
  C15      1.0000 0.81488  0.48602  0.21955  Biso   1.000  C
  H12      1.0000 0.83656  0.48259  0.40491  Biso   1.000  H
  C16      1.0000 0.77144  0.49315  0.99320  Biso   1.000  C
  C17      1.0000 0.23769  0.30279  0.37661  Biso   1.000  C
  C18      1.0000 0.34539  0.30480  0.55104  Biso   1.000  C
  O1       1.0000 0.89001  0.49267  0.21312  Biso   1.000  O
  H13      1.0000 0.73123  0.49169  0.92372  Biso   1.000  H
  N3       1.0000 0.83958  0.50312  0.98088  Biso   1.000  N
  C19      1.0000 0.26999  0.27436  0.28250  Biso   1.000  C
  H14      1.0000 0.21770  0.28021  0.42908  Biso   1.000  H
  H15      1.0000 0.19497  0.32310  0.33479  Biso   1.000  H
  H16      1.0000 0.32295  0.30651  0.62309  Biso   1.000  H
  H17      1.0000 0.34440  0.27089  0.52549  Biso   1.000  H
  C20      1.0000 0.42854  0.32171  0.58578  Biso   1.000  C
  H18      1.0000 0.89288  0.49468  0.14088  Biso   1.000  H
  C21      1.0000 0.85188  0.51770  0.86132  Biso   1.000  C
  H19      1.0000 0.23637  0.24681  0.25365  Biso   1.000  H
  H20      1.0000 0.32095  0.26179  0.32037  Biso   1.000  H
  N4       1.0000 0.27550  0.30535  0.17939  Biso   1.000  N
  H21      1.0000 0.45367  0.30728  0.66380  Biso   1.000  H
  H22      1.0000 0.42985  0.35701  0.59524  Biso   1.000  H
  N5       1.0000 0.47083  0.30779  0.49139  Biso   1.000  N
  C22      1.0000 0.91939  0.49074  0.82888  Biso   1.000  C
  H23      1.0000 0.80521  0.51109  0.79920  Biso   1.000  H
  H24      1.0000 0.86183  0.55260  0.86160  Biso   1.000  H
  C23      1.0000 0.34077  0.31097  0.14998  Biso   1.000  C
  C24      1.0000 0.52323  0.33637  0.47375  Biso   1.000  C
  N6       1.0000 0.89921  0.44072  0.78909  Biso   1.000  N
  H25      1.0000 0.96233  0.49012  0.90010  Biso   1.000  H
  H26      1.0000 0.93633  0.50820  0.76381  Biso   1.000  H
  C25      1.0000 0.34840  0.33951  0.04338  Biso   1.000  C
  H27      1.0000 0.38470  0.29639  0.19805  Biso   1.000  H
  H28      1.0000 0.53114  0.36519  0.51906  Biso   1.000  H
  C26      1.0000 0.57205  0.32687  0.38644  Biso   1.000  C
  C27      1.0000 0.85954  0.43999  0.65914  Biso   1.000  C
  C28      1.0000 0.96833  0.40919  0.81160  Biso   1.000  C
  C29      1.0000 0.42002  0.34261  0.00947  Biso   1.000  C
  C30      1.0000 0.28389  0.36454  0.97225  Biso   1.000  C
  C31      1.0000 0.63655  0.35610  0.38672  Biso   1.000  C
  C32      1.0000 0.55752  0.28865  0.30189  Biso   1.000  C
  C33      1.0000 0.80601  0.39629  0.62808  Biso   1.000  C
  H29      1.0000 0.82955  0.46980  0.63975  Biso   1.000  H
  H30      1.0000 0.89791  0.43911  0.60896  Biso   1.000  H
  C34      1.0000 0.98807  0.39041  0.94247  Biso   1.000  C
  H31      1.0000 0.95925  0.38171  0.75545  Biso   1.000  H
  H32      1.0000 0.01216  0.42749  0.79552  Biso   1.000  H
  H33      1.0000 0.46208  0.32551  0.05551  Biso   1.000  H
  C35      1.0000 0.43083  0.37020  0.91030  Biso   1.000  C
  O2       1.0000 0.21382  0.36275  0.00138  Biso   1.000  O
  C36      1.0000 0.29402  0.39220  0.87308  Biso   1.000  C
  H34      1.0000 0.64698  0.38229  0.44076  Biso   1.000  H
  C37      1.0000 0.68508  0.34693  0.30833  Biso   1.000  C
  C38      1.0000 0.60518  0.28010  0.22176  Biso   1.000  C
  H35      1.0000 0.51477  0.26859  0.29960  Biso   1.000  H
  N7       1.0000 0.73454  0.40396  0.67044  Biso   1.000  N
  H36      1.0000 0.83201  0.36720  0.66658  Biso   1.000  H
  H37      1.0000 0.79386  0.39121  0.53985  Biso   1.000  H
  N8       1.0000 0.93407  0.35193  0.95874  Biso   1.000  N
  H38      1.0000 0.98533  0.41700  0.99881  Biso   1.000  H
  H39      1.0000 0.04069  0.37769  0.96122  Biso   1.000  H
  C39      1.0000 0.50680  0.37320  0.87511  Biso   1.000  C
  C40      1.0000 0.36589  0.39516  0.84303  Biso   1.000  C
  H40      1.0000 0.21619  0.34510  0.06148  Biso   1.000  H
  H41      1.0000 0.25206  0.40900  0.82612  Biso   1.000  H
  H42      1.0000 0.72826  0.36680  0.31173  Biso   1.000  H
  C41      1.0000 0.67108  0.30867  0.22396  Biso   1.000  C
  H43      1.0000 0.59335  0.25481  0.16496  Biso   1.000  H
  C42      1.0000 0.71890  0.37338  0.74700  Biso   1.000  C
  C43      1.0000 0.88397  0.36055  0.02206  Biso   1.000  C
  C44      1.0000 0.55960  0.33428  0.89891  Biso   1.000  C
  C45      1.0000 0.52828  0.41383  0.81298  Biso   1.000  C
  H44      1.0000 0.37122  0.41419  0.77631  Biso   1.000  H
  C46      1.0000 0.72550  0.29796  0.14392  Biso   1.000  C
  C47      1.0000 0.64787  0.37542  0.79451  Biso   1.000  C
  H45      1.0000 0.75424  0.34839  0.77429  Biso   1.000  H
  C48      1.0000 0.82911  0.32307  0.04356  Biso   1.000  C
  H46      1.0000 0.88208  0.39150  0.05588  Biso   1.000  H
  C49      1.0000 0.62855  0.33553  0.86004  Biso   1.000  C
  H47      1.0000 0.54791  0.30710  0.94173  Biso   1.000  H
  H48      1.0000 0.49556  0.44079  0.79883  Biso   1.000  H
  C50      1.0000 0.59650  0.41470  0.77291  Biso   1.000  C
  C51      1.0000 0.77590  0.33300  0.11515  Biso   1.000  C
  C52      1.0000 0.72990  0.25131  0.09346  Biso   1.000  C
  C53      1.0000 0.83195  0.27571  0.99531  Biso   1.000  C
  H49      1.0000 0.66273  0.30929  0.87777  Biso   1.000  H
  H50      1.0000 0.60862  0.44189  0.73073  Biso   1.000  H
  H51      1.0000 0.77375  0.36450  0.14548  Biso   1.000  H
  C54      1.0000 0.78120  0.24045  0.02077  Biso   1.000  C
  H52      1.0000 0.69687  0.22690  0.10982  Biso   1.000  H
  O3       1.0000 0.88290  0.26344  0.92666  Biso   1.000  O
  H53      1.0000 0.78182  0.20921  0.98842  Biso   1.000  H
  H54      1.0000 0.90933  0.28730  0.91830  Biso   1.000  H
  C55      1.0000 0.51524  0.54036  0.61831  Biso   1.000  C
  C56      1.0000 0.44153  0.53005  0.63255  Biso   1.000  C
  H55      1.0000 0.52606  0.53849  0.54047  Biso   1.000  H
  C57      1.0000 0.57410  0.55347  0.71820  Biso   1.000  C
  C58      1.0000 0.42157  0.53425  0.74706  Biso   1.000  C
  H56      1.0000 0.40404  0.52011  0.56473  Biso   1.000  H
  C59      1.0000 0.55576  0.55526  0.83336  Biso   1.000  C
  C60      1.0000 0.65147  0.56736  0.70130  Biso   1.000  C
  C61      1.0000 0.34023  0.52687  0.75947  Biso   1.000  C
  C62      1.0000 0.48088  0.54613  0.84696  Biso   1.000  C
  H57      1.0000 0.59434  0.56272  0.90219  Biso   1.000  H
  H58      1.0000 0.68625  0.58131  0.76719  Biso   1.000  H
  N9       1.0000 0.67285  0.56122  0.60158  Biso   1.000  N
  C63      1.0000 0.27861  0.52432  0.65599  Biso   1.000  C
  C64      1.0000 0.32093  0.52282  0.87343  Biso   1.000  C
  H59      1.0000 0.47006  0.54799  0.92480  Biso   1.000  H
  C65      1.0000 0.74738  0.58142  0.59239  Biso   1.000  C
  C66      1.0000 0.20283  0.51843  0.66555  Biso   1.000  C
  H60      1.0000 0.28937  0.52669  0.57815  Biso   1.000  H
  C67      1.0000 0.24509  0.51609  0.88620  Biso   1.000  C
  H61      1.0000 0.36037  0.52461  0.94391  Biso   1.000  H
  H62      1.0000 0.77876  0.55629  0.56574  Biso   1.000  H
  H63      1.0000 0.77476  0.59312  0.67235  Biso   1.000  H
  C68      1.0000 0.73512  0.62315  0.50132  Biso   1.000  C
  C69      1.0000 0.18501  0.51398  0.78033  Biso   1.000  C
  H64      1.0000 0.16340  0.51741  0.59506  Biso   1.000  H
  C70      1.0000 0.22852  0.50685  0.00677  Biso   1.000  C
  H65      1.0000 0.78437  0.63170  0.48184  Biso   1.000  H
  H66      1.0000 0.70038  0.61259  0.42587  Biso   1.000  H
  N10      1.0000 0.70257  0.66634  0.54773  Biso   1.000  N
  O4       1.0000 0.10988  0.50733  0.78685  Biso   1.000  O
  H67      1.0000 0.26872  0.50831  0.07625  Biso   1.000  H
  N11      1.0000 0.16037  0.49688  0.01909  Biso   1.000  N
  C71      1.0000 0.76226  0.69721  0.62336  Biso   1.000  C
  C72      1.0000 0.65455  0.69520  0.44884  Biso   1.000  C
  H68      1.0000 0.10708  0.50532  0.85909  Biso   1.000  H
  C73      1.0000 0.14808  0.48230  0.13865  Biso   1.000  C
  C74      1.0000 0.72996  0.72564  0.71747  Biso   1.000  C
  H69      1.0000 0.78225  0.71979  0.57089  Biso   1.000  H
  H70      1.0000 0.80498  0.67690  0.66518  Biso   1.000  H
  H71      1.0000 0.67695  0.69349  0.37689  Biso   1.000  H
  H72      1.0000 0.65555  0.72911  0.47448  Biso   1.000  H
  C75      1.0000 0.57141  0.67829  0.41420  Biso   1.000  C
  C76      1.0000 0.08055  0.50926  0.17100  Biso   1.000  C
  H73      1.0000 0.19474  0.48891  0.20078  Biso   1.000  H
  H74      1.0000 0.13812  0.44740  0.13838  Biso   1.000  H
  H75      1.0000 0.76357  0.75319  0.74623  Biso   1.000  H
  H76      1.0000 0.67895  0.73821  0.67961  Biso   1.000  H
  N12      1.0000 0.72445  0.69465  0.82058  Biso   1.000  N
  H77      1.0000 0.54628  0.69272  0.33617  Biso   1.000  H
  H78      1.0000 0.57009  0.64299  0.40464  Biso   1.000  H
  N13      1.0000 0.52912  0.69221  0.50858  Biso   1.000  N
  H79      1.0000 0.03762  0.50988  0.09987  Biso   1.000  H
  H80      1.0000 0.06362  0.49180  0.23616  Biso   1.000  H
  N14      1.0000 0.10074  0.55928  0.21089  Biso   1.000  N
  C77      1.0000 0.65918  0.68903  0.84999  Biso   1.000  C
  C78      1.0000 0.47671  0.66363  0.52613  Biso   1.000  C
  C79      1.0000 0.14036  0.56001  0.34083  Biso   1.000  C
  C80      1.0000 0.03157  0.59081  0.18837  Biso   1.000  C
  C81      1.0000 0.65155  0.66049  0.95660  Biso   1.000  C
  H81      1.0000 0.61524  0.70361  0.80183  Biso   1.000  H
  H82      1.0000 0.46876  0.63481  0.48092  Biso   1.000  H
  C82      1.0000 0.42789  0.67313  0.61344  Biso   1.000  C
  H83      1.0000 0.17040  0.53020  0.36022  Biso   1.000  H
  H84      1.0000 0.10198  0.56089  0.39101  Biso   1.000  H
  C83      1.0000 0.19393  0.60371  0.37180  Biso   1.000  C
  H85      1.0000 0.98774  0.57251  0.20445  Biso   1.000  H
  C84      1.0000 0.01186  0.60959  0.05741  Biso   1.000  C
  H86      1.0000 0.04070  0.61829  0.24452  Biso   1.000  H
  C85      1.0000 0.57992  0.65739  0.99042  Biso   1.000  C
  C86      1.0000 0.71606  0.63546  0.02773  Biso   1.000  C
  C87      1.0000 0.36340  0.64390  0.61325  Biso   1.000  C
  C88      1.0000 0.44244  0.71135  0.69808  Biso   1.000  C
  H87      1.0000 0.16793  0.63280  0.33330  Biso   1.000  H
  H88      1.0000 0.20609  0.60879  0.46012  Biso   1.000  H
  N15      1.0000 0.26535  0.59604  0.32953  Biso   1.000  N
  H89      1.0000 0.95926  0.62231  0.03875  Biso   1.000  H
  H90      1.0000 0.01462  0.58300  0.00117  Biso   1.000  H
  N16      1.0000 0.06588  0.64807  0.04124  Biso   1.000  N
  C89      1.0000 0.56907  0.62980  0.08967  Biso   1.000  C
  H91      1.0000 0.53788  0.67449  0.94446  Biso   1.000  H
  O5       1.0000 0.78613  0.63725  0.99859  Biso   1.000  O
  C90      1.0000 0.70593  0.60780  0.12689  Biso   1.000  C
  C91      1.0000 0.31487  0.65307  0.69165  Biso   1.000  C
  H92      1.0000 0.35298  0.61771  0.55922  Biso   1.000  H
  C92      1.0000 0.39476  0.71990  0.77812  Biso   1.000  C
  H93      1.0000 0.48518  0.73141  0.70038  Biso   1.000  H
  C93      1.0000 0.28105  0.62662  0.25298  Biso   1.000  C
  C94      1.0000 0.11591  0.63945  0.97782  Biso   1.000  C
  C95      1.0000 0.49316  0.62680  0.12487  Biso   1.000  C
  C96      1.0000 0.63406  0.60484  0.15694  Biso   1.000  C
  H94      1.0000 0.78376  0.65490  0.93849  Biso   1.000  H
  H95      1.0000 0.74789  0.59100  0.17385  Biso   1.000  H
  C97      1.0000 0.32886  0.69133  0.77592  Biso   1.000  C
  H96      1.0000 0.27169  0.63320  0.68825  Biso   1.000  H
  H97      1.0000 0.40653  0.74519  0.83492  Biso   1.000  H
  H98      1.0000 0.24572  0.65161  0.22568  Biso   1.000  H
  C98      1.0000 0.35209  0.62458  0.20546  Biso   1.000  C
  C99      1.0000 0.17083  0.67693  0.95632  Biso   1.000  C
  H99      1.0000 0.11787  0.60850  0.94410  Biso   1.000  H
  C100     1.0000 0.44035  0.66572  0.10106  Biso   1.000  C
  C101     1.0000 0.47166  0.58617  0.18690  Biso   1.000  C
  H100     1.0000 0.62868  0.58581  0.22366  Biso   1.000  H
  C102     1.0000 0.27446  0.70204  0.85606  Biso   1.000  C
  C103     1.0000 0.37140  0.66447  0.13994  Biso   1.000  C
  C104     1.0000 0.40340  0.58530  0.22706  Biso   1.000  C
  C105     1.0000 0.22404  0.66700  0.88473  Biso   1.000  C
  C106     1.0000 0.16800  0.72429  0.00466  Biso   1.000  C
  H101     1.0000 0.45199  0.69290  0.05824  Biso   1.000  H
  H102     1.0000 0.50439  0.55921  0.20114  Biso   1.000  H
  C107     1.0000 0.27004  0.74869  0.90642  Biso   1.000  C
  H103     1.0000 0.33721  0.69071  0.12211  Biso   1.000  H
  H104     1.0000 0.39127  0.55811  0.26924  Biso   1.000  H
  H105     1.0000 0.22614  0.63550  0.85449  Biso   1.000  H
  C108     1.0000 0.21874  0.75955  0.97911  Biso   1.000  C
  O6       1.0000 0.11704  0.73656  0.07322  Biso   1.000  O
  H106     1.0000 0.30308  0.77310  0.89015  Biso   1.000  H
  H107     1.0000 0.21813  0.79079  0.01155  Biso   1.000  H
  H108     1.0000 0.09062  0.71270  0.08167  Biso   1.000  H
  C109     1.0000 0.72986  0.24871  0.59350  Biso   1.000  C
  C110     1.0000 0.72544  0.20205  0.64386  Biso   1.000  C
  C111     1.0000 0.78115  0.25953  0.52080  Biso   1.000  C
  H109     1.0000 0.69687  0.27308  0.60976  Biso   1.000  H
  C112     1.0000 0.67109  0.19135  0.72399  Biso   1.000  C
  C113     1.0000 0.77591  0.16698  0.61518  Biso   1.000  C
  C114     1.0000 0.83200  0.22427  0.49525  Biso   1.000  C
  H110     1.0000 0.78188  0.29080  0.48836  Biso   1.000  H
  C115     1.0000 0.68508  0.15306  0.80827  Biso   1.000  C
  C116     1.0000 0.60519  0.21992  0.72179  Biso   1.000  C
  C117     1.0000 0.82912  0.17692  0.54359  Biso   1.000  C
  H111     1.0000 0.77376  0.13548  0.64551  Biso   1.000  H
  O7       1.0000 0.88296  0.23658  0.42670  Biso   1.000  O
  C118     1.0000 0.63655  0.14392  0.88666  Biso   1.000  C
  H112     1.0000 0.72826  0.13322  0.81167  Biso   1.000  H
  C119     1.0000 0.55752  0.21133  0.80183  Biso   1.000  C
  H113     1.0000 0.59336  0.24520  0.66499  Biso   1.000  H
  C120     1.0000 0.88398  0.13943  0.52209  Biso   1.000  C
  H114     1.0000 0.90933  0.21269  0.41824  Biso   1.000  H
  C121     1.0000 0.57206  0.17315  0.88648  Biso   1.000  C
  H115     1.0000 0.64693  0.11769  0.94079  Biso   1.000  H
  H116     1.0000 0.51477  0.23139  0.79954  Biso   1.000  H
  N17      1.0000 0.93407  0.14809  0.45868  Biso   1.000  N
  H117     1.0000 0.88203  0.10852  0.55591  Biso   1.000  H
  C122     1.0000 0.52318  0.16362  0.97378  Biso   1.000  C
  C123     1.0000 0.98809  0.10958  0.44250  Biso   1.000  C
  N18      1.0000 0.47077  0.19222  0.99133  Biso   1.000  N
  H118     1.0000 0.53121  0.13479  0.01909  Biso   1.000  H
  C124     1.0000 0.96838  0.09080  0.31154  Biso   1.000  C
  H119     1.0000 0.98533  0.08301  0.49875  Biso   1.000  H
  H120     1.0000 0.04063  0.12229  0.46116  Biso   1.000  H
  C125     1.0000 0.42854  0.17827  0.08572  Biso   1.000  C
  N19      1.0000 0.89928  0.05926  0.28912  Biso   1.000  N
  H121     1.0000 0.95925  0.11831  0.25539  Biso   1.000  H
  H122     1.0000 0.01216  0.07249  0.29546  Biso   1.000  H
  C126     1.0000 0.34540  0.19522  0.05107  Biso   1.000  C
  H123     1.0000 0.45372  0.19270  0.16374  Biso   1.000  H
  H124     1.0000 0.42992  0.14301  0.09527  Biso   1.000  H
  C127     1.0000 0.85959  0.06003  0.15908  Biso   1.000  C
  C128     1.0000 0.91940  0.00928  0.32891  Biso   1.000  C
  N20      1.0000 0.29733  0.16636  0.95218  Biso   1.000  N
  H125     1.0000 0.32301  0.19350  0.12303  Biso   1.000  H
  H126     1.0000 0.34440  0.22909  0.02543  Biso   1.000  H
  C129     1.0000 0.80602  0.10373  0.12811  Biso   1.000  C
  H127     1.0000 0.82955  0.03022  0.13969  Biso   1.000  H
  H128     1.0000 0.89797  0.06091  0.10890  Biso   1.000  H
  H129     1.0000 0.96233  0.00990  0.40004  Biso   1.000  H
  H130     1.0000 0.93633  0.99182  0.26376  Biso   1.000  H
  C130     1.0000 0.85193  0.98232  0.36126  Biso   1.000  C
  C131     1.0000 0.23769  0.19719  0.87655  Biso   1.000  C
  C132     1.0000 0.26484  0.12317  0.99869  Biso   1.000  C
  N21      1.0000 0.73460  0.09606  0.17038  Biso   1.000  N
  H131     1.0000 0.83208  0.13281  0.16662  Biso   1.000  H
  H132     1.0000 0.79386  0.10881  0.03979  Biso   1.000  H
  H133     1.0000 0.80528  0.98889  0.29923  Biso   1.000  H
  H134     1.0000 0.86188  0.94739  0.36154  Biso   1.000  H
  N22      1.0000 0.83959  0.99686  0.48092  Biso   1.000  N
  C133     1.0000 0.26994  0.22566  0.78244  Biso   1.000  C
  H135     1.0000 0.21765  0.21981  0.92903  Biso   1.000  H
  H136     1.0000 0.19497  0.17692  0.83474  Biso   1.000  H
  C134     1.0000 0.25257  0.08141  0.90752  Biso   1.000  C
  H137     1.0000 0.21563  0.13168  0.01808  Biso   1.000  H
  H138     1.0000 0.29963  0.11261  0.07404  Biso   1.000  H
  C135     1.0000 0.71897  0.12660  0.24703  Biso   1.000  C
  C136     1.0000 0.77149  0.00683  0.49314  Biso   1.000  C
  N23      1.0000 0.27544  0.19467  0.67933  Biso   1.000  N
  H139     1.0000 0.23638  0.25321  0.75368  Biso   1.000  H
  H140     1.0000 0.32096  0.23819  0.82040  Biso   1.000  H
  H141     1.0000 0.22119  0.05630  0.93417  Biso   1.000  H
  H142     1.0000 0.22519  0.09310  0.82757  Biso   1.000  H
  N24      1.0000 0.32704  0.06124  0.89833  Biso   1.000  N
  C137     1.0000 0.64792  0.12459  0.29445  Biso   1.000  C
  H143     1.0000 0.75425  0.15159  0.27432  Biso   1.000  H
  H144     1.0000 0.73129  0.00829  0.42366  Biso   1.000  H
  C138     1.0000 0.75482  0.01608  0.61381  Biso   1.000  C
  C139     1.0000 0.34073  0.18905  0.65001  Biso   1.000  C
  C140     1.0000 0.34848  0.06734  0.79862  Biso   1.000  C
  C141     1.0000 0.62861  0.16449  0.35998  Biso   1.000  C
  C142     1.0000 0.59655  0.08532  0.27285  Biso   1.000  C
  C143     1.0000 0.67896  0.02280  0.62649  Biso   1.000  C
  C144     1.0000 0.81489  0.01399  0.71958  Biso   1.000  C
  C145     1.0000 0.34841  0.16047  0.54341  Biso   1.000  C
  H145     1.0000 0.38465  0.20359  0.69808  Biso   1.000  H
  C146     1.0000 0.42581  0.05345  0.78180  Biso   1.000  C
  H146     1.0000 0.31365  0.08130  0.73273  Biso   1.000  H
  C147     1.0000 0.55966  0.16573  0.39885  Biso   1.000  C
  H147     1.0000 0.66280  0.19069  0.37780  Biso   1.000  H
  C148     1.0000 0.52835  0.08616  0.31301  Biso   1.000  C
  H148     1.0000 0.60868  0.05809  0.23067  Biso   1.000  H
  C149     1.0000 0.65966  0.02689  0.74044  Biso   1.000  C
  H149     1.0000 0.63958  0.02459  0.55600  Biso   1.000  H
  C150     1.0000 0.79706  0.01845  0.83437  Biso   1.000  C
  O8       1.0000 0.89002  0.00734  0.71315  Biso   1.000  O
  C151     1.0000 0.28394  0.13545  0.47219  Biso   1.000  C
  C152     1.0000 0.42003  0.15737  0.50950  Biso   1.000  C
  C153     1.0000 0.48466  0.04034  0.88170  Biso   1.000  C
  C154     1.0000 0.44414  0.05528  0.66656  Biso   1.000  C
  C155     1.0000 0.50685  0.12682  0.37505  Biso   1.000  C
  H150     1.0000 0.54796  0.19288  0.44168  Biso   1.000  H
  H151     1.0000 0.49556  0.05919  0.29877  Biso   1.000  H
  C156     1.0000 0.57838  0.03427  0.75285  Biso   1.000  C
  C157     1.0000 0.72134  0.02433  0.84393  Biso   1.000  C
  H152     1.0000 0.83655  0.01739  0.90486  Biso   1.000  H
  H153     1.0000 0.89282  0.00530  0.64082  Biso   1.000  H
  C158     1.0000 0.29409  0.10779  0.37312  Biso   1.000  C
  O9       1.0000 0.21378  0.13724  0.50141  Biso   1.000  O
  C159     1.0000 0.43088  0.12982  0.41025  Biso   1.000  C
  H154     1.0000 0.46207  0.17450  0.55545  Biso   1.000  H
  C160     1.0000 0.55837  0.03007  0.86736  Biso   1.000  C
  H155     1.0000 0.47384  0.03851  0.95944  Biso   1.000  H
  H156     1.0000 0.40556  0.06270  0.59781  Biso   1.000  H
  C161     1.0000 0.51907  0.04615  0.65296  Biso   1.000  C
  H157     1.0000 0.71052  0.02671  0.92177  Biso   1.000  H
  H158     1.0000 0.25206  0.09102  0.32606  Biso   1.000  H
  C162     1.0000 0.36594  0.10486  0.34297  Biso   1.000  C
  H159     1.0000 0.21620  0.15488  0.56151  Biso   1.000  H
  H160     1.0000 0.59585  0.02010  0.93518  Biso   1.000  H
  H161     1.0000 0.52984  0.04801  0.57521  Biso   1.000  H
  H162     1.0000 0.37127  0.08579  0.27625  Biso   1.000  H
  C163     1.0000 0.27004  0.75129  0.40648  Biso   1.000  C
  C164     1.0000 0.21874  0.74047  0.47917  Biso   1.000  C
  C165     1.0000 0.27446  0.79795  0.35612  Biso   1.000  C
  H163     1.0000 0.30308  0.72692  0.39021  Biso   1.000  H
  C166     1.0000 0.16795  0.77573  0.50472  Biso   1.000  C
  H164     1.0000 0.21808  0.70920  0.51161  Biso   1.000  H
  C167     1.0000 0.22404  0.83302  0.38479  Biso   1.000  C
  C168     1.0000 0.32886  0.80865  0.27598  Biso   1.000  C
  C169     1.0000 0.17084  0.82308  0.45638  Biso   1.000  C
  O10      1.0000 0.11699  0.76342  0.57328  Biso   1.000  O
  H165     1.0000 0.22619  0.86452  0.35446  Biso   1.000  H
  C170     1.0000 0.31488  0.84694  0.19171  Biso   1.000  C
  C171     1.0000 0.39476  0.78008  0.27818  Biso   1.000  C
  C172     1.0000 0.11597  0.86057  0.47788  Biso   1.000  C
  H166     1.0000 0.09056  0.78731  0.58164  Biso   1.000  H
  C173     1.0000 0.36340  0.85608  0.11331  Biso   1.000  C
  H167     1.0000 0.27169  0.86678  0.18830  Biso   1.000  H
  H168     1.0000 0.40659  0.75480  0.33498  Biso   1.000  H
  C174     1.0000 0.44242  0.78867  0.19805  Biso   1.000  C
  H169     1.0000 0.11786  0.89148  0.44406  Biso   1.000  H
  N25      1.0000 0.06588  0.85191  0.54130  Biso   1.000  N
  C175     1.0000 0.42789  0.82685  0.11350  Biso   1.000  C
  H170     1.0000 0.35297  0.88231  0.05918  Biso   1.000  H
  H171     1.0000 0.48519  0.76861  0.20044  Biso   1.000  H
  C176     1.0000 0.01181  0.89042  0.55747  Biso   1.000  C
  C177     1.0000 0.47677  0.83638  0.02619  Biso   1.000  C
  H172     1.0000 0.01455  0.91699  0.50114  Biso   1.000  H
  C178     1.0000 0.03156  0.90920  0.68834  Biso   1.000  C
  H173     1.0000 0.95926  0.87771  0.53881  Biso   1.000  H
  N26      1.0000 0.52912  0.80778  0.00864  Biso   1.000  N
  H174     1.0000 0.46875  0.86521  0.98088  Biso   1.000  H
  H175     1.0000 0.04070  0.88169  0.74458  Biso   1.000  H
  N27      1.0000 0.10067  0.94074  0.71085  Biso   1.000  N
  H176     1.0000 0.98780  0.92751  0.70451  Biso   1.000  H
  C179     1.0000 0.57140  0.82173  0.91416  Biso   1.000  C
  C180     1.0000 0.14036  0.93997  0.84089  Biso   1.000  C
  C181     1.0000 0.08049  0.99072  0.67106  Biso   1.000  C
  C182     1.0000 0.65450  0.80478  0.94890  Biso   1.000  C
  H177     1.0000 0.54623  0.80730  0.83623  Biso   1.000  H
  H178     1.0000 0.57003  0.85699  0.90470  Biso   1.000  H
  H179     1.0000 0.17035  0.96978  0.86028  Biso   1.000  H
  H180     1.0000 0.10198  0.93909  0.89107  Biso   1.000  H
  C183     1.0000 0.19388  0.89627  0.87186  Biso   1.000  C
  H181     1.0000 0.03756  0.99010  0.59984  Biso   1.000  H
  H182     1.0000 0.06355  0.00818  0.73613  Biso   1.000  H
  C184     1.0000 0.14802  0.01768  0.63871  Biso   1.000  C
  N28      1.0000 0.70257  0.83364  0.04779  Biso   1.000  N
  H183     1.0000 0.67695  0.80650  0.87694  Biso   1.000  H
  H184     1.0000 0.65555  0.77091  0.97454  Biso   1.000  H
  H185     1.0000 0.16787  0.86719  0.83336  Biso   1.000  H
  H186     1.0000 0.20604  0.89119  0.96018  Biso   1.000  H
  N29      1.0000 0.26535  0.90394  0.82959  Biso   1.000  N
  H187     1.0000 0.19467  0.01111  0.70074  Biso   1.000  H
  H188     1.0000 0.13806  0.05261  0.63834  Biso   1.000  H
  N30      1.0000 0.16030  0.00314  0.51906  Biso   1.000  N
  C185     1.0000 0.76226  0.80281  0.12342  Biso   1.000  C
  C186     1.0000 0.73511  0.87683  0.00129  Biso   1.000  C
  C187     1.0000 0.28098  0.87340  0.75294  Biso   1.000  C
  C188     1.0000 0.22845  0.99317  0.50674  Biso   1.000  C
  C189     1.0000 0.72996  0.77434  0.21753  Biso   1.000  C
  H189     1.0000 0.78229  0.78019  0.07086  Biso   1.000  H
  H190     1.0000 0.80498  0.82308  0.16524  Biso   1.000  H
  C190     1.0000 0.74737  0.91859  0.09236  Biso   1.000  C
  H191     1.0000 0.78432  0.86832  0.98190  Biso   1.000  H
  H192     1.0000 0.70032  0.88739  0.92593  Biso   1.000  H
  H193     1.0000 0.24565  0.84841  0.72565  Biso   1.000  H
  C191     1.0000 0.35202  0.87541  0.70543  Biso   1.000  C
  H194     1.0000 0.26867  0.99171  0.57631  Biso   1.000  H
  C192     1.0000 0.24508  0.98392  0.38617  Biso   1.000  C
  H195     1.0000 0.76357  0.74679  0.24629  Biso   1.000  H
  H196     1.0000 0.67899  0.76181  0.17957  Biso   1.000  H
  N31      1.0000 0.72450  0.80533  0.32055  Biso   1.000  N
  H197     1.0000 0.77876  0.94370  0.06580  Biso   1.000  H
  H198     1.0000 0.77476  0.90690  0.17241  Biso   1.000  H
  N32      1.0000 0.67290  0.93876  0.10155  Biso   1.000  N
  C193     1.0000 0.37135  0.83551  0.64000  Biso   1.000  C
  C194     1.0000 0.40339  0.91468  0.72703  Biso   1.000  C
  C195     1.0000 0.18507  0.98601  0.28039  Biso   1.000  C
  C196     1.0000 0.32099  0.97720  0.37348  Biso   1.000  C
  C197     1.0000 0.65923  0.81095  0.34996  Biso   1.000  C
  C198     1.0000 0.65146  0.93266  0.20126  Biso   1.000  C
  H199     1.0000 0.33716  0.80931  0.62217  Biso   1.000  H
  C199     1.0000 0.44028  0.83427  0.60103  Biso   1.000  C
  C200     1.0000 0.47160  0.91384  0.68696  Biso   1.000  C
  H200     1.0000 0.39128  0.94191  0.76930  Biso   1.000  H
  C201     1.0000 0.20289  0.98155  0.16561  Biso   1.000  C
  O11      1.0000 0.10993  0.99266  0.28682  Biso   1.000  O
  C202     1.0000 0.34029  0.97311  0.25953  Biso   1.000  C
  H201     1.0000 0.36037  0.97541  0.44397  Biso   1.000  H
  C203     1.0000 0.65154  0.83953  0.45656  Biso   1.000  C
  H202     1.0000 0.61530  0.79641  0.30189  Biso   1.000  H
  C204     1.0000 0.57415  0.94655  0.21817  Biso   1.000  C
  H203     1.0000 0.68629  0.91870  0.26716  Biso   1.000  H
  H204     1.0000 0.45199  0.80712  0.55830  Biso   1.000  H
  C205     1.0000 0.49309  0.87318  0.62483  Biso   1.000  C
  H205     1.0000 0.50439  0.94081  0.70120  Biso   1.000  H
  H206     1.0000 0.16340  0.98261  0.09512  Biso   1.000  H
  C206     1.0000 0.27860  0.97567  0.15596  Biso   1.000  C
  H207     1.0000 0.10706  0.99470  0.35906  Biso   1.000  H
  C207     1.0000 0.42157  0.96573  0.24712  Biso   1.000  C
  C208     1.0000 0.57993  0.84263  0.49047  Biso   1.000  C
  C209     1.0000 0.71601  0.86455  0.52779  Biso   1.000  C
  C210     1.0000 0.51529  0.95966  0.11828  Biso   1.000  C
  C211     1.0000 0.55576  0.94472  0.33342  Biso   1.000  C
  C212     1.0000 0.56906  0.87018  0.58964  Biso   1.000  C
  H208     1.0000 0.28937  0.97329  0.07821  Biso   1.000  H
  C213     1.0000 0.44159  0.96993  0.13261  Biso   1.000  C
  C214     1.0000 0.48088  0.95385  0.34702  Biso   1.000  C
  H209     1.0000 0.53788  0.82550  0.44452  Biso   1.000  H
  C215     1.0000 0.70586  0.89221  0.62686  Biso   1.000  C
  O12      1.0000 0.78612  0.86276  0.49856  Biso   1.000  O
  H210     1.0000 0.52611  0.96149  0.04053  Biso   1.000  H
  H211     1.0000 0.59439  0.93730  0.40216  Biso   1.000  H
  C216     1.0000 0.63401  0.89514  0.65700  Biso   1.000  C
  H212     1.0000 0.40410  0.97990  0.06479  Biso   1.000  H
  H213     1.0000 0.47005  0.95199  0.42477  Biso   1.000  H
  H214     1.0000 0.74784  0.90898  0.67391  Biso   1.000  H
  H215     1.0000 0.78375  0.84512  0.43846  Biso   1.000  H
  H216     1.0000 0.62867  0.91421  0.72363  Biso   1.000  H
