data_image0
_cell_length_a       18.226
_cell_length_b       24.486
_cell_length_c       49.822
_cell_angle_alpha    90
_cell_angle_beta     90
_cell_angle_gamma    90

_symmetry_space_group_name_H-M    "P 1"
_symmetry_int_tables_number       1

loop_
  _symmetry_equiv_pos_as_xyz
  'x, y, z'

loop_
  _atom_site_label
  _atom_site_occupancy
  _atom_site_fract_x
  _atom_site_fract_y
  _atom_site_fract_z
  _atom_site_thermal_displace_type
  _atom_site_B_iso_or_equiv
  _atom_site_type_symbol
  C1       1.0000 0.54302  0.15499  0.52300  Biso   1.000  C
  C2       1.0000 0.52502  0.16899  0.54899  Biso   1.000  C
  C3       1.0000 0.60798  0.12701  0.51700  Biso   1.000  C
  C4       1.0000 0.57199  0.15401  0.57001  Biso   1.000  C
  C5       1.0000 0.65500  0.11198  0.53800  Biso   1.000  C
  C6       1.0000 0.57802  0.16099  0.60499  Biso   1.000  C
  C7       1.0000 0.63700  0.12599  0.56499  Biso   1.000  C
  C8       1.0000 0.51898  0.12399  0.61800  Biso   1.000  C
  C9       1.0000 0.51898  0.13902  0.64700  Biso   1.000  C
  C10      1.0000 0.46703  0.10100  0.66001  Biso   1.000  C
  C11      1.0000 0.59300  0.12399  0.66099  Biso   1.000  C
  C12      1.0000 0.44398  0.05101  0.65100  Biso   1.000  C
  C13      1.0000 0.43701  0.12399  0.68400  Biso   1.000  C
  C14      1.0000 0.61198  0.15000  0.68500  Biso   1.000  C
  C15      1.0000 0.63601  0.08201  0.65100  Biso   1.000  C
  C16      1.0000 0.38999  0.02201  0.66599  Biso   1.000  C
  C17      1.0000 0.38401  0.09499  0.69800  Biso   1.000  C
  O1       1.0000 0.45100  0.17002  0.69301  Biso   1.000  O
  O2       1.0000 0.57297  0.18798  0.69499  Biso   1.000  O
  C18      1.0000 0.67299  0.13399  0.69901  Biso   1.000  C
  C19      1.0000 0.69801  0.06502  0.66599  Biso   1.000  C
  C20      1.0000 0.35998  0.04398  0.68899  Biso   1.000  C
  C21      1.0000 0.36602  0.96700  0.65401  Biso   1.000  C
  O3       1.0000 0.35400  0.09802  0.72101  Biso   1.000  O
  C22      1.0000 0.51701  0.17402  0.71001  Biso   1.000  C
  C23      1.0000 0.71700  0.09099  0.69000  Biso   1.000  C
  O4       1.0000 0.68902  0.15000  0.72400  Biso   1.000  O
  C24      1.0000 0.73302  0.03900  0.65800  Biso   1.000  C
  O5       1.0000 0.30802  0.01099  0.70100  Biso   1.000  O
  C25      1.0000 0.41298  0.92000  0.66599  Biso   1.000  C
  C26      1.0000 0.30802  0.14298  0.71699  Biso   1.000  C
  O6       1.0000 0.79101  0.07800  0.69700  Biso   1.000  O
  C27      1.0000 0.73099  0.20101  0.72299  Biso   1.000  C
  C28      1.0000 0.34698  0.95700  0.71800  Biso   1.000  C
  C29      1.0000 0.47701  0.89998  0.65401  Biso   1.000  C
  C30      1.0000 0.39202  0.90100  0.69100  Biso   1.000  C
  C31      1.0000 0.79699  0.03300  0.71400  Biso   1.000  C
  C32      1.0000 0.81801  0.19301  0.72101  Biso   1.000  C
  O7       1.0000 0.32498  0.91301  0.70100  Biso   1.000  O
  C33      1.0000 0.52003  0.86200  0.66800  Biso   1.000  C
  C34      1.0000 0.43498  0.86298  0.70501  Biso   1.000  C
  O8       1.0000 0.82102  0.98399  0.70300  Biso   1.000  O
  C35      1.0000 0.85499  0.20600  0.69800  Biso   1.000  C
  C36      1.0000 0.85597  0.16899  0.74301  Biso   1.000  C
  C37      1.0000 0.59201  0.85000  0.65499  Biso   1.000  C
  C38      1.0000 0.49901  0.84399  0.69301  Biso   1.000  C
  O9       1.0000 0.41402  0.85200  0.73301  Biso   1.000  O
  C39      1.0000 0.75798  0.94899  0.69100  Biso   1.000  C
  C40      1.0000 0.92999  0.19599  0.69499  Biso   1.000  C
  C41      1.0000 0.93098  0.15899  0.73999  Biso   1.000  C
  C42      1.0000 0.82498  0.15401  0.77500  Biso   1.000  C
  C43      1.0000 0.65500  0.87801  0.66800  Biso   1.000  C
  C44      1.0000 0.59300  0.84599  0.62300  Biso   1.000  C
  O10      1.0000 0.53901  0.80001  0.70900  Biso   1.000  O
  C45      1.0000 0.37403  0.79498  0.73500  Biso   1.000  C
  C46      1.0000 0.72501  0.96202  0.66699  Biso   1.000  C
  C47      1.0000 0.73999  0.89998  0.70401  Biso   1.000  C
  C48      1.0000 0.96801  0.17202  0.71699  Biso   1.000  C
  O11      1.0000 0.77499  0.10998  0.77100  Biso   1.000  O
  C49      1.0000 0.67299  0.92600  0.65499  Biso   1.000  C
  C50      1.0000 0.68902  0.86498  0.69301  Biso   1.000  C
  C51      1.0000 0.60403  0.81900  0.72299  Biso   1.000  C
  C52      1.0000 0.29200  0.81202  0.73301  Biso   1.000  C
  O12      1.0000 0.77499  0.89002  0.72900  Biso   1.000  O
  C53      1.0000 0.73999  0.10002  0.79599  Biso   1.000  C
  O13      1.0000 0.66998  0.81802  0.70800  Biso   1.000  O
  C54      1.0000 0.25398  0.79699  0.71001  Biso   1.000  C
  C55      1.0000 0.25502  0.83901  0.75400  Biso   1.000  C
  C56      1.0000 0.82498  0.84599  0.72500  Biso   1.000  C
  C57      1.0000 0.75798  0.05101  0.80900  Biso   1.000  C
  C58      1.0000 0.68902  0.13502  0.80699  Biso   1.000  C
  C59      1.0000 0.18002  0.80801  0.70700  Biso   1.000  C
  C60      1.0000 0.18002  0.85000  0.75099  Biso   1.000  C
  C61      1.0000 0.85597  0.83101  0.75699  Biso   1.000  C
  O14      1.0000 0.82102  0.01601  0.79700  Biso   1.000  O
  C62      1.0000 0.72501  0.03798  0.83301  Biso   1.000  C
  C63      1.0000 0.65500  0.12199  0.83200  Biso   1.000  C
  O15      1.0000 0.66998  0.18198  0.79200  Biso   1.000  O
  C64      1.0000 0.14298  0.83399  0.72799  Biso   1.000  C
  C65      1.0000 0.81801  0.80699  0.77899  Biso   1.000  C
  C66      1.0000 0.93098  0.84101  0.76001  Biso   1.000  C
  C67      1.0000 0.79699  0.96700  0.78600  Biso   1.000  C
  C68      1.0000 0.67299  0.07400  0.84501  Biso   1.000  C
  C69      1.0000 0.59201  0.15000  0.84501  Biso   1.000  C
  C70      1.0000 0.60403  0.18100  0.77701  Biso   1.000  C
  C71      1.0000 0.73099  0.79899  0.77701  Biso   1.000  C
  C72      1.0000 0.85499  0.79400  0.80200  Biso   1.000  C
  C73      1.0000 0.96801  0.82798  0.78301  Biso   1.000  C
  O16      1.0000 0.79101  0.92200  0.80300  Biso   1.000  O
  C74      1.0000 0.59300  0.15401  0.87700  Biso   1.000  C
  C75      1.0000 0.52003  0.13800  0.83200  Biso   1.000  C
  O17      1.0000 0.53901  0.19999  0.79100  Biso   1.000  O
  O18      1.0000 0.68902  0.85000  0.77600  Biso   1.000  O
  C76      1.0000 0.92999  0.80401  0.80501  Biso   1.000  C
  C77      1.0000 0.71700  0.90901  0.81000  Biso   1.000  C
  C78      1.0000 0.49901  0.15601  0.80699  Biso   1.000  C
  C79      1.0000 0.47701  0.10002  0.84599  Biso   1.000  C
  C80      1.0000 0.67299  0.86601  0.80099  Biso   1.000  C
  C81      1.0000 0.69801  0.93498  0.83401  Biso   1.000  C
  C82      1.0000 0.43498  0.13702  0.79499  Biso   1.000  C
  C83      1.0000 0.41298  0.08000  0.83401  Biso   1.000  C
  C84      1.0000 0.61198  0.85000  0.81500  Biso   1.000  C
  C85      1.0000 0.63601  0.91799  0.84900  Biso   1.000  C
  C86      1.0000 0.73302  0.96100  0.84200  Biso   1.000  C
  O19      1.0000 0.41402  0.14800  0.76699  Biso   1.000  O
  C87      1.0000 0.39202  0.09900  0.80900  Biso   1.000  C
  C88      1.0000 0.36602  0.03300  0.84599  Biso   1.000  C
  O20      1.0000 0.57297  0.81202  0.80501  Biso   1.000  O
  C89      1.0000 0.59300  0.87601  0.83901  Biso   1.000  C
  C90      1.0000 0.37403  0.20502  0.76500  Biso   1.000  C
  O21      1.0000 0.32498  0.08699  0.79900  Biso   1.000  O
  C91      1.0000 0.38999  0.97799  0.83401  Biso   1.000  C
  C92      1.0000 0.51701  0.82598  0.78999  Biso   1.000  C
  C93      1.0000 0.51898  0.86098  0.85300  Biso   1.000  C
  C94      1.0000 0.29200  0.18798  0.76699  Biso   1.000  C
  C95      1.0000 0.34698  0.04300  0.78200  Biso   1.000  C
  C96      1.0000 0.35998  0.95602  0.81101  Biso   1.000  C
  C97      1.0000 0.44398  0.94899  0.84900  Biso   1.000  C
  O22      1.0000 0.45100  0.82998  0.80699  Biso   1.000  O
  C98      1.0000 0.46703  0.89900  0.83999  Biso   1.000  C
  C99      1.0000 0.51898  0.87601  0.88200  Biso   1.000  C
  C100     1.0000 0.25398  0.20301  0.78999  Biso   1.000  C
  C101     1.0000 0.25502  0.16099  0.74600  Biso   1.000  C
  O23      1.0000 0.30802  0.98901  0.79900  Biso   1.000  O
  C102     1.0000 0.38401  0.90501  0.80200  Biso   1.000  C
  C103     1.0000 0.43701  0.87601  0.81600  Biso   1.000  C
  C104     1.0000 0.57802  0.83901  0.89501  Biso   1.000  C
  C105     1.0000 0.18002  0.19199  0.79300  Biso   1.000  C
  C106     1.0000 0.18002  0.15000  0.74901  Biso   1.000  C
  O24      1.0000 0.35400  0.90198  0.77899  Biso   1.000  O
  C107     1.0000 0.57199  0.84599  0.92999  Biso   1.000  C
  C108     1.0000 0.14298  0.16601  0.77201  Biso   1.000  C
  C109     1.0000 0.30802  0.85702  0.78301  Biso   1.000  C
  C110     1.0000 0.52502  0.83101  0.95101  Biso   1.000  C
  C111     1.0000 0.63700  0.87401  0.93501  Biso   1.000  C
  C112     1.0000 0.54302  0.84501  0.97700  Biso   1.000  C
  C113     1.0000 0.65500  0.88802  0.96200  Biso   1.000  C
  C114     1.0000 0.60798  0.87299  0.98300  Biso   1.000  C
  C115     1.0000 0.15500  0.38802  0.53800  Biso   1.000  C
  C116     1.0000 0.10798  0.37299  0.51700  Biso   1.000  C
  C117     1.0000 0.13700  0.37401  0.56499  Biso   1.000  C
  C118     1.0000 0.04302  0.34501  0.52300  Biso   1.000  C
  C119     1.0000 0.07199  0.34599  0.57001  Biso   1.000  C
  C120     1.0000 0.02502  0.33101  0.54899  Biso   1.000  C
  C121     1.0000 0.07802  0.33901  0.60499  Biso   1.000  C
  C122     1.0000 0.01898  0.37601  0.61800  Biso   1.000  C
  C123     1.0000 0.01898  0.36098  0.64700  Biso   1.000  C
  C124     1.0000 0.09300  0.37601  0.66099  Biso   1.000  C
  C125     1.0000 0.96703  0.39900  0.66001  Biso   1.000  C
  C126     1.0000 0.11198  0.35000  0.68500  Biso   1.000  C
  C127     1.0000 0.13601  0.41799  0.65100  Biso   1.000  C
  C128     1.0000 0.94398  0.44899  0.65100  Biso   1.000  C
  C129     1.0000 0.93701  0.37601  0.68400  Biso   1.000  C
  O25      1.0000 0.07297  0.31202  0.69499  Biso   1.000  O
  C130     1.0000 0.17299  0.36601  0.69901  Biso   1.000  C
  C131     1.0000 0.19801  0.43498  0.66599  Biso   1.000  C
  C132     1.0000 0.88999  0.47799  0.66599  Biso   1.000  C
  C133     1.0000 0.88401  0.40501  0.69800  Biso   1.000  C
  O26      1.0000 0.95100  0.32998  0.69301  Biso   1.000  O
  C134     1.0000 0.01701  0.32598  0.71001  Biso   1.000  C
  C135     1.0000 0.21700  0.40901  0.69000  Biso   1.000  C
  O27      1.0000 0.18902  0.35000  0.72400  Biso   1.000  O
  C136     1.0000 0.23302  0.46100  0.65800  Biso   1.000  C
  C137     1.0000 0.85998  0.45602  0.68899  Biso   1.000  C
  C138     1.0000 0.86602  0.53300  0.65401  Biso   1.000  C
  O28      1.0000 0.85400  0.40198  0.72101  Biso   1.000  O
  O29      1.0000 0.29101  0.42200  0.69700  Biso   1.000  O
  C139     1.0000 0.23099  0.29899  0.72299  Biso   1.000  C
  O30      1.0000 0.80802  0.48901  0.70100  Biso   1.000  O
  C140     1.0000 0.91298  0.58000  0.66599  Biso   1.000  C
  C141     1.0000 0.80802  0.35702  0.71699  Biso   1.000  C
  C142     1.0000 0.29699  0.46700  0.71400  Biso   1.000  C
  C143     1.0000 0.31801  0.30699  0.72101  Biso   1.000  C
  C144     1.0000 0.84698  0.54300  0.71800  Biso   1.000  C
  C145     1.0000 0.97701  0.60002  0.65401  Biso   1.000  C
  C146     1.0000 0.89202  0.59900  0.69100  Biso   1.000  C
  O31      1.0000 0.32102  0.51601  0.70300  Biso   1.000  O
  C147     1.0000 0.35499  0.29400  0.69800  Biso   1.000  C
  C148     1.0000 0.35597  0.33101  0.74301  Biso   1.000  C
  O32      1.0000 0.82498  0.58699  0.70100  Biso   1.000  O
  C149     1.0000 0.02003  0.63800  0.66800  Biso   1.000  C
  C150     1.0000 0.93498  0.63702  0.70501  Biso   1.000  C
  C151     1.0000 0.25798  0.55101  0.69100  Biso   1.000  C
  C152     1.0000 0.42999  0.30401  0.69499  Biso   1.000  C
  C153     1.0000 0.43098  0.34101  0.73999  Biso   1.000  C
  C154     1.0000 0.32498  0.34599  0.77500  Biso   1.000  C
  C155     1.0000 0.09201  0.65000  0.65499  Biso   1.000  C
  C156     1.0000 0.99901  0.65601  0.69301  Biso   1.000  C
  O33      1.0000 0.91402  0.64800  0.73301  Biso   1.000  O
  C157     1.0000 0.22501  0.53798  0.66699  Biso   1.000  C
  C158     1.0000 0.23999  0.60002  0.70401  Biso   1.000  C
  C159     1.0000 0.46801  0.32798  0.71699  Biso   1.000  C
  O34      1.0000 0.27499  0.39002  0.77100  Biso   1.000  O
  C160     1.0000 0.15500  0.62199  0.66800  Biso   1.000  C
  C161     1.0000 0.09300  0.65401  0.62300  Biso   1.000  C
  O35      1.0000 0.03901  0.69999  0.70900  Biso   1.000  O
  C162     1.0000 0.87403  0.70502  0.73500  Biso   1.000  C
  C163     1.0000 0.17299  0.57400  0.65499  Biso   1.000  C
  C164     1.0000 0.18902  0.63502  0.69301  Biso   1.000  C
  O36      1.0000 0.27499  0.60998  0.72900  Biso   1.000  O
  C165     1.0000 0.23999  0.39998  0.79599  Biso   1.000  C
  C166     1.0000 0.10403  0.68100  0.72299  Biso   1.000  C
  C167     1.0000 0.79200  0.68798  0.73301  Biso   1.000  C
  O37      1.0000 0.16998  0.68198  0.70800  Biso   1.000  O
  C168     1.0000 0.32498  0.65401  0.72500  Biso   1.000  C
  C169     1.0000 0.25798  0.44899  0.80900  Biso   1.000  C
  C170     1.0000 0.18902  0.36498  0.80699  Biso   1.000  C
  C171     1.0000 0.75398  0.70301  0.71001  Biso   1.000  C
  C172     1.0000 0.75502  0.66099  0.75400  Biso   1.000  C
  C173     1.0000 0.35597  0.66899  0.75699  Biso   1.000  C
  O38      1.0000 0.32102  0.48399  0.79700  Biso   1.000  O
  C174     1.0000 0.22501  0.46202  0.83301  Biso   1.000  C
  C175     1.0000 0.15500  0.37801  0.83200  Biso   1.000  C
  O39      1.0000 0.16998  0.31802  0.79200  Biso   1.000  O
  C176     1.0000 0.68002  0.69199  0.70700  Biso   1.000  C
  C177     1.0000 0.68002  0.65000  0.75099  Biso   1.000  C
  C178     1.0000 0.31801  0.69301  0.77899  Biso   1.000  C
  C179     1.0000 0.43098  0.65899  0.76001  Biso   1.000  C
  C180     1.0000 0.29699  0.53300  0.78600  Biso   1.000  C
  C181     1.0000 0.17299  0.42600  0.84501  Biso   1.000  C
  C182     1.0000 0.09201  0.35000  0.84501  Biso   1.000  C
  C183     1.0000 0.10403  0.31900  0.77701  Biso   1.000  C
  C184     1.0000 0.64298  0.66601  0.72799  Biso   1.000  C
  C185     1.0000 0.23099  0.70101  0.77701  Biso   1.000  C
  C186     1.0000 0.35499  0.70600  0.80200  Biso   1.000  C
  C187     1.0000 0.46801  0.67202  0.78301  Biso   1.000  C
  O40      1.0000 0.29101  0.57800  0.80300  Biso   1.000  O
  C188     1.0000 0.09300  0.34599  0.87700  Biso   1.000  C
  C189     1.0000 0.02003  0.36200  0.83200  Biso   1.000  C
  O41      1.0000 0.03901  0.30001  0.79100  Biso   1.000  O
  O42      1.0000 0.18902  0.65000  0.77600  Biso   1.000  O
  C190     1.0000 0.42999  0.69599  0.80501  Biso   1.000  C
  C191     1.0000 0.21700  0.59099  0.81000  Biso   1.000  C
  C192     1.0000 0.99901  0.34399  0.80699  Biso   1.000  C
  C193     1.0000 0.97701  0.39998  0.84599  Biso   1.000  C
  C194     1.0000 0.17299  0.63399  0.80099  Biso   1.000  C
  C195     1.0000 0.19801  0.56502  0.83401  Biso   1.000  C
  C196     1.0000 0.93498  0.36298  0.79499  Biso   1.000  C
  C197     1.0000 0.91298  0.42000  0.83401  Biso   1.000  C
  C198     1.0000 0.11198  0.65000  0.81500  Biso   1.000  C
  C199     1.0000 0.13601  0.58201  0.84900  Biso   1.000  C
  C200     1.0000 0.23302  0.53900  0.84200  Biso   1.000  C
  O43      1.0000 0.91402  0.35200  0.76699  Biso   1.000  O
  C201     1.0000 0.89202  0.40100  0.80900  Biso   1.000  C
  C202     1.0000 0.86602  0.46700  0.84599  Biso   1.000  C
  O44      1.0000 0.07297  0.68798  0.80501  Biso   1.000  O
  C203     1.0000 0.09300  0.62399  0.83901  Biso   1.000  C
  C204     1.0000 0.87403  0.29498  0.76500  Biso   1.000  C
  O45      1.0000 0.82498  0.41301  0.79900  Biso   1.000  O
  C205     1.0000 0.88999  0.52201  0.83401  Biso   1.000  C
  C206     1.0000 0.01701  0.67402  0.78999  Biso   1.000  C
  C207     1.0000 0.01898  0.63902  0.85300  Biso   1.000  C
  C208     1.0000 0.79200  0.31202  0.76699  Biso   1.000  C
  C209     1.0000 0.84698  0.45700  0.78200  Biso   1.000  C
  C210     1.0000 0.85998  0.54398  0.81101  Biso   1.000  C
  C211     1.0000 0.94398  0.55101  0.84900  Biso   1.000  C
  O46      1.0000 0.95100  0.67002  0.80699  Biso   1.000  O
  C212     1.0000 0.01898  0.62399  0.88200  Biso   1.000  C
  C213     1.0000 0.96703  0.60100  0.83999  Biso   1.000  C
  C214     1.0000 0.75398  0.29699  0.78999  Biso   1.000  C
  C215     1.0000 0.75502  0.33901  0.74600  Biso   1.000  C
  O47      1.0000 0.80802  0.51099  0.79900  Biso   1.000  O
  C216     1.0000 0.88401  0.59499  0.80200  Biso   1.000  C
  C217     1.0000 0.93701  0.62399  0.81600  Biso   1.000  C
  C218     1.0000 0.07802  0.66099  0.89501  Biso   1.000  C
  C219     1.0000 0.68002  0.30801  0.79300  Biso   1.000  C
  C220     1.0000 0.68002  0.35000  0.74901  Biso   1.000  C
  O48      1.0000 0.85400  0.59802  0.77899  Biso   1.000  O
  C221     1.0000 0.07199  0.65401  0.92999  Biso   1.000  C
  C222     1.0000 0.64298  0.33399  0.77201  Biso   1.000  C
  C223     1.0000 0.80802  0.64298  0.78301  Biso   1.000  C
  C224     1.0000 0.02502  0.66899  0.95101  Biso   1.000  C
  C225     1.0000 0.13700  0.62599  0.93501  Biso   1.000  C
  C226     1.0000 0.04302  0.65499  0.97700  Biso   1.000  C
  C227     1.0000 0.15500  0.61198  0.96200  Biso   1.000  C
  C228     1.0000 0.10798  0.62701  0.98300  Biso   1.000  C
  C229     1.0000 0.40700  0.15401  0.37700  Biso   1.000  C
  C230     1.0000 0.40799  0.15000  0.34501  Biso   1.000  C
  C231     1.0000 0.34500  0.12199  0.33200  Biso   1.000  C
  C232     1.0000 0.47997  0.13800  0.33200  Biso   1.000  C
  C233     1.0000 0.31098  0.13502  0.30699  Biso   1.000  C
  C234     1.0000 0.32701  0.07400  0.34501  Biso   1.000  C
  C235     1.0000 0.50099  0.15601  0.30699  Biso   1.000  C
  C236     1.0000 0.52299  0.10002  0.34599  Biso   1.000  C
  C237     1.0000 0.26001  0.10002  0.29599  Biso   1.000  C
  O49      1.0000 0.33002  0.18198  0.29200  Biso   1.000  O
  C238     1.0000 0.27499  0.03798  0.33301  Biso   1.000  C
  O50      1.0000 0.46099  0.19999  0.29100  Biso   1.000  O
  C239     1.0000 0.56502  0.13702  0.29499  Biso   1.000  C
  C240     1.0000 0.58702  0.08000  0.33401  Biso   1.000  C
  O51      1.0000 0.22501  0.10998  0.27100  Biso   1.000  O
  C241     1.0000 0.24202  0.05101  0.30900  Biso   1.000  C
  C242     1.0000 0.39597  0.18100  0.27701  Biso   1.000  C
  O52      1.0000 0.58598  0.14800  0.26699  Biso   1.000  O
  C243     1.0000 0.60798  0.09900  0.30900  Biso   1.000  C
  C244     1.0000 0.63398  0.03300  0.34599  Biso   1.000  C
  C245     1.0000 0.17502  0.15401  0.27500  Biso   1.000  C
  O53      1.0000 0.17898  0.01601  0.29700  Biso   1.000  O
  C246     1.0000 0.62597  0.20502  0.26500  Biso   1.000  C
  O54      1.0000 0.67502  0.08699  0.29900  Biso   1.000  O
  C247     1.0000 0.61001  0.97799  0.33401  Biso   1.000  C
  C248     1.0000 0.14403  0.16899  0.24301  Biso   1.000  C
  C249     1.0000 0.20301  0.96700  0.28600  Biso   1.000  C
  C250     1.0000 0.70800  0.18798  0.26699  Biso   1.000  C
  C251     1.0000 0.65302  0.04300  0.28200  Biso   1.000  C
  C252     1.0000 0.64002  0.95602  0.31101  Biso   1.000  C
  C253     1.0000 0.55602  0.94899  0.34900  Biso   1.000  C
  C254     1.0000 0.18199  0.19301  0.22101  Biso   1.000  C
  C255     1.0000 0.06902  0.15899  0.23999  Biso   1.000  C
  O55      1.0000 0.20899  0.92200  0.30300  Biso   1.000  O
  C256     1.0000 0.74602  0.20301  0.28999  Biso   1.000  C
  C257     1.0000 0.74498  0.16099  0.24600  Biso   1.000  C
  O56      1.0000 0.69198  0.98901  0.29900  Biso   1.000  O
  C258     1.0000 0.61599  0.90501  0.30200  Biso   1.000  C
  C259     1.0000 0.53297  0.89900  0.33999  Biso   1.000  C
  C260     1.0000 0.26901  0.20101  0.22299  Biso   1.000  C
  C261     1.0000 0.14501  0.20600  0.19800  Biso   1.000  C
  C262     1.0000 0.03199  0.17202  0.21699  Biso   1.000  C
  C263     1.0000 0.28300  0.90901  0.31000  Biso   1.000  C
  C264     1.0000 0.81998  0.19199  0.29300  Biso   1.000  C
  C265     1.0000 0.81998  0.15000  0.24901  Biso   1.000  C
  C266     1.0000 0.56299  0.87601  0.31600  Biso   1.000  C
  O57      1.0000 0.64600  0.90198  0.27899  Biso   1.000  O
  C267     1.0000 0.48102  0.86098  0.35300  Biso   1.000  C
  O58      1.0000 0.31098  0.15000  0.22400  Biso   1.000  O
  C268     1.0000 0.07001  0.19599  0.19499  Biso   1.000  C
  C269     1.0000 0.30199  0.93498  0.33401  Biso   1.000  C
  C270     1.0000 0.32701  0.86601  0.30099  Biso   1.000  C
  C271     1.0000 0.85702  0.16601  0.27201  Biso   1.000  C
  O59      1.0000 0.54900  0.82998  0.30699  Biso   1.000  O
  C272     1.0000 0.69198  0.85702  0.28301  Biso   1.000  C
  C273     1.0000 0.40700  0.87601  0.33901  Biso   1.000  C
  C274     1.0000 0.48102  0.87601  0.38200  Biso   1.000  C
  C275     1.0000 0.32701  0.13399  0.19901  Biso   1.000  C
  C276     1.0000 0.36399  0.91799  0.34900  Biso   1.000  C
  C277     1.0000 0.26698  0.96100  0.34200  Biso   1.000  C
  C278     1.0000 0.38802  0.85000  0.31500  Biso   1.000  C
  O60      1.0000 0.31098  0.85000  0.27600  Biso   1.000  O
  C279     1.0000 0.48299  0.82598  0.28999  Biso   1.000  C
  C280     1.0000 0.42198  0.83901  0.39501  Biso   1.000  C
  C281     1.0000 0.38802  0.15000  0.18500  Biso   1.000  C
  C282     1.0000 0.28300  0.09099  0.19000  Biso   1.000  C
  O61      1.0000 0.42703  0.81202  0.30501  Biso   1.000  O
  C283     1.0000 0.26901  0.79899  0.27701  Biso   1.000  C
  C284     1.0000 0.42801  0.84599  0.42999  Biso   1.000  C
  O62      1.0000 0.42703  0.18798  0.19499  Biso   1.000  O
  C285     1.0000 0.40700  0.12399  0.16099  Biso   1.000  C
  C286     1.0000 0.30199  0.06502  0.16599  Biso   1.000  C
  O63      1.0000 0.20899  0.07800  0.19700  Biso   1.000  O
  C287     1.0000 0.18199  0.80699  0.27899  Biso   1.000  C
  C288     1.0000 0.47498  0.83101  0.45101  Biso   1.000  C
  C289     1.0000 0.36300  0.87401  0.43501  Biso   1.000  C
  C290     1.0000 0.48299  0.17402  0.21001  Biso   1.000  C
  C291     1.0000 0.48102  0.13902  0.14700  Biso   1.000  C
  C292     1.0000 0.36399  0.08201  0.15100  Biso   1.000  C
  C293     1.0000 0.26698  0.03900  0.15800  Biso   1.000  C
  C294     1.0000 0.20301  0.03300  0.21400  Biso   1.000  C
  C295     1.0000 0.14403  0.83101  0.25699  Biso   1.000  C
  C296     1.0000 0.14501  0.79400  0.30200  Biso   1.000  C
  C297     1.0000 0.45698  0.84501  0.47700  Biso   1.000  C
  C298     1.0000 0.34500  0.88802  0.46200  Biso   1.000  C
  O64      1.0000 0.54900  0.17002  0.19301  Biso   1.000  O
  C299     1.0000 0.53297  0.10100  0.16001  Biso   1.000  C
  C300     1.0000 0.48102  0.12399  0.11800  Biso   1.000  C
  O65      1.0000 0.17898  0.98399  0.20300  Biso   1.000  O
  C301     1.0000 0.17502  0.84599  0.22500  Biso   1.000  C
  C302     1.0000 0.06902  0.84101  0.26001  Biso   1.000  C
  C303     1.0000 0.07001  0.80401  0.30501  Biso   1.000  C
  C304     1.0000 0.39202  0.87299  0.48300  Biso   1.000  C
  C305     1.0000 0.56299  0.12399  0.18400  Biso   1.000  C
  C306     1.0000 0.55602  0.05101  0.15100  Biso   1.000  C
  C307     1.0000 0.42198  0.16099  0.10499  Biso   1.000  C
  C308     1.0000 0.24202  0.94899  0.19100  Biso   1.000  C
  O66      1.0000 0.22501  0.89002  0.22900  Biso   1.000  O
  C309     1.0000 0.03199  0.82798  0.28301  Biso   1.000  C
  C310     1.0000 0.61599  0.09499  0.19800  Biso   1.000  C
  C311     1.0000 0.61001  0.02201  0.16599  Biso   1.000  C
  C312     1.0000 0.42801  0.15401  0.07001  Biso   1.000  C
  C313     1.0000 0.27499  0.96202  0.16699  Biso   1.000  C
  C314     1.0000 0.26001  0.89998  0.20401  Biso   1.000  C
  O67      1.0000 0.64600  0.09802  0.22101  Biso   1.000  O
  C315     1.0000 0.64002  0.04398  0.18899  Biso   1.000  C
  C316     1.0000 0.63398  0.96700  0.15401  Biso   1.000  C
  C317     1.0000 0.47498  0.16899  0.04899  Biso   1.000  C
  C318     1.0000 0.36300  0.12599  0.06499  Biso   1.000  C
  C319     1.0000 0.32701  0.92600  0.15499  Biso   1.000  C
  C320     1.0000 0.31098  0.86498  0.19301  Biso   1.000  C
  C321     1.0000 0.69198  0.14298  0.21699  Biso   1.000  C
  O68      1.0000 0.69198  0.01099  0.20100  Biso   1.000  O
  C322     1.0000 0.58702  0.92000  0.16599  Biso   1.000  C
  C323     1.0000 0.45698  0.15499  0.02300  Biso   1.000  C
  C324     1.0000 0.34500  0.11198  0.03800  Biso   1.000  C
  C325     1.0000 0.34500  0.87801  0.16800  Biso   1.000  C
  O69      1.0000 0.33002  0.81802  0.20800  Biso   1.000  O
  C326     1.0000 0.65302  0.95700  0.21800  Biso   1.000  C
  C327     1.0000 0.52299  0.89998  0.15401  Biso   1.000  C
  C328     1.0000 0.60798  0.90100  0.19100  Biso   1.000  C
  C329     1.0000 0.39202  0.12701  0.01700  Biso   1.000  C
  C330     1.0000 0.40799  0.85000  0.15499  Biso   1.000  C
  C331     1.0000 0.39597  0.81900  0.22299  Biso   1.000  C
  O70      1.0000 0.67502  0.91301  0.20100  Biso   1.000  O
  C332     1.0000 0.47997  0.86200  0.16800  Biso   1.000  C
  C333     1.0000 0.56502  0.86298  0.20501  Biso   1.000  C
  C334     1.0000 0.40700  0.84599  0.12300  Biso   1.000  C
  O71      1.0000 0.46099  0.80001  0.20900  Biso   1.000  O
  C335     1.0000 0.50099  0.84399  0.19301  Biso   1.000  C
  O72      1.0000 0.58598  0.85200  0.23301  Biso   1.000  O
  C336     1.0000 0.62597  0.79498  0.23500  Biso   1.000  C
  C337     1.0000 0.70800  0.81202  0.23301  Biso   1.000  C
  C338     1.0000 0.74602  0.79699  0.21001  Biso   1.000  C
  C339     1.0000 0.74498  0.83901  0.25400  Biso   1.000  C
  C340     1.0000 0.81998  0.80801  0.20700  Biso   1.000  C
  C341     1.0000 0.81998  0.85000  0.25099  Biso   1.000  C
  C342     1.0000 0.85702  0.83399  0.22799  Biso   1.000  C
  C343     1.0000 0.90700  0.34599  0.37700  Biso   1.000  C
  C344     1.0000 0.90799  0.35000  0.34501  Biso   1.000  C
  C345     1.0000 0.84500  0.37801  0.33200  Biso   1.000  C
  C346     1.0000 0.97997  0.36200  0.33200  Biso   1.000  C
  C347     1.0000 0.81098  0.36498  0.30699  Biso   1.000  C
  C348     1.0000 0.82701  0.42600  0.34501  Biso   1.000  C
  C349     1.0000 0.00099  0.34399  0.30699  Biso   1.000  C
  C350     1.0000 0.02299  0.39998  0.34599  Biso   1.000  C
  C351     1.0000 0.76001  0.39998  0.29599  Biso   1.000  C
  O73      1.0000 0.83002  0.31802  0.29200  Biso   1.000  O
  C352     1.0000 0.77499  0.46202  0.33301  Biso   1.000  C
  O74      1.0000 0.96099  0.30001  0.29100  Biso   1.000  O
  C353     1.0000 0.06502  0.36298  0.29499  Biso   1.000  C
  C354     1.0000 0.08702  0.42000  0.33401  Biso   1.000  C
  O75      1.0000 0.72501  0.39002  0.27100  Biso   1.000  O
  C355     1.0000 0.74202  0.44899  0.30900  Biso   1.000  C
  C356     1.0000 0.89597  0.31900  0.27701  Biso   1.000  C
  O76      1.0000 0.08598  0.35200  0.26699  Biso   1.000  O
  C357     1.0000 0.10798  0.40100  0.30900  Biso   1.000  C
  C358     1.0000 0.13398  0.46700  0.34599  Biso   1.000  C
  C359     1.0000 0.67502  0.34599  0.27500  Biso   1.000  C
  O77      1.0000 0.67898  0.48399  0.29700  Biso   1.000  O
  C360     1.0000 0.12597  0.29498  0.26500  Biso   1.000  C
  O78      1.0000 0.17502  0.41301  0.29900  Biso   1.000  O
  C361     1.0000 0.11001  0.52201  0.33401  Biso   1.000  C
  C362     1.0000 0.64403  0.33101  0.24301  Biso   1.000  C
  C363     1.0000 0.70301  0.53300  0.28600  Biso   1.000  C
  C364     1.0000 0.20800  0.31202  0.26699  Biso   1.000  C
  C365     1.0000 0.15302  0.45700  0.28200  Biso   1.000  C
  C366     1.0000 0.14002  0.54398  0.31101  Biso   1.000  C
  C367     1.0000 0.05602  0.55101  0.34900  Biso   1.000  C
  C368     1.0000 0.56902  0.34101  0.23999  Biso   1.000  C
  C369     1.0000 0.68199  0.30699  0.22101  Biso   1.000  C
  O79      1.0000 0.70899  0.57800  0.30300  Biso   1.000  O
  C370     1.0000 0.24602  0.29699  0.28999  Biso   1.000  C
  C371     1.0000 0.24498  0.33901  0.24600  Biso   1.000  C
  O80      1.0000 0.19198  0.51099  0.29900  Biso   1.000  O
  C372     1.0000 0.11599  0.59499  0.30200  Biso   1.000  C
  C373     1.0000 0.03297  0.60100  0.33999  Biso   1.000  C
  C374     1.0000 0.53199  0.32798  0.21699  Biso   1.000  C
  C375     1.0000 0.64501  0.29400  0.19800  Biso   1.000  C
  C376     1.0000 0.76901  0.29899  0.22299  Biso   1.000  C
  C377     1.0000 0.78300  0.59099  0.31000  Biso   1.000  C
  C378     1.0000 0.31998  0.30801  0.29300  Biso   1.000  C
  C379     1.0000 0.31998  0.35000  0.24901  Biso   1.000  C
  C380     1.0000 0.06299  0.62399  0.31600  Biso   1.000  C
  O81      1.0000 0.14600  0.59802  0.27899  Biso   1.000  O
  C381     1.0000 0.98102  0.63902  0.35300  Biso   1.000  C
  C382     1.0000 0.57001  0.30401  0.19499  Biso   1.000  C
  O82      1.0000 0.81098  0.35000  0.22400  Biso   1.000  O
  C383     1.0000 0.80199  0.56502  0.33401  Biso   1.000  C
  C384     1.0000 0.82701  0.63399  0.30099  Biso   1.000  C
  C385     1.0000 0.35702  0.33399  0.27201  Biso   1.000  C
  O83      1.0000 0.04900  0.67002  0.30699  Biso   1.000  O
  C386     1.0000 0.19198  0.64298  0.28301  Biso   1.000  C
  C387     1.0000 0.90700  0.62399  0.33901  Biso   1.000  C
  C388     1.0000 0.98102  0.62399  0.38200  Biso   1.000  C
  C389     1.0000 0.82701  0.36601  0.19901  Biso   1.000  C
  C390     1.0000 0.86399  0.58201  0.34900  Biso   1.000  C
  C391     1.0000 0.76698  0.53900  0.34200  Biso   1.000  C
  C392     1.0000 0.88802  0.65000  0.31500  Biso   1.000  C
  O84      1.0000 0.81098  0.65000  0.27600  Biso   1.000  O
  C393     1.0000 0.98299  0.67402  0.28999  Biso   1.000  C
  C394     1.0000 0.92198  0.66099  0.39501  Biso   1.000  C
  C395     1.0000 0.88802  0.35000  0.18500  Biso   1.000  C
  C396     1.0000 0.78300  0.40901  0.19000  Biso   1.000  C
  O85      1.0000 0.92703  0.68798  0.30501  Biso   1.000  O
  C397     1.0000 0.76901  0.70101  0.27701  Biso   1.000  C
  C398     1.0000 0.92801  0.65401  0.42999  Biso   1.000  C
  O86      1.0000 0.92703  0.31202  0.19499  Biso   1.000  O
  C399     1.0000 0.90700  0.37601  0.16099  Biso   1.000  C
  C400     1.0000 0.80199  0.43498  0.16599  Biso   1.000  C
  O87      1.0000 0.70899  0.42200  0.19700  Biso   1.000  O
  C401     1.0000 0.68199  0.69301  0.27899  Biso   1.000  C
  C402     1.0000 0.97498  0.66899  0.45101  Biso   1.000  C
  C403     1.0000 0.86300  0.62599  0.43501  Biso   1.000  C
  C404     1.0000 0.98299  0.32598  0.21001  Biso   1.000  C
  C405     1.0000 0.98102  0.36098  0.14700  Biso   1.000  C
  C406     1.0000 0.86399  0.41799  0.15100  Biso   1.000  C
  C407     1.0000 0.76698  0.46100  0.15800  Biso   1.000  C
  C408     1.0000 0.70301  0.46700  0.21400  Biso   1.000  C
  C409     1.0000 0.64403  0.66899  0.25699  Biso   1.000  C
  C410     1.0000 0.64501  0.70600  0.30200  Biso   1.000  C
  C411     1.0000 0.95698  0.65499  0.47700  Biso   1.000  C
  C412     1.0000 0.84500  0.61198  0.46200  Biso   1.000  C
  O88      1.0000 0.04900  0.32998  0.19301  Biso   1.000  O
  C413     1.0000 0.98102  0.37601  0.11800  Biso   1.000  C
  C414     1.0000 0.03297  0.39900  0.16001  Biso   1.000  C
  O89      1.0000 0.67898  0.51601  0.20300  Biso   1.000  O
  C415     1.0000 0.67502  0.65401  0.22500  Biso   1.000  C
  C416     1.0000 0.56902  0.65899  0.26001  Biso   1.000  C
  C417     1.0000 0.57001  0.69599  0.30501  Biso   1.000  C
  C418     1.0000 0.89202  0.62701  0.48300  Biso   1.000  C
  C419     1.0000 0.06299  0.37601  0.18400  Biso   1.000  C
  C420     1.0000 0.92198  0.33901  0.10499  Biso   1.000  C
  C421     1.0000 0.05602  0.44899  0.15100  Biso   1.000  C
  C422     1.0000 0.74202  0.55101  0.19100  Biso   1.000  C
  O90      1.0000 0.72501  0.60998  0.22900  Biso   1.000  O
  C423     1.0000 0.53199  0.67202  0.28301  Biso   1.000  C
  C424     1.0000 0.11599  0.40501  0.19800  Biso   1.000  C
  C425     1.0000 0.92801  0.34599  0.07001  Biso   1.000  C
  C426     1.0000 0.11001  0.47799  0.16599  Biso   1.000  C
  C427     1.0000 0.77499  0.53798  0.16699  Biso   1.000  C
  C428     1.0000 0.76001  0.60002  0.20401  Biso   1.000  C
  O91      1.0000 0.14600  0.40198  0.22101  Biso   1.000  O
  C429     1.0000 0.14002  0.45602  0.18899  Biso   1.000  C
  C430     1.0000 0.97498  0.33101  0.04899  Biso   1.000  C
  C431     1.0000 0.86300  0.37401  0.06499  Biso   1.000  C
  C432     1.0000 0.13398  0.53300  0.15401  Biso   1.000  C
  C433     1.0000 0.82701  0.57400  0.15499  Biso   1.000  C
  C434     1.0000 0.81098  0.63502  0.19301  Biso   1.000  C
  C435     1.0000 0.19198  0.35702  0.21699  Biso   1.000  C
  O92      1.0000 0.19198  0.48901  0.20100  Biso   1.000  O
  C436     1.0000 0.95698  0.34501  0.02300  Biso   1.000  C
  C437     1.0000 0.84500  0.38802  0.03800  Biso   1.000  C
  C438     1.0000 0.08702  0.58000  0.16599  Biso   1.000  C
  C439     1.0000 0.84500  0.62199  0.16800  Biso   1.000  C
  O93      1.0000 0.83002  0.68198  0.20800  Biso   1.000  O
  C440     1.0000 0.15302  0.54300  0.21800  Biso   1.000  C
  C441     1.0000 0.89202  0.37299  0.01700  Biso   1.000  C
  C442     1.0000 0.02299  0.60002  0.15401  Biso   1.000  C
  C443     1.0000 0.10798  0.59900  0.19100  Biso   1.000  C
  C444     1.0000 0.90799  0.65000  0.15499  Biso   1.000  C
  C445     1.0000 0.89597  0.68100  0.22299  Biso   1.000  C
  O94      1.0000 0.17502  0.58699  0.20100  Biso   1.000  O
  C446     1.0000 0.97997  0.63800  0.16800  Biso   1.000  C
  C447     1.0000 0.06502  0.63702  0.20501  Biso   1.000  C
  C448     1.0000 0.90700  0.65401  0.12300  Biso   1.000  C
  O95      1.0000 0.96099  0.69999  0.20900  Biso   1.000  O
  C449     1.0000 0.00099  0.65601  0.19301  Biso   1.000  C
  O96      1.0000 0.08598  0.64800  0.23301  Biso   1.000  O
  C450     1.0000 0.12597  0.70502  0.23500  Biso   1.000  C
  C451     1.0000 0.20800  0.68798  0.23301  Biso   1.000  C
  C452     1.0000 0.24602  0.70301  0.21001  Biso   1.000  C
  C453     1.0000 0.24498  0.66099  0.25400  Biso   1.000  C
  C454     1.0000 0.31998  0.69199  0.20700  Biso   1.000  C
  C455     1.0000 0.31998  0.65000  0.25099  Biso   1.000  C
  C456     1.0000 0.35702  0.66601  0.22799  Biso   1.000  C
