data_image0
_cell_length_a       23.028
_cell_length_b       23.028
_cell_length_c       19.626
_cell_angle_alpha    90
_cell_angle_beta     90
_cell_angle_gamma    120

_symmetry_space_group_name_H-M    "P 1"
_symmetry_int_tables_number       1

loop_
  _symmetry_equiv_pos_as_xyz
  'x, y, z'

loop_
  _atom_site_label
  _atom_site_occupancy
  _atom_site_fract_x
  _atom_site_fract_y
  _atom_site_fract_z
  _atom_site_thermal_displace_type
  _atom_site_B_iso_or_equiv
  _atom_site_type_symbol
  C1       1.0000 0.50922  0.47110  0.40278  Biso   1.000  C
  C2       1.0000 0.44740  0.41729  0.42581  Biso   1.000  C
  C3       1.0000 0.50119  0.51532  0.36299  Biso   1.000  C
  Br1      1.0000 0.59012  0.47310  0.41842  Biso   1.000  Br
  C4       1.0000 0.39431  0.42542  0.40900  Biso   1.000  C
  Br2      1.0000 0.44061  0.34509  0.47549  Biso   1.000  Br
  S1       1.0000 0.41802  0.49532  0.36227  Biso   1.000  S
  C5       1.0000 0.54538  0.57269  0.32498  Biso   1.000  C
  C6       1.0000 0.32329  0.38620  0.42821  Biso   1.000  C
  C7       1.0000 0.58911  0.57991  0.27341  Biso   1.000  C
  S2       1.0000 0.54440  0.64690  0.33710  Biso   1.000  S
  C8       1.0000 0.27111  0.36660  0.38148  Biso   1.000  C
  C9       1.0000 0.30929  0.36880  0.49771  Biso   1.000  C
  Br3      1.0000 0.60258  0.51071  0.24238  Biso   1.000  Br
  C10      1.0000 0.62390  0.64550  0.24722  Biso   1.000  C
  C11      1.0000 0.60180  0.68641  0.27290  Biso   1.000  C
  C12      1.0000 0.27889  0.36359  0.30781  Biso   1.000  C
  C13      1.0000 0.20558  0.34820  0.40691  Biso   1.000  C
  H1       1.0000 0.34382  0.37342  0.52762  Biso   1.000  H
  C14      1.0000 0.24519  0.34509  0.52150  Biso   1.000  C
  Br4      1.0000 0.68719  0.67002  0.17788  Biso   1.000  Br
  C15      1.0000 0.61359  0.75541  0.25048  Biso   1.000  C
  C16      1.0000 0.32549  0.35491  0.27372  Biso   1.000  C
  C17      1.0000 0.22940  0.36439  0.26562  Biso   1.000  C
  C18      1.0000 0.19148  0.32789  0.47692  Biso   1.000  C
  C19      1.0000 0.15232  0.33521  0.36222  Biso   1.000  C
  C20      1.0000 0.23141  0.33029  0.59472  Biso   1.000  C
  C21      1.0000 0.63809  0.80961  0.29181  Biso   1.000  C
  C22      1.0000 0.59739  0.75150  0.18338  Biso   1.000  C
  H2       1.0000 0.35523  0.34759  0.30118  Biso   1.000  H
  C23      1.0000 0.33490  0.35532  0.20488  Biso   1.000  C
  C24      1.0000 0.17148  0.36188  0.29181  Biso   1.000  C
  C25      1.0000 0.24211  0.37582  0.19770  Biso   1.000  C
  C26      1.0000 0.12452  0.30071  0.49918  Biso   1.000  C
  C27      1.0000 0.08719  0.30979  0.38719  Biso   1.000  C
  O1       1.0000 0.27700  0.34348  0.63462  Biso   1.000  O
  N1       1.0000 0.16451  0.30261  0.61602  Biso   1.000  N
  C28      1.0000 0.66480  0.81709  0.36222  Biso   1.000  C
  C29      1.0000 0.63561  0.86502  0.26562  Biso   1.000  C
  H3       1.0000 0.57817  0.71063  0.15877  Biso   1.000  H
  C30      1.0000 0.61110  0.81182  0.15352  Biso   1.000  C
  H4       1.0000 0.36767  0.34659  0.18572  Biso   1.000  H
  C31      1.0000 0.29398  0.36911  0.16488  Biso   1.000  C
  C32      1.0000 0.14179  0.38640  0.25048  Biso   1.000  C
  C33      1.0000 0.20071  0.38891  0.15352  Biso   1.000  C
  C34      1.0000 0.07541  0.29439  0.45659  Biso   1.000  C
  C35      1.0000 0.11019  0.28291  0.57220  Biso   1.000  C
  H5       1.0000 0.05169  0.30322  0.35764  Biso   1.000  H
  C36      1.0000 0.14803  0.28772  0.68980  Biso   1.000  C
  C37      1.0000 0.65182  0.85740  0.40691  Biso   1.000  C
  C38      1.0000 0.69021  0.77742  0.38719  Biso   1.000  C
  C39      1.0000 0.62417  0.86628  0.19770  Biso   1.000  C
  C40      1.0000 0.63640  0.91532  0.30781  Biso   1.000  C
  C41      1.0000 0.59501  0.81222  0.08112  Biso   1.000  C
  C42      1.0000 0.30008  0.36870  0.09070  Biso   1.000  C
  C43      1.0000 0.15410  0.40260  0.18338  Biso   1.000  C
  C44      1.0000 0.08458  0.39819  0.27290  Biso   1.000  C
  C45      1.0000 0.21723  0.40501  0.08112  Biso   1.000  C
  H6       1.0000 0.03167  0.27900  0.47432  Biso   1.000  H
  O2       1.0000 0.05389  0.26410  0.59431  Biso   1.000  O
  H7       1.0000 0.19366  0.29760  0.70534  Biso   1.000  H
  C46      1.0000 0.11130  0.21130  0.70198  Biso   1.000  C
  C47      1.0000 0.14400  0.33932  0.73092  Biso   1.000  C
  C48      1.0000 0.63341  0.90449  0.38148  Biso   1.000  C
  C49      1.0000 0.67213  0.86362  0.47692  Biso   1.000  C
  H8       1.0000 0.69681  0.74849  0.35764  Biso   1.000  H
  C50      1.0000 0.70559  0.78098  0.45659  Biso   1.000  C
  C51      1.0000 0.63089  0.92489  0.16488  Biso   1.000  C
  C52      1.0000 0.64512  0.97062  0.27372  Biso   1.000  C
  O3       1.0000 0.58701  0.76539  0.04280  Biso   1.000  O
  N2       1.0000 0.61330  0.87460  0.05090  Biso   1.000  N
  O4       1.0000 0.34169  0.35752  0.06328  Biso   1.000  O
  N3       1.0000 0.26131  0.38671  0.05090  Biso   1.000  N
  H9       1.0000 0.13243  0.42181  0.15877  Biso   1.000  H
  C53      1.0000 0.02159  0.37607  0.24722  Biso   1.000  C
  S3       1.0000 0.10252  0.45560  0.33710  Biso   1.000  S
  O5       1.0000 0.17839  0.41298  0.04280  Biso   1.000  O
  H10      1.0000 0.09497  0.20228  0.74987  Biso   1.000  H
  H11      1.0000 0.07168  0.18964  0.67191  Biso   1.000  H
  C54      1.0000 0.15469  0.18032  0.69000  Biso   1.000  C
  H12      1.0000 0.16238  0.33952  0.77667  Biso   1.000  H
  H13      1.0000 0.09622  0.32488  0.73683  Biso   1.000  H
  C55      1.0000 0.17897  0.41118  0.70519  Biso   1.000  C
  C56      1.0000 0.61380  0.93708  0.42821  Biso   1.000  C
  C57      1.0000 0.65490  0.90012  0.52150  Biso   1.000  C
  C58      1.0000 0.69929  0.82380  0.49918  Biso   1.000  C
  H14      1.0000 0.72102  0.75270  0.47432  Biso   1.000  H
  C59      1.0000 0.64470  0.97960  0.20488  Biso   1.000  C
  C60      1.0000 0.63129  0.93141  0.09070  Biso   1.000  C
  H15      1.0000 0.65242  0.00763  0.30118  Biso   1.000  H
  C61      1.0000 0.61451  0.88518  0.97279  Biso   1.000  C
  C62      1.0000 0.27070  0.38550  0.97279  Biso   1.000  C
  C63      1.0000 0.99081  0.41092  0.27341  Biso   1.000  C
  Br5      1.0000 0.98278  0.31279  0.17788  Biso   1.000  Br
  C64      1.0000 0.02728  0.45460  0.32498  Biso   1.000  C
  H16      1.0000 0.19824  0.20774  0.71314  Biso   1.000  H
  H17      1.0000 0.16386  0.18182  0.64032  Biso   1.000  H
  C65      1.0000 0.12401  0.10741  0.71400  Biso   1.000  C
  H18      1.0000 0.16127  0.41278  0.65989  Biso   1.000  H
  H19      1.0000 0.22789  0.42747  0.69994  Biso   1.000  H
  C66      1.0000 0.16899  0.45741  0.75502  Biso   1.000  C
  C67      1.0000 0.63118  0.94049  0.49771  Biso   1.000  C
  C68      1.0000 0.57461  0.96892  0.40900  Biso   1.000  C
  C69      1.0000 0.66971  0.90108  0.59472  Biso   1.000  C
  C70      1.0000 0.71711  0.82731  0.57220  Biso   1.000  C
  H20      1.0000 0.65340  0.02107  0.18572  Biso   1.000  H
  O6       1.0000 0.64249  0.98421  0.06328  Biso   1.000  O
  H21      1.0000 0.63056  0.93327  0.96173  Biso   1.000  H
  C71      1.0000 0.65999  0.86201  0.94018  Biso   1.000  C
  C72      1.0000 0.54398  0.84000  0.94400  Biso   1.000  C
  H22      1.0000 0.30269  0.36941  0.96173  Biso   1.000  H
  C73      1.0000 0.20202  0.34002  0.94018  Biso   1.000  C
  C74      1.0000 0.29601  0.45600  0.94400  Biso   1.000  C
  Br6      1.0000 0.90809  0.39739  0.24238  Biso   1.000  Br
  C75      1.0000 0.01411  0.49878  0.36299  Biso   1.000  C
  H23      1.0000 0.11428  0.07752  0.67446  Biso   1.000  H
  H24      1.0000 0.08109  0.09392  0.73795  Biso   1.000  H
  C76      1.0000 0.17299  0.09898  0.76399  Biso   1.000  C
  H25      1.0000 0.12391  0.45079  0.74870  Biso   1.000  H
  H26      1.0000 0.17260  0.44422  0.80235  Biso   1.000  H
  C77      1.0000 0.22101  0.53122  0.74498  Biso   1.000  C
  H27      1.0000 0.62660  0.97042  0.52762  Biso   1.000  H
  S4       1.0000 0.50468  0.92269  0.36227  Biso   1.000  S
  C78      1.0000 0.58270  0.03009  0.42581  Biso   1.000  C
  O7       1.0000 0.65653  0.93352  0.63462  Biso   1.000  O
  N4       1.0000 0.69742  0.86191  0.61602  Biso   1.000  N
  O8       1.0000 0.73592  0.78981  0.59431  Biso   1.000  O
  H28      1.0000 0.65337  0.85911  0.89015  Biso   1.000  H
  H29      1.0000 0.64668  0.81638  0.95710  Biso   1.000  H
  C79      1.0000 0.73452  0.91050  0.95700  Biso   1.000  C
  H30      1.0000 0.54361  0.84943  0.89488  Biso   1.000  H
  H31      1.0000 0.53259  0.79221  0.94818  Biso   1.000  H
  C80      1.0000 0.49097  0.84898  0.97998  Biso   1.000  C
  H32      1.0000 0.20572  0.34664  0.89015  Biso   1.000  H
  H33      1.0000 0.16971  0.35331  0.95710  Biso   1.000  H
  C81      1.0000 0.17601  0.26551  0.95700  Biso   1.000  C
  H34      1.0000 0.30580  0.45640  0.89488  Biso   1.000  H
  H35      1.0000 0.25962  0.46739  0.94818  Biso   1.000  H
  C82      1.0000 0.35799  0.50900  0.97998  Biso   1.000  C
  S5       1.0000 0.07731  0.58201  0.36227  Biso   1.000  S
  C83      1.0000 0.96192  0.49080  0.40278  Biso   1.000  C
  H36      1.0000 0.15190  0.05255  0.77851  Biso   1.000  H
  H37      1.0000 0.21473  0.11202  0.73994  Biso   1.000  H
  H38      1.0000 0.18161  0.12837  0.80337  Biso   1.000  H
  H39      1.0000 0.21204  0.55799  0.77815  Biso   1.000  H
  H40      1.0000 0.26591  0.53824  0.75262  Biso   1.000  H
  H41      1.0000 0.21719  0.54486  0.69892  Biso   1.000  H
  C84      1.0000 0.48471  0.98592  0.36299  Biso   1.000  C
  Br7      1.0000 0.65487  0.09548  0.47549  Biso   1.000  Br
  C85      1.0000 0.52892  0.03812  0.40278  Biso   1.000  C
  C86      1.0000 0.71229  0.86031  0.68980  Biso   1.000  C
  H42      1.0000 0.74122  0.91141  0.00662  Biso   1.000  H
  H43      1.0000 0.74707  0.95593  0.94151  Biso   1.000  H
  C87      1.0000 0.77998  0.88799  0.92199  Biso   1.000  C
  H44      1.0000 0.47604  0.81954  0.02104  Biso   1.000  H
  H45      1.0000 0.51122  0.89546  0.99562  Biso   1.000  H
  C88      1.0000 0.42897  0.83198  0.93799  Biso   1.000  C
  H46      1.0000 0.17019  0.25874  0.00662  Biso   1.000  H
  H47      1.0000 0.20884  0.25292  0.94151  Biso   1.000  H
  C89      1.0000 0.10799  0.21998  0.92199  Biso   1.000  C
  H48      1.0000 0.34348  0.52395  0.02104  Biso   1.000  H
  H49      1.0000 0.38427  0.48880  0.99562  Biso   1.000  H
  C90      1.0000 0.40300  0.57098  0.93799  Biso   1.000  C
  C91      1.0000 0.03108  0.60568  0.40900  Biso   1.000  C
  C92      1.0000 0.96988  0.55258  0.42581  Biso   1.000  C
  Br8      1.0000 0.88300  0.40992  0.41842  Biso   1.000  Br
  C93      1.0000 0.42728  0.97268  0.32498  Biso   1.000  C
  Br9      1.0000 0.52688  0.11699  0.41842  Biso   1.000  Br
  H50      1.0000 0.70242  0.89606  0.70534  Biso   1.000  H
  C94      1.0000 0.78873  0.90002  0.70198  Biso   1.000  C
  C95      1.0000 0.66069  0.80470  0.73092  Biso   1.000  C
  H51      1.0000 0.76379  0.87300  0.87466  Biso   1.000  H
  H52      1.0000 0.77806  0.84993  0.94675  Biso   1.000  H
  C96      1.0000 0.85302  0.94600  0.91899  Biso   1.000  C
  H53      1.0000 0.39209  0.78645  0.94940  Biso   1.000  H
  H54      1.0000 0.43897  0.83373  0.88918  Biso   1.000  H
  C97      1.0000 0.40597  0.88498  0.95501  Biso   1.000  C
  H55      1.0000 0.10919  0.23618  0.87466  Biso   1.000  H
  H56      1.0000 0.07188  0.22193  0.94675  Biso   1.000  H
  C98      1.0000 0.09301  0.14702  0.91899  Biso   1.000  C
  H57      1.0000 0.39436  0.60789  0.94940  Biso   1.000  H
  H58      1.0000 0.39475  0.56100  0.88918  Biso   1.000  H
  C99      1.0000 0.47899  0.59400  0.95501  Biso   1.000  C
  C100     1.0000 0.06289  0.67668  0.42821  Biso   1.000  C
  Br10     1.0000 0.90450  0.55940  0.47549  Biso   1.000  Br
  S6       1.0000 0.35309  0.89752  0.33710  Biso   1.000  S
  C101     1.0000 0.42009  0.00918  0.27341  Biso   1.000  C
  H59      1.0000 0.79771  0.89270  0.74987  Biso   1.000  H
  H60      1.0000 0.81039  0.88202  0.67191  Biso   1.000  H
  C102     1.0000 0.81970  0.97439  0.69000  Biso   1.000  C
  H61      1.0000 0.66050  0.82290  0.77667  Biso   1.000  H
  H62      1.0000 0.67513  0.77130  0.73683  Biso   1.000  H
  C103     1.0000 0.58878  0.76779  0.70519  Biso   1.000  C
  H63      1.0000 0.88138  0.93091  0.89636  Biso   1.000  H
  H64      1.0000 0.85571  0.98386  0.89336  Biso   1.000  H
  H65      1.0000 0.86992  0.96080  0.96540  Biso   1.000  H
  H66      1.0000 0.39533  0.88272  0.00346  Biso   1.000  H
  H67      1.0000 0.36593  0.87430  0.92790  Biso   1.000  H
  H68      1.0000 0.44211  0.92991  0.94334  Biso   1.000  H
  H69      1.0000 0.04955  0.11864  0.89636  Biso   1.000  H
  H70      1.0000 0.12818  0.14431  0.89336  Biso   1.000  H
  H71      1.0000 0.09087  0.13007  0.96540  Biso   1.000  H
  H72      1.0000 0.48737  0.60468  0.00346  Biso   1.000  H
  H73      1.0000 0.50836  0.63406  0.92790  Biso   1.000  H
  H74      1.0000 0.48778  0.55789  0.94334  Biso   1.000  H
  C104     1.0000 0.09551  0.72888  0.38148  Biso   1.000  C
  C105     1.0000 0.05949  0.69072  0.49771  Biso   1.000  C
  C106     1.0000 0.31362  0.91542  0.27290  Biso   1.000  C
  C107     1.0000 0.35449  0.97840  0.24722  Biso   1.000  C
  Br11     1.0000 0.48929  0.09192  0.24238  Biso   1.000  Br
  H75      1.0000 0.79223  0.99048  0.71314  Biso   1.000  H
  H76      1.0000 0.81820  0.98206  0.64032  Biso   1.000  H
  C108     1.0000 0.89262  0.01661  0.71400  Biso   1.000  C
  H77      1.0000 0.58725  0.74849  0.65989  Biso   1.000  H
  H78      1.0000 0.57253  0.80044  0.69994  Biso   1.000  H
  C109     1.0000 0.54261  0.71158  0.75502  Biso   1.000  C
  C110     1.0000 0.14261  0.79442  0.40691  Biso   1.000  C
  C111     1.0000 0.08472  0.72111  0.30781  Biso   1.000  C
  H79      1.0000 0.02958  0.65618  0.52762  Biso   1.000  H
  C112     1.0000 0.09992  0.75481  0.52150  Biso   1.000  C
  C113     1.0000 0.24459  0.85820  0.25048  Biso   1.000  C
  Br12     1.0000 0.33000  0.01721  0.17788  Biso   1.000  Br
  H80      1.0000 0.90608  0.98717  0.73795  Biso   1.000  H
  H81      1.0000 0.92250  0.03676  0.67446  Biso   1.000  H
  C114     1.0000 0.90100  0.07402  0.76399  Biso   1.000  C
  H82      1.0000 0.54922  0.67312  0.74870  Biso   1.000  H
  H83      1.0000 0.55578  0.72838  0.80235  Biso   1.000  H
  C115     1.0000 0.46880  0.68982  0.74498  Biso   1.000  C
  C116     1.0000 0.13641  0.80851  0.47692  Biso   1.000  C
  C117     1.0000 0.18289  0.84772  0.36222  Biso   1.000  C
  C118     1.0000 0.13500  0.77060  0.26562  Biso   1.000  C
  C119     1.0000 0.02940  0.67448  0.27372  Biso   1.000  C
  C120     1.0000 0.09891  0.76860  0.59472  Biso   1.000  C
  C121     1.0000 0.19040  0.82852  0.29181  Biso   1.000  C
  C122     1.0000 0.24852  0.84592  0.18338  Biso   1.000  C
  H84      1.0000 0.94745  0.09934  0.77851  Biso   1.000  H
  H85      1.0000 0.88798  0.10270  0.73994  Biso   1.000  H
  H86      1.0000 0.87165  0.05326  0.80337  Biso   1.000  H
  H87      1.0000 0.44196  0.65402  0.77815  Biso   1.000  H
  H88      1.0000 0.46176  0.72768  0.75262  Biso   1.000  H
  H89      1.0000 0.45517  0.67237  0.69892  Biso   1.000  H
  C123     1.0000 0.17620  0.87550  0.49918  Biso   1.000  C
  C124     1.0000 0.22260  0.91281  0.38719  Biso   1.000  C
  C125     1.0000 0.13369  0.75792  0.19770  Biso   1.000  C
  C126     1.0000 0.02041  0.66510  0.20488  Biso   1.000  C
  H90      1.0000 0.99234  0.64474  0.30118  Biso   1.000  H
  O9       1.0000 0.06652  0.72302  0.63462  Biso   1.000  O
  N5       1.0000 0.13808  0.83549  0.61602  Biso   1.000  N
  C127     1.0000 0.18820  0.79928  0.15352  Biso   1.000  C
  H91      1.0000 0.28940  0.86758  0.15877  Biso   1.000  H
  C128     1.0000 0.21898  0.92459  0.45659  Biso   1.000  C
  C129     1.0000 0.17271  0.88979  0.57220  Biso   1.000  C
  H92      1.0000 0.25151  0.94831  0.35764  Biso   1.000  H
  C130     1.0000 0.07513  0.70602  0.16488  Biso   1.000  C
  H93      1.0000 0.97894  0.63236  0.18572  Biso   1.000  H
  C131     1.0000 0.13969  0.85199  0.68980  Biso   1.000  C
  C132     1.0000 0.18777  0.78279  0.08112  Biso   1.000  C
  H94      1.0000 0.24732  0.96832  0.47432  Biso   1.000  H
  O10      1.0000 0.21020  0.94610  0.59431  Biso   1.000  O
  C133     1.0000 0.06860  0.69990  0.09070  Biso   1.000  C
  H95      1.0000 0.10393  0.80635  0.70534  Biso   1.000  H
  C134     1.0000 0.09998  0.88869  0.70198  Biso   1.000  C
  C135     1.0000 0.19528  0.85600  0.73092  Biso   1.000  C
  O11      1.0000 0.23458  0.82160  0.04280  Biso   1.000  O
  N6       1.0000 0.12539  0.73871  0.05090  Biso   1.000  N
  O12      1.0000 0.01578  0.65828  0.06328  Biso   1.000  O
  H96      1.0000 0.10733  0.90504  0.74987  Biso   1.000  H
  H97      1.0000 0.11799  0.92835  0.67191  Biso   1.000  H
  C136     1.0000 0.02562  0.84532  0.69000  Biso   1.000  C
  H98      1.0000 0.17709  0.83759  0.77667  Biso   1.000  H
  H99      1.0000 0.22871  0.90383  0.73683  Biso   1.000  H
  C137     1.0000 0.23219  0.82100  0.70519  Biso   1.000  C
  C138     1.0000 0.11477  0.72928  0.97279  Biso   1.000  C
  H100     1.0000 0.00948  0.80174  0.71314  Biso   1.000  H
  H101     1.0000 0.01795  0.83614  0.64032  Biso   1.000  H
  C139     1.0000 0.98338  0.87600  0.71400  Biso   1.000  C
  H102     1.0000 0.25153  0.83875  0.65989  Biso   1.000  H
  H103     1.0000 0.19958  0.77211  0.69994  Biso   1.000  H
  C140     1.0000 0.28838  0.83098  0.75502  Biso   1.000  C
  H104     1.0000 0.06673  0.69729  0.96173  Biso   1.000  H
  C141     1.0000 0.13800  0.79798  0.94018  Biso   1.000  C
  C142     1.0000 0.16002  0.70401  0.94400  Biso   1.000  C
  H105     1.0000 0.01281  0.91888  0.73795  Biso   1.000  H
  H106     1.0000 0.96328  0.88573  0.67446  Biso   1.000  H
  C143     1.0000 0.92601  0.82701  0.76399  Biso   1.000  C
  H107     1.0000 0.32693  0.87610  0.74870  Biso   1.000  H
  H108     1.0000 0.27162  0.82742  0.80235  Biso   1.000  H
  C144     1.0000 0.31019  0.77898  0.74498  Biso   1.000  C
  H109     1.0000 0.14088  0.79427  0.89015  Biso   1.000  H
  H110     1.0000 0.18362  0.83032  0.95710  Biso   1.000  H
  C145     1.0000 0.08948  0.82401  0.95700  Biso   1.000  C
  H111     1.0000 0.15059  0.69418  0.89488  Biso   1.000  H
  H112     1.0000 0.20777  0.74037  0.94818  Biso   1.000  H
  C146     1.0000 0.15098  0.64199  0.97998  Biso   1.000  C
  H113     1.0000 0.90066  0.84812  0.77851  Biso   1.000  H
  H114     1.0000 0.89729  0.78529  0.73994  Biso   1.000  H
  H115     1.0000 0.94676  0.81839  0.80337  Biso   1.000  H
  H116     1.0000 0.34595  0.78795  0.77815  Biso   1.000  H
  H117     1.0000 0.27234  0.73410  0.75262  Biso   1.000  H
  H118     1.0000 0.32765  0.78279  0.69892  Biso   1.000  H
  H119     1.0000 0.08857  0.82982  0.00662  Biso   1.000  H
  H120     1.0000 0.04405  0.79116  0.94151  Biso   1.000  H
  C147     1.0000 0.11202  0.89200  0.92199  Biso   1.000  C
  H121     1.0000 0.18049  0.65653  0.02104  Biso   1.000  H
  H122     1.0000 0.10456  0.61576  0.99562  Biso   1.000  H
  C148     1.0000 0.16801  0.59701  0.93799  Biso   1.000  C
  H123     1.0000 0.12700  0.89080  0.87466  Biso   1.000  H
  H124     1.0000 0.15004  0.92810  0.94675  Biso   1.000  H
  C149     1.0000 0.05398  0.90699  0.91899  Biso   1.000  C
  H125     1.0000 0.21353  0.60563  0.94940  Biso   1.000  H
  H126     1.0000 0.16626  0.60523  0.88918  Biso   1.000  H
  C150     1.0000 0.11498  0.52099  0.95501  Biso   1.000  C
  H127     1.0000 0.06912  0.95047  0.89636  Biso   1.000  H
  H128     1.0000 0.01617  0.87184  0.89336  Biso   1.000  H
  H129     1.0000 0.03919  0.90910  0.96540  Biso   1.000  H
  H130     1.0000 0.11726  0.51262  0.00346  Biso   1.000  H
  H131     1.0000 0.12571  0.49166  0.92790  Biso   1.000  H
  H132     1.0000 0.07012  0.51221  0.94334  Biso   1.000  H
  C151     1.0000 0.49079  0.52891  0.59722  Biso   1.000  C
  C152     1.0000 0.49881  0.48469  0.63701  Biso   1.000  C
  C153     1.0000 0.55260  0.58272  0.57419  Biso   1.000  C
  Br13     1.0000 0.40988  0.52691  0.58158  Biso   1.000  Br
  C154     1.0000 0.45463  0.42732  0.67502  Biso   1.000  C
  S7       1.0000 0.58199  0.50469  0.63773  Biso   1.000  S
  C155     1.0000 0.60569  0.57459  0.59100  Biso   1.000  C
  Br14     1.0000 0.55940  0.65492  0.52451  Biso   1.000  Br
  S8       1.0000 0.45561  0.35311  0.66290  Biso   1.000  S
  C156     1.0000 0.41089  0.42010  0.72659  Biso   1.000  C
  C157     1.0000 0.67671  0.61380  0.57179  Biso   1.000  C
  C158     1.0000 0.39820  0.31360  0.72710  Biso   1.000  C
  C159     1.0000 0.37610  0.35451  0.75278  Biso   1.000  C
  Br15     1.0000 0.39742  0.48930  0.75762  Biso   1.000  Br
  C160     1.0000 0.72890  0.63341  0.61852  Biso   1.000  C
  C161     1.0000 0.69071  0.63120  0.50229  Biso   1.000  C
  C162     1.0000 0.38641  0.24460  0.74952  Biso   1.000  C
  Br16     1.0000 0.31282  0.32999  0.82212  Biso   1.000  Br
  C163     1.0000 0.79442  0.65181  0.59309  Biso   1.000  C
  C164     1.0000 0.72111  0.63642  0.69219  Biso   1.000  C
  H133     1.0000 0.65618  0.62659  0.47238  Biso   1.000  H
  C165     1.0000 0.75481  0.65492  0.47850  Biso   1.000  C
  C166     1.0000 0.36192  0.19039  0.70819  Biso   1.000  C
  C167     1.0000 0.40261  0.24851  0.81662  Biso   1.000  C
  C168     1.0000 0.80853  0.67212  0.52308  Biso   1.000  C
  C169     1.0000 0.84769  0.66480  0.63778  Biso   1.000  C
  C170     1.0000 0.77061  0.63562  0.73438  Biso   1.000  C
  C171     1.0000 0.67451  0.64509  0.72628  Biso   1.000  C
  C172     1.0000 0.76859  0.66971  0.40528  Biso   1.000  C
  C173     1.0000 0.33521  0.18292  0.63778  Biso   1.000  C
  C174     1.0000 0.36439  0.13499  0.73438  Biso   1.000  C
  C175     1.0000 0.38891  0.18819  0.84648  Biso   1.000  C
  H134     1.0000 0.42183  0.28938  0.84123  Biso   1.000  H
  C176     1.0000 0.87549  0.69930  0.50082  Biso   1.000  C
  C177     1.0000 0.91281  0.69022  0.61281  Biso   1.000  C
  C178     1.0000 0.82853  0.63812  0.70819  Biso   1.000  C
  C179     1.0000 0.75790  0.62418  0.80230  Biso   1.000  C
  H135     1.0000 0.64478  0.65241  0.69882  Biso   1.000  H
  C180     1.0000 0.66510  0.64469  0.79512  Biso   1.000  C
  O13      1.0000 0.72298  0.65648  0.36538  Biso   1.000  O
  N7       1.0000 0.83550  0.69739  0.38398  Biso   1.000  N
  C181     1.0000 0.34818  0.14261  0.59309  Biso   1.000  C
  C182     1.0000 0.30979  0.22259  0.61281  Biso   1.000  C
  C183     1.0000 0.36361  0.08469  0.69219  Biso   1.000  C
  C184     1.0000 0.37581  0.13368  0.80230  Biso   1.000  C
  C185     1.0000 0.40499  0.18779  0.91888  Biso   1.000  C
  C186     1.0000 0.92459  0.70562  0.54341  Biso   1.000  C
  C187     1.0000 0.88982  0.71710  0.42780  Biso   1.000  C
  H136     1.0000 0.94832  0.69679  0.64236  Biso   1.000  H
  C188     1.0000 0.85822  0.61360  0.74952  Biso   1.000  C
  C189     1.0000 0.79930  0.61110  0.84648  Biso   1.000  C
  C190     1.0000 0.70602  0.63090  0.83512  Biso   1.000  C
  H137     1.0000 0.63234  0.65342  0.81428  Biso   1.000  H
  C191     1.0000 0.85197  0.71229  0.31020  Biso   1.000  C
  C192     1.0000 0.32788  0.13639  0.52308  Biso   1.000  C
  C193     1.0000 0.36659  0.09552  0.61852  Biso   1.000  C
  C194     1.0000 0.29439  0.21898  0.54341  Biso   1.000  C
  H138     1.0000 0.30320  0.25152  0.64236  Biso   1.000  H
  C195     1.0000 0.35489  0.02938  0.72628  Biso   1.000  C
  C196     1.0000 0.36911  0.07511  0.83512  Biso   1.000  C
  O14      1.0000 0.41299  0.23462  0.95720  Biso   1.000  O
  N8       1.0000 0.38670  0.12541  0.94910  Biso   1.000  N
  H139     1.0000 0.96833  0.72101  0.52568  Biso   1.000  H
  O15      1.0000 0.94612  0.73590  0.40569  Biso   1.000  O
  C197     1.0000 0.84591  0.59741  0.81662  Biso   1.000  C
  C198     1.0000 0.91542  0.60182  0.72710  Biso   1.000  C
  C199     1.0000 0.78278  0.59500  0.91888  Biso   1.000  C
  C200     1.0000 0.69992  0.63130  0.90930  Biso   1.000  C
  H140     1.0000 0.80635  0.70241  0.29466  Biso   1.000  H
  C201     1.0000 0.88871  0.78870  0.29802  Biso   1.000  C
  C202     1.0000 0.85601  0.66069  0.26908  Biso   1.000  C
  C203     1.0000 0.34511  0.09989  0.47850  Biso   1.000  C
  C204     1.0000 0.30071  0.17620  0.50082  Biso   1.000  C
  C205     1.0000 0.38618  0.06288  0.57179  Biso   1.000  C
  H141     1.0000 0.27899  0.24731  0.52568  Biso   1.000  H
  C206     1.0000 0.35531  0.02041  0.79512  Biso   1.000  C
  H142     1.0000 0.34756  0.99233  0.69882  Biso   1.000  H
  C207     1.0000 0.36872  0.06860  0.90930  Biso   1.000  C
  C208     1.0000 0.38547  0.11478  0.02721  Biso   1.000  C
  H143     1.0000 0.86757  0.57820  0.84123  Biso   1.000  H
  S9       1.0000 0.89749  0.54441  0.66290  Biso   1.000  S
  C209     1.0000 0.97839  0.62388  0.75278  Biso   1.000  C
  O16      1.0000 0.82159  0.58698  0.95720  Biso   1.000  O
  N9       1.0000 0.73869  0.61330  0.94910  Biso   1.000  N
  O17      1.0000 0.65831  0.64249  0.93672  Biso   1.000  O
  H144     1.0000 0.90501  0.79768  0.25013  Biso   1.000  H
  H145     1.0000 0.92833  0.81037  0.32809  Biso   1.000  H
  C210     1.0000 0.84532  0.81969  0.31000  Biso   1.000  C
  H146     1.0000 0.83763  0.66049  0.22333  Biso   1.000  H
  H147     1.0000 0.90379  0.67513  0.26317  Biso   1.000  H
  C211     1.0000 0.82101  0.58878  0.29481  Biso   1.000  C
  C212     1.0000 0.33027  0.09888  0.40528  Biso   1.000  C
  C213     1.0000 0.36883  0.05952  0.50229  Biso   1.000  C
  C214     1.0000 0.28289  0.17269  0.42780  Biso   1.000  C
  C215     1.0000 0.42539  0.03109  0.59100  Biso   1.000  C
  H148     1.0000 0.34660  0.97894  0.81428  Biso   1.000  H
  O18      1.0000 0.35752  0.01580  0.93672  Biso   1.000  O
  H149     1.0000 0.36944  0.06674  0.03827  Biso   1.000  H
  C216     1.0000 0.34002  0.13799  0.05982  Biso   1.000  C
  C217     1.0000 0.45602  0.16001  0.05600  Biso   1.000  C
  C218     1.0000 0.97272  0.54541  0.67502  Biso   1.000  C
  C219     1.0000 0.00919  0.58908  0.72659  Biso   1.000  C
  Br17     1.0000 0.01722  0.68721  0.82212  Biso   1.000  Br
  C220     1.0000 0.72930  0.61451  0.02721  Biso   1.000  C
  H150     1.0000 0.80177  0.79226  0.28686  Biso   1.000  H
  H151     1.0000 0.83614  0.81819  0.35968  Biso   1.000  H
  C221     1.0000 0.87599  0.89260  0.28600  Biso   1.000  C
  H152     1.0000 0.83873  0.58723  0.34011  Biso   1.000  H
  H153     1.0000 0.77211  0.57254  0.30006  Biso   1.000  H
  C222     1.0000 0.83101  0.54260  0.24498  Biso   1.000  C
  N10      1.0000 0.30259  0.13809  0.38398  Biso   1.000  N
  O19      1.0000 0.34348  0.06649  0.36538  Biso   1.000  O
  H154     1.0000 0.37340  0.02958  0.47238  Biso   1.000  H
  O20      1.0000 0.26408  0.21020  0.40569  Biso   1.000  O
  S10      1.0000 0.49532  0.07732  0.63773  Biso   1.000  S
  C223     1.0000 0.41730  0.96991  0.57419  Biso   1.000  C
  H155     1.0000 0.34664  0.14090  0.10985  Biso   1.000  H
  H156     1.0000 0.35330  0.18357  0.04290  Biso   1.000  H
  C224     1.0000 0.26548  0.08951  0.04300  Biso   1.000  C
  H157     1.0000 0.45639  0.15058  0.10512  Biso   1.000  H
  H158     1.0000 0.46741  0.20779  0.05182  Biso   1.000  H
  C225     1.0000 0.50901  0.15098  0.02002  Biso   1.000  C
  C226     1.0000 0.98587  0.50118  0.63701  Biso   1.000  C
  Br18     1.0000 0.09191  0.60262  0.75762  Biso   1.000  Br
  H159     1.0000 0.69731  0.63060  0.03827  Biso   1.000  H
  C227     1.0000 0.79799  0.65999  0.05982  Biso   1.000  C
  C228     1.0000 0.70400  0.54400  0.05600  Biso   1.000  C
  H160     1.0000 0.88573  0.92249  0.32554  Biso   1.000  H
  H161     1.0000 0.91891  0.90609  0.26205  Biso   1.000  H
  C229     1.0000 0.82699  0.90098  0.23601  Biso   1.000  C
  H162     1.0000 0.87607  0.54917  0.25130  Biso   1.000  H
  H163     1.0000 0.82740  0.55579  0.19765  Biso   1.000  H
  C230     1.0000 0.77899  0.46879  0.25502  Biso   1.000  C
  C231     1.0000 0.28771  0.13970  0.31020  Biso   1.000  C
  C232     1.0000 0.51530  0.01409  0.63701  Biso   1.000  C
  Br19     1.0000 0.34511  0.90448  0.52451  Biso   1.000  Br
  C233     1.0000 0.47109  0.96189  0.59722  Biso   1.000  C
  H164     1.0000 0.25875  0.08855  0.99338  Biso   1.000  H
  H165     1.0000 0.25293  0.04408  0.05849  Biso   1.000  H
  C234     1.0000 0.22003  0.11202  0.07801  Biso   1.000  C
  H166     1.0000 0.52397  0.18047  0.97896  Biso   1.000  H
  H167     1.0000 0.48879  0.10455  0.00438  Biso   1.000  H
  C235     1.0000 0.57101  0.16798  0.06201  Biso   1.000  C
  S11      1.0000 0.92269  0.41799  0.63773  Biso   1.000  S
  C236     1.0000 0.03808  0.50921  0.59722  Biso   1.000  C
  H168     1.0000 0.79429  0.65337  0.10985  Biso   1.000  H
  H169     1.0000 0.83030  0.64670  0.04290  Biso   1.000  H
  C237     1.0000 0.82400  0.73450  0.04300  Biso   1.000  C
  H170     1.0000 0.69420  0.54360  0.10512  Biso   1.000  H
  H171     1.0000 0.74039  0.53262  0.05182  Biso   1.000  H
  C238     1.0000 0.64202  0.49100  0.02002  Biso   1.000  C
  H172     1.0000 0.84810  0.94746  0.22149  Biso   1.000  H
  H173     1.0000 0.78527  0.88799  0.26006  Biso   1.000  H
  H174     1.0000 0.81840  0.87164  0.19663  Biso   1.000  H
  H175     1.0000 0.78794  0.44196  0.22185  Biso   1.000  H
  H176     1.0000 0.73410  0.46177  0.24738  Biso   1.000  H
  H177     1.0000 0.78281  0.45515  0.30108  Biso   1.000  H
  C239     1.0000 0.33932  0.19531  0.26908  Biso   1.000  C
  H178     1.0000 0.29759  0.10395  0.29466  Biso   1.000  H
  C240     1.0000 0.21127  0.09999  0.29802  Biso   1.000  C
  C241     1.0000 0.57270  0.02728  0.67502  Biso   1.000  C
  Br20     1.0000 0.47312  0.88302  0.58158  Biso   1.000  Br
  H179     1.0000 0.23621  0.12701  0.12534  Biso   1.000  H
  H180     1.0000 0.22195  0.15008  0.05325  Biso   1.000  H
  C242     1.0000 0.14699  0.05400  0.08101  Biso   1.000  C
  H181     1.0000 0.60791  0.21356  0.05060  Biso   1.000  H
  H182     1.0000 0.56103  0.16628  0.11082  Biso   1.000  H
  C243     1.0000 0.59401  0.11498  0.04499  Biso   1.000  C
  C244     1.0000 0.96889  0.39428  0.59100  Biso   1.000  C
  C245     1.0000 0.03010  0.44738  0.57419  Biso   1.000  C
  Br21     1.0000 0.11700  0.59009  0.58158  Biso   1.000  Br
  H183     1.0000 0.82979  0.74122  0.99338  Biso   1.000  H
  H184     1.0000 0.79116  0.74709  0.05849  Biso   1.000  H
  C246     1.0000 0.89199  0.77998  0.07801  Biso   1.000  C
  H185     1.0000 0.65652  0.47606  0.97896  Biso   1.000  H
  H186     1.0000 0.61573  0.51121  0.00438  Biso   1.000  H
  C247     1.0000 0.59698  0.42898  0.06201  Biso   1.000  C
  H187     1.0000 0.33951  0.17711  0.22333  Biso   1.000  H
  H188     1.0000 0.32488  0.22870  0.26317  Biso   1.000  H
  C248     1.0000 0.41123  0.23221  0.29481  Biso   1.000  C
  H189     1.0000 0.20230  0.10731  0.25013  Biso   1.000  H
  H190     1.0000 0.18962  0.11799  0.32809  Biso   1.000  H
  C249     1.0000 0.18030  0.02562  0.31000  Biso   1.000  C
  S12      1.0000 0.64691  0.10249  0.66290  Biso   1.000  S
  C250     1.0000 0.57992  0.99082  0.72659  Biso   1.000  C
  H191     1.0000 0.11862  0.06910  0.10364  Biso   1.000  H
  H192     1.0000 0.14430  0.01615  0.10664  Biso   1.000  H
  H193     1.0000 0.13006  0.03916  0.03460  Biso   1.000  H
  H194     1.0000 0.60467  0.11729  0.99654  Biso   1.000  H
  H195     1.0000 0.63407  0.12571  0.07210  Biso   1.000  H
  H196     1.0000 0.55789  0.07010  0.05666  Biso   1.000  H
  C251     1.0000 0.93711  0.32332  0.57179  Biso   1.000  C
  Br22     1.0000 0.09550  0.44061  0.52451  Biso   1.000  Br
  H197     1.0000 0.89079  0.76378  0.12534  Biso   1.000  H
  H198     1.0000 0.92812  0.77807  0.05325  Biso   1.000  H
  C252     1.0000 0.90700  0.85299  0.08101  Biso   1.000  C
  H199     1.0000 0.60562  0.39207  0.05060  Biso   1.000  H
  H200     1.0000 0.60523  0.43895  0.11082  Biso   1.000  H
  C253     1.0000 0.52101  0.40601  0.04499  Biso   1.000  C
  H201     1.0000 0.41276  0.25152  0.34011  Biso   1.000  H
  H202     1.0000 0.42747  0.19957  0.30006  Biso   1.000  H
  C254     1.0000 0.45740  0.28842  0.24498  Biso   1.000  C
  H203     1.0000 0.20775  0.00948  0.28686  Biso   1.000  H
  H204     1.0000 0.18181  0.01795  0.35968  Biso   1.000  H
  C255     1.0000 0.10739  0.98340  0.28600  Biso   1.000  C
  C256     1.0000 0.68638  0.08459  0.72710  Biso   1.000  C
  C257     1.0000 0.64551  0.02161  0.75278  Biso   1.000  C
  Br23     1.0000 0.51071  0.90809  0.75762  Biso   1.000  Br
  C258     1.0000 0.90450  0.27112  0.61852  Biso   1.000  C
  C259     1.0000 0.94051  0.30928  0.50229  Biso   1.000  C
  H205     1.0000 0.95046  0.88137  0.10364  Biso   1.000  H
  H206     1.0000 0.87183  0.85570  0.10664  Biso   1.000  H
  H207     1.0000 0.90913  0.86994  0.03460  Biso   1.000  H
  H208     1.0000 0.51263  0.39533  0.99654  Biso   1.000  H
  H209     1.0000 0.49164  0.36595  0.07210  Biso   1.000  H
  H210     1.0000 0.51222  0.44211  0.05666  Biso   1.000  H
  H211     1.0000 0.45079  0.32688  0.25130  Biso   1.000  H
  H212     1.0000 0.44422  0.27163  0.19765  Biso   1.000  H
  C260     1.0000 0.53120  0.31019  0.25502  Biso   1.000  C
  H213     1.0000 0.09390  0.01279  0.26205  Biso   1.000  H
  H214     1.0000 0.07751  0.96324  0.32554  Biso   1.000  H
  C261     1.0000 0.09900  0.92599  0.23601  Biso   1.000  C
  C262     1.0000 0.75542  0.14181  0.74952  Biso   1.000  C
  Br24     1.0000 0.67001  0.98280  0.82212  Biso   1.000  Br
  C263     1.0000 0.85740  0.20559  0.59309  Biso   1.000  C
  C264     1.0000 0.91529  0.27890  0.69219  Biso   1.000  C
  C265     1.0000 0.90009  0.24520  0.47850  Biso   1.000  C
  H215     1.0000 0.97042  0.34383  0.47238  Biso   1.000  H
  H216     1.0000 0.55805  0.34599  0.22185  Biso   1.000  H
  H217     1.0000 0.53824  0.27233  0.24738  Biso   1.000  H
  H218     1.0000 0.54483  0.32764  0.30108  Biso   1.000  H
  H219     1.0000 0.05256  0.90067  0.22149  Biso   1.000  H
  H220     1.0000 0.11199  0.89726  0.26006  Biso   1.000  H
  H221     1.0000 0.12836  0.94675  0.19663  Biso   1.000  H
  C266     1.0000 0.80960  0.17149  0.70819  Biso   1.000  C
  C267     1.0000 0.75149  0.15409  0.81662  Biso   1.000  C
  C268     1.0000 0.81711  0.15229  0.63778  Biso   1.000  C
  C269     1.0000 0.86360  0.19150  0.52308  Biso   1.000  C
  C270     1.0000 0.86501  0.22941  0.73438  Biso   1.000  C
  C271     1.0000 0.97058  0.32548  0.72628  Biso   1.000  C
  C272     1.0000 0.90110  0.23141  0.40528  Biso   1.000  C
  H222     1.0000 0.71060  0.13243  0.84123  Biso   1.000  H
  C273     1.0000 0.81180  0.20072  0.84648  Biso   1.000  C
  C274     1.0000 0.77740  0.08720  0.61281  Biso   1.000  C
  C275     1.0000 0.82380  0.12451  0.50082  Biso   1.000  C
  C276     1.0000 0.86631  0.24209  0.80230  Biso   1.000  C
  C277     1.0000 0.97960  0.33491  0.79512  Biso   1.000  C
  H223     1.0000 0.00767  0.35527  0.69882  Biso   1.000  H
  O21      1.0000 0.93348  0.27699  0.36538  Biso   1.000  O
  N11      1.0000 0.86192  0.16452  0.38398  Biso   1.000  N
  C278     1.0000 0.81223  0.21722  0.91888  Biso   1.000  C
  H224     1.0000 0.74849  0.05170  0.64236  Biso   1.000  H
  C279     1.0000 0.78102  0.07542  0.54341  Biso   1.000  C
  C280     1.0000 0.82730  0.11022  0.42780  Biso   1.000  C
  C281     1.0000 0.92487  0.29399  0.83512  Biso   1.000  C
  H225     1.0000 0.02107  0.36765  0.81428  Biso   1.000  H
  C282     1.0000 0.86032  0.14802  0.31020  Biso   1.000  C
  O22      1.0000 0.76543  0.17841  0.95720  Biso   1.000  O
  N12      1.0000 0.87461  0.26130  0.94910  Biso   1.000  N
  H226     1.0000 0.75269  0.03169  0.52568  Biso   1.000  H
  O23      1.0000 0.78981  0.05390  0.40569  Biso   1.000  O
  C283     1.0000 0.93141  0.30011  0.90930  Biso   1.000  C
  H227     1.0000 0.89607  0.19365  0.29466  Biso   1.000  H
  C284     1.0000 0.90002  0.11132  0.29802  Biso   1.000  C
  C285     1.0000 0.80472  0.14401  0.26908  Biso   1.000  C
  C286     1.0000 0.88523  0.27072  0.02721  Biso   1.000  C
  O24      1.0000 0.98420  0.34168  0.93672  Biso   1.000  O
  H228     1.0000 0.89267  0.09497  0.25013  Biso   1.000  H
  H229     1.0000 0.88201  0.07165  0.32809  Biso   1.000  H
  C287     1.0000 0.97438  0.15469  0.31000  Biso   1.000  C
  H230     1.0000 0.82291  0.16241  0.22333  Biso   1.000  H
  H231     1.0000 0.77129  0.09617  0.26317  Biso   1.000  H
  C288     1.0000 0.76781  0.17901  0.29481  Biso   1.000  C
  H232     1.0000 0.93328  0.30272  0.03827  Biso   1.000  H
  C289     1.0000 0.86198  0.20198  0.05982  Biso   1.000  C
  C290     1.0000 0.83998  0.29600  0.05600  Biso   1.000  C
  H233     1.0000 0.99053  0.19827  0.28686  Biso   1.000  H
  H234     1.0000 0.98206  0.16387  0.35968  Biso   1.000  H
  C291     1.0000 0.01662  0.12400  0.28600  Biso   1.000  C
  H235     1.0000 0.74847  0.16126  0.34011  Biso   1.000  H
  H236     1.0000 0.80042  0.22790  0.30006  Biso   1.000  H
  C292     1.0000 0.71160  0.16898  0.24498  Biso   1.000  C
  H237     1.0000 0.85912  0.20574  0.10985  Biso   1.000  H
  H238     1.0000 0.81639  0.16969  0.04290  Biso   1.000  H
  C293     1.0000 0.91052  0.17600  0.04300  Biso   1.000  C
  H239     1.0000 0.84941  0.30582  0.10512  Biso   1.000  H
  H240     1.0000 0.79221  0.25959  0.05182  Biso   1.000  H
  C294     1.0000 0.84902  0.35802  0.02002  Biso   1.000  C
  H241     1.0000 0.98720  0.08113  0.26205  Biso   1.000  H
  H242     1.0000 0.03673  0.11428  0.32554  Biso   1.000  H
  C295     1.0000 0.07399  0.17299  0.23601  Biso   1.000  C
  H243     1.0000 0.67308  0.12390  0.25130  Biso   1.000  H
  H244     1.0000 0.72838  0.17259  0.19765  Biso   1.000  H
  C296     1.0000 0.68979  0.22098  0.25502  Biso   1.000  C
  H245     1.0000 0.91144  0.17019  0.99338  Biso   1.000  H
  H246     1.0000 0.95595  0.20885  0.05849  Biso   1.000  H
  C297     1.0000 0.88799  0.10801  0.07801  Biso   1.000  C
  H247     1.0000 0.81952  0.34348  0.97896  Biso   1.000  H
  H248     1.0000 0.89544  0.38425  0.00438  Biso   1.000  H
  C298     1.0000 0.83199  0.40300  0.06201  Biso   1.000  C
  H249     1.0000 0.09935  0.15188  0.22149  Biso   1.000  H
  H250     1.0000 0.10271  0.21471  0.26006  Biso   1.000  H
  H251     1.0000 0.05325  0.18162  0.19663  Biso   1.000  H
  H252     1.0000 0.65406  0.21206  0.22185  Biso   1.000  H
  H253     1.0000 0.72767  0.26591  0.24738  Biso   1.000  H
  H254     1.0000 0.67236  0.21722  0.30108  Biso   1.000  H
  H255     1.0000 0.87300  0.10921  0.12534  Biso   1.000  H
  H256     1.0000 0.84994  0.07186  0.05325  Biso   1.000  H
  C299     1.0000 0.94602  0.09302  0.08101  Biso   1.000  C
  H257     1.0000 0.78647  0.39438  0.05060  Biso   1.000  H
  H258     1.0000 0.83374  0.39478  0.11082  Biso   1.000  H
  C300     1.0000 0.88503  0.47902  0.04499  Biso   1.000  C
  H259     1.0000 0.93089  0.04954  0.10364  Biso   1.000  H
  H260     1.0000 0.98383  0.12817  0.10664  Biso   1.000  H
  H261     1.0000 0.96079  0.09086  0.03460  Biso   1.000  H
  H262     1.0000 0.88274  0.48739  0.99654  Biso   1.000  H
  H263     1.0000 0.87429  0.50835  0.07210  Biso   1.000  H
  H264     1.0000 0.92989  0.48779  0.05666  Biso   1.000  H
