data_image0
_cell_length_a       12.758
_cell_length_b       40.96
_cell_length_c       17.349
_cell_angle_alpha    90
_cell_angle_beta     90
_cell_angle_gamma    90

_symmetry_space_group_name_H-M    "P 1"
_symmetry_int_tables_number       1

loop_
  _symmetry_equiv_pos_as_xyz
  'x, y, z'

loop_
  _atom_site_label
  _atom_site_occupancy
  _atom_site_fract_x
  _atom_site_fract_y
  _atom_site_fract_z
  _atom_site_thermal_displace_type
  _atom_site_B_iso_or_equiv
  _atom_site_type_symbol
  C1       1.0000 0.68193  0.55601  0.44118  Biso   1.000  C
  C2       1.0000 0.67879  0.56382  0.51859  Biso   1.000  C
  C3       1.0000 0.61757  0.57383  0.38792  Biso   1.000  C
  H1       1.0000 0.72621  0.53899  0.42342  Biso   1.000  H
  C4       1.0000 0.61789  0.59043  0.54458  Biso   1.000  C
  H2       1.0000 0.71798  0.55120  0.55450  Biso   1.000  H
  C5       1.0000 0.55792  0.59827  0.41409  Biso   1.000  C
  C6       1.0000 0.61444  0.56260  0.30492  Biso   1.000  C
  C7       1.0000 0.62337  0.59910  0.62868  Biso   1.000  C
  C8       1.0000 0.55941  0.60674  0.49282  Biso   1.000  C
  H3       1.0000 0.51427  0.61001  0.37939  Biso   1.000  H
  N1       1.0000 0.70458  0.55688  0.26941  Biso   1.000  N
  O1       1.0000 0.52939  0.55569  0.27460  Biso   1.000  O
  C9       1.0000 0.63701  0.57527  0.68309  Biso   1.000  C
  C10      1.0000 0.61757  0.63152  0.65220  Biso   1.000  C
  H4       1.0000 0.51771  0.62461  0.50989  Biso   1.000  H
  C11      1.0000 0.70419  0.53901  0.19350  Biso   1.000  C
  C12      1.0000 0.80232  0.57371  0.29177  Biso   1.000  C
  C13      1.0000 0.64422  0.58218  0.76293  Biso   1.000  C
  H5       1.0000 0.64187  0.55320  0.66672  Biso   1.000  H
  C14      1.0000 0.62753  0.64021  0.73059  Biso   1.000  C
  H6       1.0000 0.60668  0.64810  0.61479  Biso   1.000  H
  H7       1.0000 0.68412  0.55410  0.15223  Biso   1.000  H
  H8       1.0000 0.77442  0.53040  0.18318  Biso   1.000  H
  H9       1.0000 0.65386  0.52100  0.19580  Biso   1.000  H
  C15      1.0000 0.80240  0.60723  0.30100  Biso   1.000  C
  C16      1.0000 0.89128  0.55637  0.30209  Biso   1.000  C
  C17      1.0000 0.64932  0.55674  0.82149  Biso   1.000  C
  C18      1.0000 0.64172  0.61523  0.78350  Biso   1.000  C
  C19      1.0000 0.62290  0.67441  0.75728  Biso   1.000  C
  C20      1.0000 0.89128  0.62271  0.32440  Biso   1.000  C
  H10      1.0000 0.74063  0.61941  0.29103  Biso   1.000  H
  C21      1.0000 0.98260  0.57302  0.32590  Biso   1.000  C
  H11      1.0000 0.89238  0.53350  0.29362  Biso   1.000  H
  C22      1.0000 0.70528  0.56064  0.89198  Biso   1.000  C
  C23      1.0000 0.59563  0.52734  0.81111  Biso   1.000  C
  H12      1.0000 0.65018  0.62080  0.83630  Biso   1.000  H
  C24      1.0000 0.68867  0.68513  0.81688  Biso   1.000  C
  C25      1.0000 0.55220  0.69641  0.72540  Biso   1.000  C
  N2       1.0000 0.88736  0.65833  0.33310  Biso   1.000  N
  C26      1.0000 0.98448  0.60698  0.33691  Biso   1.000  C
  H13      1.0000 0.04491  0.56089  0.33477  Biso   1.000  H
  C27      1.0000 0.70403  0.53784  0.94910  Biso   1.000  C
  H14      1.0000 0.74510  0.58000  0.89948  Biso   1.000  H
  C28      1.0000 0.59853  0.50313  0.86720  Biso   1.000  C
  H15      1.0000 0.55659  0.52390  0.76517  Biso   1.000  H
  C29      1.0000 0.68451  0.71655  0.84489  Biso   1.000  C
  H16      1.0000 0.73773  0.67029  0.83861  Biso   1.000  H
  C30      1.0000 0.54578  0.72849  0.75382  Biso   1.000  C
  H17      1.0000 0.50799  0.68970  0.68419  Biso   1.000  H
  C31      1.0000 0.91284  0.67505  0.39939  Biso   1.000  C
  C32      1.0000 0.86369  0.67769  0.26319  Biso   1.000  C
  H18      1.0000 0.04617  0.61831  0.35201  Biso   1.000  H
  C33      1.0000 0.65018  0.50876  0.93879  Biso   1.000  C
  H19      1.0000 0.74001  0.54180  0.99608  Biso   1.000  H
  H20      1.0000 0.56592  0.48269  0.85769  Biso   1.000  H
  H21      1.0000 0.73021  0.72310  0.88518  Biso   1.000  H
  C34      1.0000 0.61428  0.73845  0.81457  Biso   1.000  C
  H22      1.0000 0.49639  0.74341  0.73278  Biso   1.000  H
  C35      1.0000 0.92718  0.65820  0.47449  Biso   1.000  C
  O2       1.0000 0.92326  0.70493  0.39489  Biso   1.000  O
  H23      1.0000 0.92938  0.68459  0.23880  Biso   1.000  H
  H24      1.0000 0.82340  0.66431  0.22687  Biso   1.000  H
  H25      1.0000 0.82270  0.69700  0.27748  Biso   1.000  H
  C36      1.0000 0.63764  0.48574  0.00392  Biso   1.000  C
  C37      1.0000 0.60942  0.77422  0.83400  Biso   1.000  C
  C38      1.0000 0.87208  0.63074  0.49732  Biso   1.000  C
  C39      1.0000 0.99028  0.67380  0.52700  Biso   1.000  C
  N3       1.0000 0.62604  0.45271  0.98680  Biso   1.000  N
  O3       1.0000 0.63192  0.49636  0.07038  Biso   1.000  O
  N4       1.0000 0.63780  0.78464  0.90559  Biso   1.000  N
  O4       1.0000 0.58293  0.79404  0.78477  Biso   1.000  O
  C40      1.0000 0.88094  0.61934  0.57121  Biso   1.000  C
  H26      1.0000 0.82811  0.61980  0.46153  Biso   1.000  H
  C41      1.0000 0.00149  0.66233  0.60280  Biso   1.000  C
  H27      1.0000 0.02728  0.69290  0.51161  Biso   1.000  H
  C42      1.0000 0.68138  0.43877  0.92409  Biso   1.000  C
  C43      1.0000 0.59813  0.43171  0.05032  Biso   1.000  C
  C44      1.0000 0.64932  0.76431  0.97418  Biso   1.000  C
  C45      1.0000 0.63388  0.81995  0.92040  Biso   1.000  C
  C46      1.0000 0.94349  0.63484  0.62620  Biso   1.000  C
  H28      1.0000 0.84324  0.60029  0.58551  Biso   1.000  H
  H29      1.0000 0.04758  0.67300  0.63767  Biso   1.000  H
  C47      1.0000 0.62471  0.42288  0.86622  Biso   1.000  C
  C48      1.0000 0.78719  0.43899  0.92478  Biso   1.000  C
  H30      1.0000 0.54648  0.44270  0.08300  Biso   1.000  H
  H31      1.0000 0.56811  0.41140  0.03032  Biso   1.000  H
  H32      1.0000 0.66092  0.42681  0.08070  Biso   1.000  H
  C49      1.0000 0.74408  0.76304  0.01159  Biso   1.000  C
  C50      1.0000 0.56271  0.74775  0.00438  Biso   1.000  C
  H33      1.0000 0.56192  0.82781  0.91371  Biso   1.000  H
  H34      1.0000 0.65700  0.82429  0.97320  Biso   1.000  H
  H35      1.0000 0.68012  0.83130  0.88403  Biso   1.000  H
  C51      1.0000 0.94819  0.62415  0.70921  Biso   1.000  C
  C52      1.0000 0.67989  0.40642  0.80869  Biso   1.000  C
  H36      1.0000 0.55032  0.42329  0.86599  Biso   1.000  H
  C53      1.0000 0.84190  0.42314  0.86622  Biso   1.000  C
  H37      1.0000 0.82411  0.44990  0.96490  Biso   1.000  H
  C54      1.0000 0.75639  0.74558  0.07891  Biso   1.000  C
  H38      1.0000 0.80240  0.77439  0.99072  Biso   1.000  H
  C55      1.0000 0.57713  0.73105  0.07389  Biso   1.000  C
  H39      1.0000 0.49686  0.74780  0.97879  Biso   1.000  H
  C56      1.0000 0.95046  0.59131  0.72973  Biso   1.000  C
  C57      1.0000 0.94858  0.64756  0.76569  Biso   1.000  C
  H40      1.0000 0.64313  0.39460  0.77019  Biso   1.000  H
  C58      1.0000 0.78429  0.40735  0.80812  Biso   1.000  C
  N5       1.0000 0.95132  0.42092  0.86777  Biso   1.000  N
  N6       1.0000 0.85719  0.74626  0.11851  Biso   1.000  N
  C59      1.0000 0.66962  0.73000  0.10980  Biso   1.000  C
  H41      1.0000 0.51897  0.72009  0.09637  Biso   1.000  H
  C60      1.0000 0.95611  0.58174  0.80748  Biso   1.000  C
  H42      1.0000 0.94827  0.57510  0.69059  Biso   1.000  H
  C61      1.0000 0.94968  0.63884  0.84391  Biso   1.000  C
  H43      1.0000 0.94819  0.67000  0.75169  Biso   1.000  H
  H44      1.0000 0.82090  0.39700  0.76708  Biso   1.000  H
  C62      1.0000 0.99263  0.38755  0.87331  Biso   1.000  C
  C63      1.0000 0.01779  0.44626  0.88922  Biso   1.000  C
  C64      1.0000 0.94584  0.73833  0.08231  Biso   1.000  C
  C65      1.0000 0.85930  0.76685  0.18900  Biso   1.000  C
  H45      1.0000 0.67597  0.71851  0.15713  Biso   1.000  H
  C66      1.0000 0.96559  0.54680  0.82898  Biso   1.000  C
  C67      1.0000 0.95399  0.60635  0.86380  Biso   1.000  C
  C68      1.0000 0.94411  0.66482  0.90489  Biso   1.000  C
  H46      1.0000 0.99686  0.38110  0.92760  Biso   1.000  H
  H47      1.0000 0.94592  0.37251  0.84581  Biso   1.000  H
  H48      1.0000 0.06263  0.38669  0.85008  Biso   1.000  H
  C69      1.0000 0.99208  0.48074  0.87031  Biso   1.000  C
  O5       1.0000 0.10441  0.43970  0.91948  Biso   1.000  O
  C70      1.0000 0.93596  0.71367  0.01770  Biso   1.000  C
  O6       1.0000 0.03190  0.74861  0.10318  Biso   1.000  O
  H49      1.0000 0.85429  0.78989  0.17442  Biso   1.000  H
  H50      1.0000 0.79997  0.76111  0.22220  Biso   1.000  H
  H51      1.0000 0.92507  0.76311  0.21678  Biso   1.000  H
  C71      1.0000 0.91127  0.52234  0.79128  Biso   1.000  C
  C72      1.0000 0.03378  0.53708  0.88962  Biso   1.000  C
  H52      1.0000 0.95571  0.60039  0.91671  Biso   1.000  H
  C73      1.0000 0.88932  0.66042  0.97228  Biso   1.000  C
  C74      1.0000 0.99349  0.69607  0.89492  Biso   1.000  C
  C75      1.0000 0.92326  0.48987  0.81123  Biso   1.000  C
  C76      1.0000 0.04632  0.50547  0.90899  Biso   1.000  C
  C77      1.0000 0.88446  0.68452  0.02842  Biso   1.000  C
  C78      1.0000 0.99130  0.71887  0.94980  Biso   1.000  C
  H53      1.0000 0.86463  0.52800  0.75082  Biso   1.000  H
  H54      1.0000 0.07156  0.55330  0.91711  Biso   1.000  H
  H55      1.0000 0.85374  0.64041  0.98058  Biso   1.000  H
  H56      1.0000 0.02861  0.70061  0.84777  Biso   1.000  H
  H57      1.0000 0.88446  0.47361  0.78460  Biso   1.000  H
  H58      1.0000 0.09288  0.49990  0.94962  Biso   1.000  H
  H59      1.0000 0.84567  0.68091  0.07441  Biso   1.000  H
  H60      1.0000 0.02790  0.73879  0.94242  Biso   1.000  H
  C79      1.0000 0.31807  0.44399  0.55882  Biso   1.000  C
  C80      1.0000 0.32121  0.43618  0.48141  Biso   1.000  C
  C81      1.0000 0.38243  0.42617  0.61208  Biso   1.000  C
  H61      1.0000 0.27379  0.46101  0.57658  Biso   1.000  H
  C82      1.0000 0.38211  0.40957  0.45542  Biso   1.000  C
  H62      1.0000 0.28202  0.44880  0.44550  Biso   1.000  H
  C83      1.0000 0.44208  0.40173  0.58591  Biso   1.000  C
  C84      1.0000 0.38556  0.43740  0.69508  Biso   1.000  C
  C85      1.0000 0.37663  0.40090  0.37132  Biso   1.000  C
  C86      1.0000 0.44059  0.39326  0.50718  Biso   1.000  C
  H63      1.0000 0.48573  0.38999  0.62061  Biso   1.000  H
  N7       1.0000 0.29542  0.44312  0.73059  Biso   1.000  N
  O7       1.0000 0.47061  0.44431  0.72540  Biso   1.000  O
  C87      1.0000 0.38243  0.36848  0.34780  Biso   1.000  C
  C88      1.0000 0.36299  0.42473  0.31691  Biso   1.000  C
  H64      1.0000 0.48229  0.37539  0.49011  Biso   1.000  H
  C89      1.0000 0.29581  0.46099  0.80650  Biso   1.000  C
  C90      1.0000 0.19768  0.42629  0.70823  Biso   1.000  C
  C91      1.0000 0.37247  0.35979  0.26941  Biso   1.000  C
  H65      1.0000 0.39332  0.35190  0.38521  Biso   1.000  H
  C92      1.0000 0.35578  0.41782  0.23707  Biso   1.000  C
  H66      1.0000 0.35813  0.44680  0.33328  Biso   1.000  H
  H67      1.0000 0.31588  0.44590  0.84777  Biso   1.000  H
  H68      1.0000 0.22558  0.46960  0.81682  Biso   1.000  H
  H69      1.0000 0.34614  0.47900  0.80420  Biso   1.000  H
  C93      1.0000 0.19760  0.39277  0.69900  Biso   1.000  C
  C94      1.0000 0.10872  0.44363  0.69791  Biso   1.000  C
  C95      1.0000 0.37710  0.32559  0.24272  Biso   1.000  C
  C96      1.0000 0.35828  0.38477  0.21650  Biso   1.000  C
  C97      1.0000 0.35068  0.44326  0.17851  Biso   1.000  C
  C98      1.0000 0.10872  0.37729  0.67560  Biso   1.000  C
  H70      1.0000 0.25937  0.38059  0.70897  Biso   1.000  H
  H71      1.0000 0.10762  0.46650  0.70638  Biso   1.000  H
  C99      1.0000 0.01740  0.42698  0.67410  Biso   1.000  C
  C100     1.0000 0.31133  0.31487  0.18312  Biso   1.000  C
  C101     1.0000 0.44780  0.30359  0.27460  Biso   1.000  C
  H72      1.0000 0.34982  0.37920  0.16370  Biso   1.000  H
  C102     1.0000 0.29472  0.43936  0.10802  Biso   1.000  C
  C103     1.0000 0.40437  0.47266  0.18889  Biso   1.000  C
  N8       1.0000 0.11264  0.34167  0.66690  Biso   1.000  N
  C104     1.0000 0.01552  0.39302  0.66309  Biso   1.000  C
  H73      1.0000 0.95509  0.43911  0.66523  Biso   1.000  H
  C105     1.0000 0.31549  0.28345  0.15511  Biso   1.000  C
  H74      1.0000 0.26227  0.32971  0.16139  Biso   1.000  H
  C106     1.0000 0.45422  0.27151  0.24618  Biso   1.000  C
  H75      1.0000 0.49201  0.31030  0.31581  Biso   1.000  H
  H76      1.0000 0.25490  0.42000  0.10052  Biso   1.000  H
  C107     1.0000 0.29597  0.46216  0.05090  Biso   1.000  C
  H77      1.0000 0.44341  0.47610  0.23483  Biso   1.000  H
  C108     1.0000 0.40147  0.49688  0.13280  Biso   1.000  C
  C109     1.0000 0.08716  0.32495  0.60061  Biso   1.000  C
  C110     1.0000 0.13631  0.32231  0.73681  Biso   1.000  C
  H78      1.0000 0.95383  0.38169  0.64799  Biso   1.000  H
  C111     1.0000 0.38572  0.26155  0.18543  Biso   1.000  C
  H79      1.0000 0.26979  0.27690  0.11482  Biso   1.000  H
  H80      1.0000 0.50361  0.25659  0.26722  Biso   1.000  H
  H81      1.0000 0.25999  0.45820  0.00392  Biso   1.000  H
  C112     1.0000 0.34982  0.49124  0.06121  Biso   1.000  C
  H82      1.0000 0.43408  0.51731  0.14231  Biso   1.000  H
  O8       1.0000 0.07674  0.29507  0.60511  Biso   1.000  O
  C113     1.0000 0.07282  0.34180  0.52551  Biso   1.000  C
  H83      1.0000 0.07062  0.31541  0.76120  Biso   1.000  H
  H84      1.0000 0.17660  0.33569  0.77313  Biso   1.000  H
  H85      1.0000 0.17730  0.30300  0.72252  Biso   1.000  H
  C114     1.0000 0.39058  0.22578  0.16600  Biso   1.000  C
  C115     1.0000 0.36236  0.51426  0.99608  Biso   1.000  C
  C116     1.0000 0.12792  0.36926  0.50268  Biso   1.000  C
  C117     1.0000 0.00972  0.32620  0.47300  Biso   1.000  C
  N9       1.0000 0.36220  0.21536  0.09441  Biso   1.000  N
  O9       1.0000 0.41707  0.20596  0.21523  Biso   1.000  O
  N10      1.0000 0.37396  0.54729  0.01320  Biso   1.000  N
  O10      1.0000 0.36808  0.50364  0.92962  Biso   1.000  O
  C118     1.0000 0.11906  0.38066  0.42879  Biso   1.000  C
  H86      1.0000 0.17189  0.38020  0.53847  Biso   1.000  H
  C119     1.0000 0.99851  0.33767  0.39720  Biso   1.000  C
  H87      1.0000 0.97272  0.30710  0.48839  Biso   1.000  H
  C120     1.0000 0.35068  0.23569  0.02582  Biso   1.000  C
  C121     1.0000 0.36612  0.18005  0.07960  Biso   1.000  C
  C122     1.0000 0.31862  0.56123  0.07591  Biso   1.000  C
  C123     1.0000 0.40187  0.56829  0.94968  Biso   1.000  C
  C124     1.0000 0.05651  0.36516  0.37380  Biso   1.000  C
  H88      1.0000 0.15676  0.39971  0.41449  Biso   1.000  H
  H89      1.0000 0.95242  0.32700  0.36233  Biso   1.000  H
  C125     1.0000 0.43729  0.25225  0.99562  Biso   1.000  C
  C126     1.0000 0.25592  0.23696  0.98841  Biso   1.000  C
  H90      1.0000 0.43808  0.17219  0.08629  Biso   1.000  H
  H91      1.0000 0.34300  0.17571  0.02680  Biso   1.000  H
  H92      1.0000 0.31988  0.16870  0.11597  Biso   1.000  H
  C127     1.0000 0.21281  0.56101  0.07522  Biso   1.000  C
  C128     1.0000 0.37529  0.57712  0.13378  Biso   1.000  C
  H93      1.0000 0.45352  0.55730  0.91700  Biso   1.000  H
  H94      1.0000 0.43189  0.58860  0.96968  Biso   1.000  H
  H95      1.0000 0.33908  0.57319  0.91930  Biso   1.000  H
  C129     1.0000 0.05181  0.37585  0.29079  Biso   1.000  C
  H96      1.0000 0.50314  0.25220  0.02121  Biso   1.000  H
  C130     1.0000 0.42287  0.26895  0.92611  Biso   1.000  C
  H97      1.0000 0.19760  0.22561  0.00928  Biso   1.000  H
  C131     1.0000 0.24361  0.25442  0.92109  Biso   1.000  C
  C132     1.0000 0.15810  0.57686  0.13378  Biso   1.000  C
  H98      1.0000 0.17589  0.55010  0.03510  Biso   1.000  H
  C133     1.0000 0.32011  0.59358  0.19131  Biso   1.000  C
  H99      1.0000 0.44968  0.57671  0.13401  Biso   1.000  H
  C134     1.0000 0.05142  0.35244  0.23431  Biso   1.000  C
  C135     1.0000 0.04954  0.40869  0.27027  Biso   1.000  C
  C136     1.0000 0.33038  0.27000  0.89020  Biso   1.000  C
  H100     1.0000 0.48103  0.27991  0.90363  Biso   1.000  H
  N11      1.0000 0.14281  0.25374  0.88149  Biso   1.000  N
  N12      1.0000 0.04868  0.57908  0.13223  Biso   1.000  N
  C137     1.0000 0.21571  0.59265  0.19188  Biso   1.000  C
  H101     1.0000 0.35687  0.60540  0.22981  Biso   1.000  H
  C138     1.0000 0.05032  0.36116  0.15609  Biso   1.000  C
  H102     1.0000 0.05181  0.33000  0.24831  Biso   1.000  H
  C139     1.0000 0.04389  0.41826  0.19252  Biso   1.000  C
  H103     1.0000 0.05173  0.42490  0.30941  Biso   1.000  H
  H104     1.0000 0.32403  0.28149  0.84287  Biso   1.000  H
  C140     1.0000 0.14070  0.23315  0.81100  Biso   1.000  C
  C141     1.0000 0.05416  0.26167  0.91769  Biso   1.000  C
  C142     1.0000 0.00737  0.61245  0.12669  Biso   1.000  C
  C143     1.0000 0.98221  0.55374  0.11078  Biso   1.000  C
  H105     1.0000 0.17910  0.60300  0.23292  Biso   1.000  H
  C144     1.0000 0.05589  0.33518  0.09511  Biso   1.000  C
  C145     1.0000 0.04601  0.39365  0.13620  Biso   1.000  C
  C146     1.0000 0.03441  0.45320  0.17102  Biso   1.000  C
  H106     1.0000 0.14571  0.21011  0.82558  Biso   1.000  H
  H107     1.0000 0.20003  0.23889  0.77780  Biso   1.000  H
  H108     1.0000 0.07493  0.23689  0.78322  Biso   1.000  H
  O11      1.0000 0.96810  0.25139  0.89682  Biso   1.000  O
  C147     1.0000 0.06404  0.28633  0.98230  Biso   1.000  C
  H109     1.0000 0.00314  0.61890  0.07240  Biso   1.000  H
  H110     1.0000 0.05408  0.62749  0.15419  Biso   1.000  H
  H111     1.0000 0.93737  0.61331  0.14992  Biso   1.000  H
  C148     1.0000 0.00792  0.51926  0.12969  Biso   1.000  C
  O12      1.0000 0.89559  0.56030  0.08052  Biso   1.000  O
  C149     1.0000 0.00651  0.30393  0.10508  Biso   1.000  C
  C150     1.0000 0.11068  0.33958  0.02772  Biso   1.000  C
  H112     1.0000 0.04429  0.39961  0.08329  Biso   1.000  H
  C151     1.0000 0.08873  0.47766  0.20872  Biso   1.000  C
  C152     1.0000 0.96622  0.46292  0.11038  Biso   1.000  C
  C153     1.0000 0.00870  0.28113  0.05020  Biso   1.000  C
  C154     1.0000 0.11554  0.31548  0.97158  Biso   1.000  C
  C155     1.0000 0.07674  0.51013  0.18877  Biso   1.000  C
  C156     1.0000 0.95368  0.49453  0.09101  Biso   1.000  C
  H113     1.0000 0.97139  0.29939  0.15223  Biso   1.000  H
  H114     1.0000 0.14626  0.35959  0.01942  Biso   1.000  H
  H115     1.0000 0.13537  0.47200  0.24918  Biso   1.000  H
  H116     1.0000 0.92844  0.44670  0.08289  Biso   1.000  H
  H117     1.0000 0.97210  0.26121  0.05758  Biso   1.000  H
  H118     1.0000 0.15433  0.31909  0.92559  Biso   1.000  H
  H119     1.0000 0.11554  0.52639  0.21540  Biso   1.000  H
  H120     1.0000 0.90712  0.50010  0.05038  Biso   1.000  H
  C157     1.0000 0.63388  0.68005  0.42043  Biso   1.000  C
  N13      1.0000 0.63780  0.71536  0.40561  Biso   1.000  N
  H121     1.0000 0.56192  0.67219  0.41368  Biso   1.000  H
  H122     1.0000 0.65700  0.67571  0.47323  Biso   1.000  H
  H123     1.0000 0.68012  0.66870  0.38400  Biso   1.000  H
  C158     1.0000 0.64932  0.73569  0.47421  Biso   1.000  C
  C159     1.0000 0.60942  0.72578  0.33403  Biso   1.000  C
  C160     1.0000 0.56271  0.75225  0.50441  Biso   1.000  C
  C161     1.0000 0.74408  0.73696  0.51161  Biso   1.000  C
  O13      1.0000 0.58293  0.70596  0.28480  Biso   1.000  O
  C162     1.0000 0.61428  0.76155  0.31460  Biso   1.000  C
  H124     1.0000 0.49686  0.75220  0.47882  Biso   1.000  H
  C163     1.0000 0.57713  0.76895  0.57392  Biso   1.000  C
  C164     1.0000 0.75639  0.75442  0.57888  Biso   1.000  C
  H125     1.0000 0.80240  0.72561  0.49069  Biso   1.000  H
  C165     1.0000 0.68451  0.78345  0.34492  Biso   1.000  C
  C166     1.0000 0.54578  0.77151  0.25379  Biso   1.000  C
  C167     1.0000 0.66962  0.77000  0.60978  Biso   1.000  C
  H126     1.0000 0.51897  0.77991  0.59640  Biso   1.000  H
  N14      1.0000 0.85719  0.75374  0.61848  Biso   1.000  N
  H127     1.0000 0.73021  0.77690  0.38521  Biso   1.000  H
  C168     1.0000 0.68867  0.81487  0.31691  Biso   1.000  C
  H128     1.0000 0.49639  0.75659  0.23281  Biso   1.000  H
  C169     1.0000 0.55220  0.80359  0.22537  Biso   1.000  C
  H129     1.0000 0.67597  0.78149  0.65710  Biso   1.000  H
  C170     1.0000 0.85930  0.73315  0.68897  Biso   1.000  C
  C171     1.0000 0.94584  0.76167  0.58228  Biso   1.000  C
  C172     1.0000 0.62290  0.82559  0.25731  Biso   1.000  C
  H130     1.0000 0.73773  0.82971  0.33858  Biso   1.000  H
  H131     1.0000 0.50799  0.81030  0.18422  Biso   1.000  H
  H132     1.0000 0.85429  0.71011  0.67439  Biso   1.000  H
  H133     1.0000 0.79997  0.73889  0.72217  Biso   1.000  H
  H134     1.0000 0.92507  0.73689  0.71681  Biso   1.000  H
  C173     1.0000 0.93596  0.78633  0.51772  Biso   1.000  C
  O14      1.0000 0.03190  0.75139  0.60320  Biso   1.000  O
  C174     1.0000 0.62753  0.85979  0.23062  Biso   1.000  C
  C175     1.0000 0.99130  0.78113  0.44982  Biso   1.000  C
  C176     1.0000 0.88446  0.81548  0.52839  Biso   1.000  C
  C177     1.0000 0.61757  0.86848  0.15223  Biso   1.000  C
  C178     1.0000 0.64172  0.88477  0.28347  Biso   1.000  C
  C179     1.0000 0.99349  0.80393  0.39489  Biso   1.000  C
  H135     1.0000 0.02790  0.76121  0.44239  Biso   1.000  H
  C180     1.0000 0.88932  0.83958  0.47230  Biso   1.000  C
  H136     1.0000 0.84567  0.81909  0.57438  Biso   1.000  H
  H137     1.0000 0.60668  0.85190  0.11482  Biso   1.000  H
  C181     1.0000 0.62337  0.90090  0.12871  Biso   1.000  C
  C182     1.0000 0.64422  0.91782  0.26290  Biso   1.000  C
  H138     1.0000 0.65018  0.87920  0.33627  Biso   1.000  H
  C183     1.0000 0.94411  0.83518  0.40492  Biso   1.000  C
  H139     1.0000 0.02861  0.79939  0.34780  Biso   1.000  H
  H140     1.0000 0.85374  0.85959  0.48060  Biso   1.000  H
  C184     1.0000 0.63701  0.92473  0.18312  Biso   1.000  C
  C185     1.0000 0.61789  0.90957  0.04461  Biso   1.000  C
  C186     1.0000 0.64932  0.94326  0.32152  Biso   1.000  C
  C187     1.0000 0.94968  0.86116  0.34388  Biso   1.000  C
  H141     1.0000 0.64187  0.94680  0.16670  Biso   1.000  H
  C188     1.0000 0.67879  0.93618  0.01862  Biso   1.000  C
  C189     1.0000 0.55941  0.89326  0.99279  Biso   1.000  C
  C190     1.0000 0.70528  0.93936  0.39201  Biso   1.000  C
  C191     1.0000 0.59563  0.97266  0.31108  Biso   1.000  C
  C192     1.0000 0.94858  0.85244  0.26572  Biso   1.000  C
  C193     1.0000 0.95399  0.89365  0.36383  Biso   1.000  C
  H142     1.0000 0.71798  0.94880  0.05453  Biso   1.000  H
  C194     1.0000 0.68193  0.94399  0.94121  Biso   1.000  C
  H143     1.0000 0.51771  0.87539  0.00991  Biso   1.000  H
  C195     1.0000 0.55792  0.90173  0.91412  Biso   1.000  C
  H144     1.0000 0.74510  0.92000  0.39950  Biso   1.000  H
  C196     1.0000 0.70403  0.96216  0.44907  Biso   1.000  C
  H145     1.0000 0.55659  0.97610  0.26520  Biso   1.000  H
  C197     1.0000 0.59853  0.99688  0.36723  Biso   1.000  C
  C198     1.0000 0.94819  0.87585  0.20918  Biso   1.000  C
  H146     1.0000 0.94819  0.83000  0.25171  Biso   1.000  H
  C199     1.0000 0.95611  0.91826  0.30751  Biso   1.000  C
  H147     1.0000 0.95571  0.89961  0.41668  Biso   1.000  H
  H148     1.0000 0.72621  0.96101  0.92340  Biso   1.000  H
  C200     1.0000 0.61757  0.92617  0.88789  Biso   1.000  C
  H149     1.0000 0.51427  0.88999  0.87942  Biso   1.000  H
  H150     1.0000 0.74001  0.95820  0.49611  Biso   1.000  H
  C201     1.0000 0.65018  0.99124  0.43881  Biso   1.000  C
  H151     1.0000 0.56592  0.01731  0.35772  Biso   1.000  H
  C202     1.0000 0.95046  0.90869  0.22970  Biso   1.000  C
  C203     1.0000 0.94349  0.86516  0.12617  Biso   1.000  C
  C204     1.0000 0.96559  0.95320  0.32901  Biso   1.000  C
  C205     1.0000 0.61444  0.93740  0.80489  Biso   1.000  C
  C206     1.0000 0.63764  0.01426  0.50389  Biso   1.000  C
  H152     1.0000 0.94827  0.92490  0.19062  Biso   1.000  H
  C207     1.0000 0.88094  0.88066  0.07119  Biso   1.000  C
  C208     1.0000 0.00149  0.83767  0.10277  Biso   1.000  C
  C209     1.0000 0.91127  0.97766  0.29131  Biso   1.000  C
  C210     1.0000 0.03378  0.96292  0.38959  Biso   1.000  C
  N15      1.0000 0.70458  0.94312  0.76938  Biso   1.000  N
  O15      1.0000 0.52939  0.94431  0.77463  Biso   1.000  O
  N16      1.0000 0.62604  0.04729  0.48677  Biso   1.000  N
  O16      1.0000 0.63192  0.00364  0.57041  Biso   1.000  O
  H153     1.0000 0.84324  0.89971  0.08548  Biso   1.000  H
  C211     1.0000 0.87208  0.86926  0.99729  Biso   1.000  C
  C212     1.0000 0.99028  0.82620  0.02698  Biso   1.000  C
  H154     1.0000 0.04758  0.82700  0.13770  Biso   1.000  H
  H155     1.0000 0.86463  0.97200  0.25079  Biso   1.000  H
  C213     1.0000 0.92326  0.01013  0.31120  Biso   1.000  C
  H156     1.0000 0.07156  0.94670  0.41708  Biso   1.000  H
  C214     1.0000 0.04632  0.99453  0.40901  Biso   1.000  C
  C215     1.0000 0.70419  0.96099  0.69353  Biso   1.000  C
  C216     1.0000 0.80232  0.92629  0.79180  Biso   1.000  C
  C217     1.0000 0.68138  0.06123  0.42412  Biso   1.000  C
  C218     1.0000 0.59813  0.06829  0.55029  Biso   1.000  C
  C219     1.0000 0.92718  0.84180  0.97452  Biso   1.000  C
  H157     1.0000 0.82811  0.88020  0.96150  Biso   1.000  H
  H158     1.0000 0.02728  0.80710  0.01159  Biso   1.000  H
  C220     1.0000 0.99208  0.01926  0.37028  Biso   1.000  C
  H159     1.0000 0.88446  0.02639  0.28463  Biso   1.000  H
  H160     1.0000 0.09288  0.00010  0.44959  Biso   1.000  H
  H161     1.0000 0.68412  0.94590  0.65220  Biso   1.000  H
  H162     1.0000 0.77442  0.96960  0.68321  Biso   1.000  H
  H163     1.0000 0.65386  0.97900  0.69577  Biso   1.000  H
  C221     1.0000 0.80240  0.89277  0.80103  Biso   1.000  C
  C222     1.0000 0.89128  0.94363  0.80212  Biso   1.000  C
  C223     1.0000 0.78719  0.06101  0.42481  Biso   1.000  C
  C224     1.0000 0.62471  0.07712  0.36619  Biso   1.000  C
  H164     1.0000 0.54648  0.05730  0.58297  Biso   1.000  H
  H165     1.0000 0.56811  0.08860  0.53029  Biso   1.000  H
  H166     1.0000 0.66092  0.07319  0.58073  Biso   1.000  H
  C225     1.0000 0.91284  0.82495  0.89942  Biso   1.000  C
  C226     1.0000 0.01779  0.05374  0.38919  Biso   1.000  C
  C227     1.0000 0.89128  0.87729  0.82443  Biso   1.000  C
  H167     1.0000 0.74063  0.88059  0.79100  Biso   1.000  H
  H168     1.0000 0.89238  0.96650  0.79359  Biso   1.000  H
  C228     1.0000 0.98260  0.92698  0.82593  Biso   1.000  C
  C229     1.0000 0.84190  0.07686  0.36619  Biso   1.000  C
  H169     1.0000 0.82411  0.05010  0.46493  Biso   1.000  H
  C230     1.0000 0.67989  0.09358  0.30872  Biso   1.000  C
  H170     1.0000 0.55032  0.07671  0.36602  Biso   1.000  H
  N17      1.0000 0.88736  0.84167  0.83307  Biso   1.000  N
  O17      1.0000 0.92326  0.79507  0.89492  Biso   1.000  O
  N18      1.0000 0.95132  0.07908  0.36780  Biso   1.000  N
  O18      1.0000 0.10441  0.06030  0.41951  Biso   1.000  O
  C231     1.0000 0.98448  0.89302  0.83688  Biso   1.000  C
  H171     1.0000 0.04491  0.93911  0.83480  Biso   1.000  H
  C232     1.0000 0.78429  0.09265  0.30809  Biso   1.000  C
  H172     1.0000 0.64313  0.10540  0.27022  Biso   1.000  H
  C233     1.0000 0.86369  0.82231  0.76321  Biso   1.000  C
  C234     1.0000 0.99263  0.11245  0.37328  Biso   1.000  C
  H173     1.0000 0.04617  0.88169  0.85198  Biso   1.000  H
  H174     1.0000 0.82090  0.10300  0.26710  Biso   1.000  H
  H175     1.0000 0.92938  0.81541  0.73877  Biso   1.000  H
  H176     1.0000 0.82340  0.83569  0.72690  Biso   1.000  H
  H177     1.0000 0.82270  0.80300  0.77751  Biso   1.000  H
  H178     1.0000 0.99686  0.11890  0.42758  Biso   1.000  H
  H179     1.0000 0.94592  0.12749  0.34578  Biso   1.000  H
  H180     1.0000 0.06263  0.11331  0.35011  Biso   1.000  H
  C235     1.0000 0.36612  0.31995  0.57957  Biso   1.000  C
  N19      1.0000 0.36220  0.28464  0.59439  Biso   1.000  N
  H181     1.0000 0.43808  0.32781  0.58632  Biso   1.000  H
  H182     1.0000 0.34300  0.32429  0.52677  Biso   1.000  H
  H183     1.0000 0.31988  0.33130  0.61600  Biso   1.000  H
  C236     1.0000 0.35068  0.26431  0.52579  Biso   1.000  C
  C237     1.0000 0.39058  0.27422  0.66597  Biso   1.000  C
  C238     1.0000 0.25592  0.26304  0.48839  Biso   1.000  C
  C239     1.0000 0.43729  0.24775  0.49559  Biso   1.000  C
  O19      1.0000 0.41707  0.29404  0.71520  Biso   1.000  O
  C240     1.0000 0.38572  0.23845  0.68540  Biso   1.000  C
  C241     1.0000 0.24361  0.24558  0.42112  Biso   1.000  C
  H184     1.0000 0.19760  0.27439  0.50931  Biso   1.000  H
  C242     1.0000 0.42287  0.23105  0.42608  Biso   1.000  C
  H185     1.0000 0.50314  0.24780  0.52118  Biso   1.000  H
  C243     1.0000 0.31549  0.21655  0.65508  Biso   1.000  C
  C244     1.0000 0.45422  0.22849  0.74621  Biso   1.000  C
  N20      1.0000 0.14281  0.24626  0.38152  Biso   1.000  N
  C245     1.0000 0.33038  0.23000  0.39022  Biso   1.000  C
  H186     1.0000 0.48103  0.22009  0.40360  Biso   1.000  H
  H187     1.0000 0.26979  0.22310  0.61479  Biso   1.000  H
  C246     1.0000 0.31133  0.18513  0.68309  Biso   1.000  C
  H188     1.0000 0.50361  0.24341  0.76719  Biso   1.000  H
  C247     1.0000 0.44780  0.19641  0.77463  Biso   1.000  C
  C248     1.0000 0.14070  0.26685  0.31103  Biso   1.000  C
  C249     1.0000 0.05416  0.23833  0.41772  Biso   1.000  C
  H189     1.0000 0.32403  0.21851  0.34290  Biso   1.000  H
  C250     1.0000 0.37710  0.17441  0.74269  Biso   1.000  C
  H190     1.0000 0.26227  0.17029  0.66142  Biso   1.000  H
  H191     1.0000 0.49201  0.18970  0.81578  Biso   1.000  H
  H192     1.0000 0.14571  0.28989  0.32561  Biso   1.000  H
  H193     1.0000 0.20003  0.26111  0.27783  Biso   1.000  H
  H194     1.0000 0.07493  0.26311  0.28319  Biso   1.000  H
  C251     1.0000 0.06404  0.21367  0.48228  Biso   1.000  C
  O20      1.0000 0.96810  0.24861  0.39680  Biso   1.000  O
  C252     1.0000 0.37247  0.14021  0.76938  Biso   1.000  C
  C253     1.0000 0.00870  0.21887  0.55018  Biso   1.000  C
  C254     1.0000 0.11554  0.18452  0.47161  Biso   1.000  C
  C255     1.0000 0.38243  0.13152  0.84777  Biso   1.000  C
  C256     1.0000 0.35828  0.11523  0.71653  Biso   1.000  C
  C257     1.0000 0.00651  0.19607  0.60511  Biso   1.000  C
  H195     1.0000 0.97210  0.23879  0.55761  Biso   1.000  H
  C258     1.0000 0.11068  0.16042  0.52770  Biso   1.000  C
  H196     1.0000 0.15433  0.18091  0.42562  Biso   1.000  H
  H197     1.0000 0.39332  0.14810  0.88518  Biso   1.000  H
  C259     1.0000 0.37663  0.09910  0.87129  Biso   1.000  C
  C260     1.0000 0.35578  0.08218  0.73710  Biso   1.000  C
  H198     1.0000 0.34982  0.12080  0.66373  Biso   1.000  H
  C261     1.0000 0.05589  0.16482  0.59508  Biso   1.000  C
  H199     1.0000 0.97139  0.20061  0.65220  Biso   1.000  H
  H200     1.0000 0.14626  0.14041  0.51940  Biso   1.000  H
  C262     1.0000 0.36299  0.07527  0.81688  Biso   1.000  C
  C263     1.0000 0.38211  0.09043  0.95539  Biso   1.000  C
  C264     1.0000 0.35068  0.05674  0.67848  Biso   1.000  C
  C265     1.0000 0.05032  0.13884  0.65612  Biso   1.000  C
  H201     1.0000 0.35813  0.05320  0.83330  Biso   1.000  H
  C266     1.0000 0.32121  0.06382  0.98138  Biso   1.000  C
  C267     1.0000 0.44059  0.10674  0.00721  Biso   1.000  C
  C268     1.0000 0.29472  0.06064  0.60799  Biso   1.000  C
  C269     1.0000 0.40437  0.02734  0.68892  Biso   1.000  C
  C270     1.0000 0.05142  0.14756  0.73428  Biso   1.000  C
  C271     1.0000 0.04601  0.10635  0.63617  Biso   1.000  C
  H202     1.0000 0.28202  0.05120  0.94547  Biso   1.000  H
  C272     1.0000 0.31807  0.05601  0.05879  Biso   1.000  C
  H203     1.0000 0.48229  0.12461  0.99009  Biso   1.000  H
  C273     1.0000 0.44208  0.09827  0.08588  Biso   1.000  C
  H204     1.0000 0.25490  0.08000  0.60050  Biso   1.000  H
  C274     1.0000 0.29597  0.03784  0.55093  Biso   1.000  C
  H205     1.0000 0.44341  0.02390  0.73480  Biso   1.000  H
  C275     1.0000 0.40147  0.00313  0.63277  Biso   1.000  C
  C276     1.0000 0.05181  0.12415  0.79082  Biso   1.000  C
  H206     1.0000 0.05181  0.17000  0.74829  Biso   1.000  H
  C277     1.0000 0.04389  0.08174  0.69249  Biso   1.000  C
  H207     1.0000 0.04429  0.10039  0.58332  Biso   1.000  H
  H208     1.0000 0.27379  0.03899  0.07660  Biso   1.000  H
  C278     1.0000 0.38243  0.07383  0.11211  Biso   1.000  C
  H209     1.0000 0.48573  0.11001  0.12058  Biso   1.000  H
  H210     1.0000 0.25999  0.04180  0.50389  Biso   1.000  H
  C279     1.0000 0.34982  0.00876  0.56119  Biso   1.000  C
  H211     1.0000 0.43408  0.98269  0.64228  Biso   1.000  H
  C280     1.0000 0.04954  0.09131  0.77030  Biso   1.000  C
  C281     1.0000 0.05651  0.13484  0.87383  Biso   1.000  C
  C282     1.0000 0.03441  0.04680  0.67099  Biso   1.000  C
  C283     1.0000 0.38556  0.06260  0.19511  Biso   1.000  C
  C284     1.0000 0.36236  0.98574  0.49611  Biso   1.000  C
  H212     1.0000 0.05173  0.07510  0.80938  Biso   1.000  H
  C285     1.0000 0.11906  0.11934  0.92881  Biso   1.000  C
  C286     1.0000 0.99851  0.16233  0.89723  Biso   1.000  C
  C287     1.0000 0.08873  0.02234  0.70869  Biso   1.000  C
  C288     1.0000 0.96622  0.03708  0.61041  Biso   1.000  C
  N21      1.0000 0.29542  0.05688  0.23062  Biso   1.000  N
  O21      1.0000 0.47061  0.05569  0.22537  Biso   1.000  O
  N22      1.0000 0.37396  0.95271  0.51323  Biso   1.000  N
  O22      1.0000 0.36808  0.99636  0.42959  Biso   1.000  O
  H213     1.0000 0.15676  0.10029  0.91452  Biso   1.000  H
  C289     1.0000 0.12792  0.13074  0.00271  Biso   1.000  C
  C290     1.0000 0.00972  0.17380  0.97302  Biso   1.000  C
  H214     1.0000 0.95242  0.17300  0.86230  Biso   1.000  H
  H215     1.0000 0.13537  0.02800  0.74921  Biso   1.000  H
  C291     1.0000 0.07674  0.98987  0.68880  Biso   1.000  C
  H216     1.0000 0.92844  0.05330  0.58292  Biso   1.000  H
  C292     1.0000 0.95368  0.00547  0.59099  Biso   1.000  C
  C293     1.0000 0.19768  0.07371  0.20820  Biso   1.000  C
  C294     1.0000 0.29581  0.03901  0.30647  Biso   1.000  C
  C295     1.0000 0.31862  0.93877  0.57588  Biso   1.000  C
  C296     1.0000 0.40187  0.93171  0.44971  Biso   1.000  C
  C297     1.0000 0.07282  0.15820  0.02548  Biso   1.000  C
  H217     1.0000 0.17189  0.11980  0.03850  Biso   1.000  H
  H218     1.0000 0.97272  0.19290  0.98841  Biso   1.000  H
  C298     1.0000 0.00792  0.98074  0.62972  Biso   1.000  C
  H219     1.0000 0.11554  0.97361  0.71537  Biso   1.000  H
  H220     1.0000 0.90712  0.99990  0.55041  Biso   1.000  H
  C299     1.0000 0.19760  0.10723  0.19897  Biso   1.000  C
  C300     1.0000 0.10872  0.05637  0.19788  Biso   1.000  C
  H221     1.0000 0.31588  0.05410  0.34780  Biso   1.000  H
  H222     1.0000 0.22558  0.03040  0.31679  Biso   1.000  H
  H223     1.0000 0.34614  0.02100  0.30423  Biso   1.000  H
  C301     1.0000 0.21281  0.93899  0.57519  Biso   1.000  C
  C302     1.0000 0.37529  0.92288  0.63381  Biso   1.000  C
  H224     1.0000 0.45352  0.94270  0.41703  Biso   1.000  H
  H225     1.0000 0.43189  0.91140  0.46971  Biso   1.000  H
  H226     1.0000 0.33908  0.92681  0.41927  Biso   1.000  H
  C303     1.0000 0.08716  0.17505  0.10058  Biso   1.000  C
  C304     1.0000 0.98221  0.94626  0.61081  Biso   1.000  C
  C305     1.0000 0.10872  0.12271  0.17557  Biso   1.000  C
  H227     1.0000 0.25937  0.11941  0.20900  Biso   1.000  H
  C306     1.0000 0.01740  0.07302  0.17407  Biso   1.000  C
  H228     1.0000 0.10762  0.03350  0.20641  Biso   1.000  H
  C307     1.0000 0.15810  0.92314  0.63381  Biso   1.000  C
  H229     1.0000 0.17589  0.94990  0.53507  Biso   1.000  H
  C308     1.0000 0.32011  0.90642  0.69128  Biso   1.000  C
  H230     1.0000 0.44968  0.92329  0.63398  Biso   1.000  H
  N23      1.0000 0.11264  0.15833  0.16693  Biso   1.000  N
  O23      1.0000 0.07674  0.20493  0.10508  Biso   1.000  O
  O24      1.0000 0.89559  0.93970  0.58049  Biso   1.000  O
  N24      1.0000 0.04868  0.92092  0.63220  Biso   1.000  N
  C309     1.0000 0.01552  0.10698  0.16312  Biso   1.000  C
  H231     1.0000 0.95509  0.06089  0.16520  Biso   1.000  H
  C310     1.0000 0.21571  0.90735  0.69191  Biso   1.000  C
  H232     1.0000 0.35687  0.89460  0.72978  Biso   1.000  H
  C311     1.0000 0.13631  0.17769  0.23679  Biso   1.000  C
  C312     1.0000 0.00737  0.88755  0.62672  Biso   1.000  C
  H233     1.0000 0.95383  0.11831  0.14802  Biso   1.000  H
  H234     1.0000 0.17910  0.89700  0.73290  Biso   1.000  H
  H235     1.0000 0.07062  0.18459  0.26123  Biso   1.000  H
  H236     1.0000 0.17660  0.16431  0.27310  Biso   1.000  H
  H237     1.0000 0.17730  0.19700  0.22249  Biso   1.000  H
  H238     1.0000 0.93737  0.88669  0.64989  Biso   1.000  H
  H239     1.0000 0.00314  0.88110  0.57242  Biso   1.000  H
  H240     1.0000 0.05408  0.87251  0.65422  Biso   1.000  H
  Ne1      1.0000 0.21640  0.10657  0.75225  Biso   1.000  Ne
  He1      1.0000 0.20683  0.10074  0.82502  Biso   1.000  He
  He2      1.0000 0.21620  0.13341  0.81811  Biso   1.000  He
  He3      1.0000 0.23090  0.12492  0.60195  Biso   1.000  He
  Ar1      1.0000 0.20814  0.10400  0.75833  Biso   1.000  Ar
  Ne2      1.0000 0.21640  0.39343  0.25225  Biso   1.000  Ne
  He4      1.0000 0.22377  0.38842  0.31016  Biso   1.000  He
  He5      1.0000 0.21222  0.39548  0.32303  Biso   1.000  He
  He6      1.0000 0.22103  0.37781  0.12962  Biso   1.000  He
  Ar2      1.0000 0.20736  0.39174  0.26644  Biso   1.000  Ar
  Ne3      1.0000 0.78360  0.60657  0.74775  Biso   1.000  Ne
  He7      1.0000 0.77690  0.61760  0.69208  Biso   1.000  He
  He8      1.0000 0.80657  0.58195  0.66234  Biso   1.000  He
  Ar3      1.0000 0.79264  0.60825  0.73356  Biso   1.000  Ar
  Ne4      1.0000 0.78360  0.89343  0.24775  Biso   1.000  Ne
  He9      1.0000 0.77614  0.88845  0.19010  Biso   1.000  He
  He10     1.0000 0.80785  0.91982  0.16100  Biso   1.000  He
  Ar4      1.0000 0.79262  0.89180  0.23358  Biso   1.000  Ar
