data_image0
_cell_length_a       12.284
_cell_length_b       21.161
_cell_length_c       14.917
_cell_angle_alpha    90
_cell_angle_beta     112.52
_cell_angle_gamma    90

_symmetry_space_group_name_H-M    "P 1"
_symmetry_int_tables_number       1

loop_
  _symmetry_equiv_pos_as_xyz
  'x, y, z'

loop_
  _atom_site_label
  _atom_site_occupancy
  _atom_site_fract_x
  _atom_site_fract_y
  _atom_site_fract_z
  _atom_site_thermal_displace_type
  _atom_site_B_iso_or_equiv
  _atom_site_type_symbol
  C1       1.0000 0.41859  0.48892  0.31452  Biso   1.000  C
  C2       1.0000 0.43247  0.42361  0.32004  Biso   1.000  C
  C3       1.0000 0.31465  0.51647  0.25400  Biso   1.000  C
  H1       1.0000 0.48273  0.51637  0.34863  Biso   1.000  H
  C4       1.0000 0.33873  0.38552  0.26060  Biso   1.000  C
  C5       1.0000 0.54503  0.39431  0.39000  Biso   1.000  C
  C6       1.0000 0.22056  0.47781  0.19943  Biso   1.000  C
  C7       1.0000 0.30453  0.58740  0.25008  Biso   1.000  C
  C8       1.0000 0.23239  0.41265  0.20211  Biso   1.000  C
  H2       1.0000 0.34402  0.33921  0.26481  Biso   1.000  H
  N1       1.0000 0.64743  0.40594  0.36249  Biso   1.000  N
  H3       1.0000 0.52946  0.34568  0.39573  Biso   1.000  H
  H4       1.0000 0.57000  0.40910  0.45872  Biso   1.000  H
  H5       1.0000 0.14895  0.50541  0.16343  Biso   1.000  H
  N2       1.0000 0.37731  0.61599  0.20284  Biso   1.000  N
  H6       1.0000 0.32812  0.60451  0.31358  Biso   1.000  H
  H7       1.0000 0.22850  0.60021  0.22403  Biso   1.000  H
  H8       1.0000 0.17118  0.38538  0.16379  Biso   1.000  H
  C9       1.0000 0.63162  0.37229  0.27388  Biso   1.000  C
  C10      1.0000 0.75491  0.38524  0.44305  Biso   1.000  C
  C11      1.0000 0.38926  0.68395  0.22171  Biso   1.000  C
  C12      1.0000 0.32486  0.60337  0.09812  Biso   1.000  C
  C13      1.0000 0.72794  0.38618  0.23753  Biso   1.000  C
  H9       1.0000 0.54403  0.37768  0.24660  Biso   1.000  H
  H10      1.0000 0.62247  0.32711  0.27802  Biso   1.000  H
  C14      1.0000 0.79888  0.43292  0.52622  Biso   1.000  C
  H11      1.0000 0.74847  0.34408  0.47280  Biso   1.000  H
  H12      1.0000 0.82035  0.37890  0.41801  Biso   1.000  H
  C15      1.0000 0.45321  0.70053  0.32701  Biso   1.000  C
  H13      1.0000 0.42709  0.70157  0.18578  Biso   1.000  H
  H14      1.0000 0.30678  0.70361  0.19384  Biso   1.000  H
  C16      1.0000 0.40331  0.61812  0.04311  Biso   1.000  C
  H15      1.0000 0.24925  0.62360  0.06473  Biso   1.000  H
  H16      1.0000 0.30513  0.56240  0.08912  Biso   1.000  H
  C17      1.0000 0.78672  0.33618  0.21249  Biso   1.000  C
  C18      1.0000 0.75977  0.44814  0.22562  Biso   1.000  C
  C19      1.0000 0.82209  0.49837  0.49385  Biso   1.000  C
  H17      1.0000 0.73387  0.43850  0.54450  Biso   1.000  H
  H18      1.0000 0.87401  0.41350  0.57520  Biso   1.000  H
  C20      1.0000 0.40807  0.74708  0.36961  Biso   1.000  C
  C21      1.0000 0.55925  0.67147  0.38310  Biso   1.000  C
  C22      1.0000 0.52184  0.58424  0.08092  Biso   1.000  C
  H19      1.0000 0.41955  0.66150  0.04231  Biso   1.000  H
  H20      1.0000 0.35635  0.60640  0.97627  Biso   1.000  H
  C23      1.0000 0.87017  0.34800  0.17243  Biso   1.000  C
  H21      1.0000 0.76964  0.29200  0.22338  Biso   1.000  H
  C24      1.0000 0.84588  0.46052  0.18673  Biso   1.000  C
  H22      1.0000 0.72016  0.48717  0.24653  Biso   1.000  H
  C25      1.0000 0.88801  0.54052  0.57905  Biso   1.000  C
  H23      1.0000 0.87350  0.50017  0.45771  Biso   1.000  H
  H24      1.0000 0.75010  0.51420  0.46090  Biso   1.000  H
  C26      1.0000 0.46883  0.76513  0.46489  Biso   1.000  C
  H25      1.0000 0.33305  0.76650  0.33260  Biso   1.000  H
  C27      1.0000 0.62166  0.68900  0.47984  Biso   1.000  C
  H26      1.0000 0.59335  0.64146  0.35509  Biso   1.000  H
  C28      1.0000 0.58564  0.59137  0.01190  Biso   1.000  C
  H27      1.0000 0.50756  0.54369  0.08592  Biso   1.000  H
  H28      1.0000 0.56556  0.59770  0.14848  Biso   1.000  H
  C29      1.0000 0.89792  0.40991  0.15893  Biso   1.000  C
  H29      1.0000 0.90262  0.30967  0.14892  Biso   1.000  H
  C30      1.0000 0.88280  0.52734  0.17439  Biso   1.000  C
  C31      1.0000 0.91625  0.60578  0.55191  Biso   1.000  C
  H30      1.0000 0.95299  0.52190  0.61323  Biso   1.000  H
  H31      1.0000 0.84543  0.54109  0.62245  Biso   1.000  H
  C32      1.0000 0.57583  0.73664  0.51939  Biso   1.000  C
  H32      1.0000 0.43899  0.79949  0.49893  Biso   1.000  H
  C33      1.0000 0.73447  0.65555  0.54211  Biso   1.000  C
  C34      1.0000 0.70201  0.55550  0.04383  Biso   1.000  C
  H33      1.0000 0.59743  0.62927  0.00399  Biso   1.000  H
  H34      1.0000 0.53019  0.57568  0.94448  Biso   1.000  H
  H35      1.0000 0.95147  0.41397  0.12932  Biso   1.000  H
  N3       1.0000 0.78653  0.57299  0.14050  Biso   1.000  N
  H36      1.0000 0.92824  0.52550  0.14028  Biso   1.000  H
  H37      1.0000 0.94379  0.53877  0.23462  Biso   1.000  H
  N4       1.0000 0.81346  0.64364  0.49174  Biso   1.000  N
  H38      1.0000 0.96984  0.59898  0.51765  Biso   1.000  H
  H39      1.0000 0.96670  0.62989  0.60525  Biso   1.000  H
  H40      1.0000 0.62161  0.75247  0.58580  Biso   1.000  H
  H41      1.0000 0.70897  0.62001  0.55974  Biso   1.000  H
  H42      1.0000 0.77540  0.68381  0.60263  Biso   1.000  H
  H43      1.0000 0.69459  0.51250  0.04521  Biso   1.000  H
  H44      1.0000 0.74411  0.55777  0.99731  Biso   1.000  H
  C35      1.0000 0.83525  0.63584  0.13832  Biso   1.000  C
  C36      1.0000 0.85569  0.70394  0.46809  Biso   1.000  C
  C37      1.0000 0.90454  0.66377  0.23724  Biso   1.000  C
  H45      1.0000 0.89292  0.63678  0.10022  Biso   1.000  H
  H46      1.0000 0.77382  0.66618  0.10617  Biso   1.000  H
  C38      1.0000 0.91364  0.69694  0.39559  Biso   1.000  C
  H47      1.0000 0.78220  0.72997  0.44414  Biso   1.000  H
  H48      1.0000 0.90706  0.72657  0.52585  Biso   1.000  H
  C39      1.0000 0.85484  0.66722  0.30698  Biso   1.000  C
  C40      1.0000 0.01531  0.68966  0.25748  Biso   1.000  C
  C41      1.0000 0.02486  0.72284  0.41489  Biso   1.000  C
  H49      1.0000 0.77922  0.65120  0.29370  Biso   1.000  H
  C42      1.0000 0.07454  0.71929  0.34580  Biso   1.000  C
  H50      1.0000 0.05217  0.68617  0.20792  Biso   1.000  H
  H51      1.0000 0.07356  0.74439  0.47933  Biso   1.000  H
  H52      1.0000 0.14997  0.73579  0.36024  Biso   1.000  H
  C43      1.0000 0.58161  0.51108  0.68551  Biso   1.000  C
  C44      1.0000 0.68547  0.48353  0.74603  Biso   1.000  C
  C45      1.0000 0.56765  0.57634  0.67999  Biso   1.000  C
  H53      1.0000 0.51739  0.48358  0.65140  Biso   1.000  H
  C46      1.0000 0.69560  0.41260  0.74995  Biso   1.000  C
  C47      1.0000 0.77964  0.52214  0.80061  Biso   1.000  C
  C48      1.0000 0.66140  0.61443  0.73943  Biso   1.000  C
  C49      1.0000 0.45509  0.60569  0.61004  Biso   1.000  C
  N5       1.0000 0.62281  0.38396  0.79720  Biso   1.000  N
  H54      1.0000 0.67201  0.39549  0.68645  Biso   1.000  H
  H55      1.0000 0.77162  0.39979  0.77601  Biso   1.000  H
  C50      1.0000 0.76773  0.58731  0.79792  Biso   1.000  C
  H56      1.0000 0.85117  0.49459  0.83660  Biso   1.000  H
  H57      1.0000 0.65610  0.66079  0.73522  Biso   1.000  H
  N6       1.0000 0.35269  0.59406  0.63754  Biso   1.000  N
  H58      1.0000 0.47066  0.65427  0.60430  Biso   1.000  H
  H59      1.0000 0.43021  0.59090  0.54131  Biso   1.000  H
  C51      1.0000 0.61094  0.31601  0.77833  Biso   1.000  C
  C52      1.0000 0.67534  0.39663  0.90192  Biso   1.000  C
  H60      1.0000 0.82894  0.61457  0.83624  Biso   1.000  H
  C53      1.0000 0.24522  0.61472  0.55699  Biso   1.000  C
  C54      1.0000 0.36850  0.62771  0.72615  Biso   1.000  C
  C55      1.0000 0.54691  0.29942  0.67303  Biso   1.000  C
  H61      1.0000 0.57303  0.29838  0.81425  Biso   1.000  H
  H62      1.0000 0.69343  0.29639  0.80620  Biso   1.000  H
  C56      1.0000 0.59681  0.38183  0.95693  Biso   1.000  C
  H63      1.0000 0.75095  0.37640  0.93530  Biso   1.000  H
  H64      1.0000 0.69500  0.43760  0.91092  Biso   1.000  H
  C57      1.0000 0.20124  0.56703  0.47382  Biso   1.000  C
  H65      1.0000 0.25165  0.65588  0.52723  Biso   1.000  H
  H66      1.0000 0.17977  0.62110  0.58202  Biso   1.000  H
  C58      1.0000 0.27218  0.61382  0.76251  Biso   1.000  C
  H67      1.0000 0.45609  0.62228  0.75344  Biso   1.000  H
  H68      1.0000 0.37765  0.67289  0.72201  Biso   1.000  H
  C59      1.0000 0.59206  0.25292  0.63043  Biso   1.000  C
  C60      1.0000 0.44087  0.32848  0.61693  Biso   1.000  C
  C61      1.0000 0.47828  0.41572  0.91912  Biso   1.000  C
  H69      1.0000 0.58066  0.33850  0.95773  Biso   1.000  H
  H70      1.0000 0.64377  0.39360  0.02377  Biso   1.000  H
  C62      1.0000 0.17804  0.50163  0.50619  Biso   1.000  C
  H71      1.0000 0.26625  0.56150  0.45553  Biso   1.000  H
  H72      1.0000 0.12620  0.58650  0.42483  Biso   1.000  H
  C63      1.0000 0.24035  0.55182  0.77441  Biso   1.000  C
  C64      1.0000 0.21341  0.66377  0.78755  Biso   1.000  C
  C65      1.0000 0.53129  0.23482  0.53514  Biso   1.000  C
  H73      1.0000 0.66707  0.23350  0.66744  Biso   1.000  H
  C66      1.0000 0.37846  0.31100  0.52019  Biso   1.000  C
  H74      1.0000 0.40677  0.35849  0.64494  Biso   1.000  H
  C67      1.0000 0.41448  0.40863  0.98813  Biso   1.000  C
  H75      1.0000 0.49264  0.45631  0.91411  Biso   1.000  H
  H76      1.0000 0.43465  0.40230  0.85155  Biso   1.000  H
  C68      1.0000 0.11212  0.45943  0.42099  Biso   1.000  C
  H77      1.0000 0.12671  0.49979  0.54233  Biso   1.000  H
  H78      1.0000 0.25010  0.48580  0.53913  Biso   1.000  H
  C69      1.0000 0.15432  0.53944  0.81331  Biso   1.000  C
  H79      1.0000 0.27996  0.51278  0.75351  Biso   1.000  H
  C70      1.0000 0.12995  0.65195  0.82761  Biso   1.000  C
  H80      1.0000 0.23049  0.70800  0.77666  Biso   1.000  H
  C71      1.0000 0.42430  0.26336  0.48064  Biso   1.000  C
  H81      1.0000 0.56113  0.20051  0.50111  Biso   1.000  H
  C72      1.0000 0.26565  0.34441  0.45793  Biso   1.000  C
  C73      1.0000 0.29812  0.44445  0.95620  Biso   1.000  C
  H82      1.0000 0.40269  0.37068  0.99604  Biso   1.000  H
  H83      1.0000 0.46994  0.42427  0.05555  Biso   1.000  H
  C74      1.0000 0.08387  0.39417  0.44813  Biso   1.000  C
  H84      1.0000 0.04713  0.47810  0.38681  Biso   1.000  H
  H85      1.0000 0.15470  0.45891  0.37759  Biso   1.000  H
  C75      1.0000 0.11732  0.47266  0.82565  Biso   1.000  C
  C76      1.0000 0.10220  0.59009  0.84110  Biso   1.000  C
  H86      1.0000 0.09750  0.69028  0.85112  Biso   1.000  H
  H87      1.0000 0.37860  0.24748  0.41424  Biso   1.000  H
  N7       1.0000 0.18667  0.35636  0.50829  Biso   1.000  N
  H88      1.0000 0.29115  0.37999  0.44029  Biso   1.000  H
  H89      1.0000 0.22472  0.31619  0.39740  Biso   1.000  H
  N8       1.0000 0.21359  0.42701  0.85954  Biso   1.000  N
  H90      1.0000 0.30553  0.48750  0.95482  Biso   1.000  H
  H91      1.0000 0.25601  0.44218  0.00272  Biso   1.000  H
  H92      1.0000 0.03036  0.40097  0.48238  Biso   1.000  H
  H93      1.0000 0.03342  0.37011  0.39479  Biso   1.000  H
  H94      1.0000 0.07188  0.47450  0.85975  Biso   1.000  H
  H95      1.0000 0.05642  0.46118  0.76541  Biso   1.000  H
  H96      1.0000 0.04865  0.58598  0.87071  Biso   1.000  H
  C77      1.0000 0.14451  0.29606  0.53195  Biso   1.000  C
  C78      1.0000 0.16487  0.36411  0.86171  Biso   1.000  C
  C79      1.0000 0.08649  0.30301  0.60445  Biso   1.000  C
  H97      1.0000 0.21793  0.26998  0.55590  Biso   1.000  H
  H98      1.0000 0.09306  0.27338  0.47418  Biso   1.000  H
  C80      1.0000 0.09558  0.33623  0.76280  Biso   1.000  C
  H99      1.0000 0.10720  0.36317  0.89981  Biso   1.000  H
  H100     1.0000 0.22630  0.33377  0.89386  Biso   1.000  H
  C81      1.0000 0.14528  0.33273  0.69306  Biso   1.000  C
  C82      1.0000 0.97526  0.27711  0.58514  Biso   1.000  C
  C83      1.0000 0.98481  0.31029  0.74255  Biso   1.000  C
  H101     1.0000 0.22090  0.34880  0.70634  Biso   1.000  H
  C84      1.0000 0.92558  0.28071  0.65423  Biso   1.000  C
  H102     1.0000 0.92656  0.25561  0.52070  Biso   1.000  H
  H103     1.0000 0.94795  0.31378  0.79212  Biso   1.000  H
  H104     1.0000 0.85016  0.26421  0.63979  Biso   1.000  H
  C85      1.0000 0.48475  0.18969  0.24253  Biso   1.000  C
  C86      1.0000 0.42552  0.21927  0.15421  Biso   1.000  C
  C87      1.0000 0.59552  0.16374  0.26278  Biso   1.000  C
  H105     1.0000 0.44797  0.18619  0.29210  Biso   1.000  H
  C88      1.0000 0.47520  0.22286  0.08513  Biso   1.000  C
  H106     1.0000 0.35009  0.23581  0.13977  Biso   1.000  H
  C89      1.0000 0.64522  0.16724  0.19304  Biso   1.000  C
  C90      1.0000 0.66489  0.13586  0.36170  Biso   1.000  C
  C91      1.0000 0.58642  0.19697  0.10443  Biso   1.000  C
  H107     1.0000 0.42650  0.24441  0.02068  Biso   1.000  H
  H108     1.0000 0.72084  0.15117  0.20632  Biso   1.000  H
  N9       1.0000 0.71353  0.07296  0.35952  Biso   1.000  N
  H109     1.0000 0.60714  0.13681  0.39980  Biso   1.000  H
  H110     1.0000 0.72624  0.16620  0.39385  Biso   1.000  H
  C92      1.0000 0.64445  0.20391  0.03193  Biso   1.000  C
  C93      1.0000 0.61726  0.02731  0.32563  Biso   1.000  C
  C94      1.0000 0.79806  0.05553  0.45618  Biso   1.000  C
  N10      1.0000 0.68661  0.14366  0.00827  Biso   1.000  N
  H111     1.0000 0.71795  0.23000  0.05588  Biso   1.000  H
  H112     1.0000 0.59308  0.22660  0.97416  Biso   1.000  H
  H113     1.0000 0.57191  0.02552  0.35974  Biso   1.000  H
  H114     1.0000 0.55636  0.03880  0.26539  Biso   1.000  H
  C95      1.0000 0.65426  0.96054  0.31329  Biso   1.000  C
  C96      1.0000 0.91450  0.09139  0.48812  Biso   1.000  C
  H115     1.0000 0.75603  0.05780  0.50270  Biso   1.000  H
  H116     1.0000 0.80547  0.01252  0.45481  Biso   1.000  H
  C97      1.0000 0.76567  0.15557  0.95791  Biso   1.000  C
  C98      1.0000 0.58389  0.10581  0.94811  Biso   1.000  C
  C99      1.0000 0.60214  0.90988  0.34109  Biso   1.000  C
  C100     1.0000 0.74037  0.94816  0.27439  Biso   1.000  C
  C101     1.0000 0.97830  0.08426  0.41910  Biso   1.000  C
  H117     1.0000 0.90271  0.12929  0.49603  Biso   1.000  H
  H118     1.0000 0.96996  0.07571  0.55553  Biso   1.000  H
  C102     1.0000 0.87840  0.18903  0.02017  Biso   1.000  C
  H119     1.0000 0.79117  0.11998  0.94027  Biso   1.000  H
  H120     1.0000 0.72474  0.18378  0.89738  Biso   1.000  H
  C103     1.0000 0.61214  0.04055  0.92097  Biso   1.000  C
  H121     1.0000 0.53038  0.09900  0.98237  Biso   1.000  H
  H122     1.0000 0.53344  0.12991  0.89477  Biso   1.000  H
  C104     1.0000 0.62997  0.84802  0.32759  Biso   1.000  C
  H123     1.0000 0.54867  0.91399  0.37070  Biso   1.000  H
  C105     1.0000 0.77212  0.88621  0.26249  Biso   1.000  C
  H124     1.0000 0.77998  0.98719  0.25349  Biso   1.000  H
  H125     1.0000 0.99258  0.04371  0.41409  Biso   1.000  H
  H126     1.0000 0.93458  0.09768  0.35154  Biso   1.000  H
  C106     1.0000 0.09675  0.11814  0.45691  Biso   1.000  C
  C107     1.0000 0.94081  0.17149  0.11691  Biso   1.000  C
  C108     1.0000 0.92432  0.23666  0.98062  Biso   1.000  C
  C109     1.0000 0.67797  0.99835  0.00617  Biso   1.000  C
  H127     1.0000 0.54715  0.02188  0.88679  Biso   1.000  H
  H128     1.0000 0.65480  0.04111  0.87757  Biso   1.000  H
  C110     1.0000 0.71335  0.83621  0.28753  Biso   1.000  C
  H129     1.0000 0.59744  0.80970  0.35110  Biso   1.000  H
  C111     1.0000 0.86844  0.87231  0.22613  Biso   1.000  C
  C112     1.0000 0.17528  0.10340  0.40190  Biso   1.000  C
  H130     1.0000 0.08059  0.16148  0.45771  Biso   1.000  H
  H131     1.0000 0.14379  0.10637  0.52375  Biso   1.000  H
  H132     1.0000 0.90671  0.14149  0.14493  Biso   1.000  H
  C113     1.0000 0.04685  0.20056  0.17301  Biso   1.000  C
  H133     1.0000 0.87862  0.25249  0.91422  Biso   1.000  H
  C114     1.0000 0.03123  0.26516  0.03512  Biso   1.000  C
  H134     1.0000 0.62665  0.00019  0.04231  Biso   1.000  H
  H135     1.0000 0.75004  0.01418  0.03912  Biso   1.000  H
  C115     1.0000 0.70126  0.93294  0.97380  Biso   1.000  C
  H136     1.0000 0.73043  0.79202  0.27664  Biso   1.000  H
  N11      1.0000 0.85263  0.90591  0.13752  Biso   1.000  N
  H137     1.0000 0.95603  0.87770  0.25342  Biso   1.000  H
  H138     1.0000 0.87767  0.82709  0.22200  Biso   1.000  H
  N12      1.0000 0.12275  0.11602  0.29718  Biso   1.000  N
  H139     1.0000 0.25089  0.12358  0.43528  Biso   1.000  H
  H140     1.0000 0.19494  0.06238  0.41090  Biso   1.000  H
  C116     1.0000 0.09208  0.24706  0.13041  Biso   1.000  C
  C117     1.0000 0.11088  0.18397  0.27831  Biso   1.000  C
  H141     1.0000 0.06115  0.29951  0.00109  Biso   1.000  H
  H142     1.0000 0.76627  0.93852  0.95551  Biso   1.000  H
  H143     1.0000 0.62622  0.91352  0.92482  Biso   1.000  H
  C118     1.0000 0.74524  0.88526  0.05697  Biso   1.000  C
  C119     1.0000 0.95503  0.89429  0.11002  Biso   1.000  C
  C120     1.0000 0.19554  0.08742  0.24994  Biso   1.000  C
  H144     1.0000 0.16709  0.26648  0.16742  Biso   1.000  H
  H145     1.0000 0.07297  0.20160  0.31423  Biso   1.000  H
  H146     1.0000 0.19336  0.20358  0.30618  Biso   1.000  H
  H147     1.0000 0.75167  0.84410  0.02721  Biso   1.000  H
  H148     1.0000 0.67971  0.87888  0.08201  Biso   1.000  H
  H149     1.0000 0.97060  0.84571  0.10429  Biso   1.000  H
  H150     1.0000 0.93015  0.90913  0.04129  Biso   1.000  H
  C121     1.0000 0.06767  0.92363  0.17998  Biso   1.000  C
  C122     1.0000 0.18549  0.01649  0.24602  Biso   1.000  C
  H151     1.0000 0.17194  0.10448  0.18644  Biso   1.000  H
  H152     1.0000 0.27156  0.10018  0.27599  Biso   1.000  H
  C123     1.0000 0.08155  0.98889  0.18549  Biso   1.000  C
  C124     1.0000 0.16134  0.88554  0.23941  Biso   1.000  C
  C125     1.0000 0.27958  0.97784  0.30059  Biso   1.000  C
  H153     1.0000 0.01733  0.01640  0.15138  Biso   1.000  H
  C126     1.0000 0.26767  0.91267  0.29791  Biso   1.000  C
  H154     1.0000 0.15604  0.83919  0.23520  Biso   1.000  H
  H155     1.0000 0.35119  0.00539  0.33659  Biso   1.000  H
  H156     1.0000 0.32888  0.88540  0.33622  Biso   1.000  H
  C127     1.0000 0.51537  0.81026  0.75750  Biso   1.000  C
  C128     1.0000 0.57460  0.78068  0.84582  Biso   1.000  C
  C129     1.0000 0.40460  0.83621  0.73725  Biso   1.000  C
  H157     1.0000 0.55223  0.81376  0.70793  Biso   1.000  H
  C130     1.0000 0.52492  0.77714  0.91491  Biso   1.000  C
  H158     1.0000 0.65003  0.76419  0.86026  Biso   1.000  H
  C131     1.0000 0.35490  0.83276  0.80699  Biso   1.000  C
  C132     1.0000 0.33532  0.86414  0.63834  Biso   1.000  C
  C133     1.0000 0.41370  0.80303  0.89560  Biso   1.000  C
  H159     1.0000 0.57362  0.75559  0.97935  Biso   1.000  H
  H160     1.0000 0.27928  0.84878  0.79371  Biso   1.000  H
  N13      1.0000 0.28659  0.92699  0.64052  Biso   1.000  N
  H161     1.0000 0.39298  0.86319  0.60024  Biso   1.000  H
  H162     1.0000 0.27388  0.83380  0.60619  Biso   1.000  H
  C134     1.0000 0.35567  0.79604  0.96810  Biso   1.000  C
  C135     1.0000 0.38286  0.97264  0.67441  Biso   1.000  C
  C136     1.0000 0.20207  0.94447  0.54385  Biso   1.000  C
  N14      1.0000 0.31352  0.85634  0.99176  Biso   1.000  N
  H163     1.0000 0.28226  0.77000  0.94415  Biso   1.000  H
  H164     1.0000 0.40704  0.77340  0.02587  Biso   1.000  H
  H165     1.0000 0.42830  0.97448  0.64030  Biso   1.000  H
  H166     1.0000 0.44377  0.96115  0.73464  Biso   1.000  H
  C137     1.0000 0.34586  0.03951  0.68674  Biso   1.000  C
  C138     1.0000 0.08570  0.90861  0.51192  Biso   1.000  C
  H167     1.0000 0.24409  0.94216  0.49733  Biso   1.000  H
  H168     1.0000 0.19465  0.98748  0.54523  Biso   1.000  H
  C139     1.0000 0.23445  0.84438  0.04213  Biso   1.000  C
  C140     1.0000 0.41623  0.89414  0.05192  Biso   1.000  C
  C141     1.0000 0.39798  0.09012  0.65895  Biso   1.000  C
  C142     1.0000 0.25983  0.05184  0.72564  Biso   1.000  C
  C143     1.0000 0.02190  0.91569  0.58093  Biso   1.000  C
  H169     1.0000 0.09749  0.87066  0.50401  Biso   1.000  H
  H170     1.0000 0.03017  0.92429  0.44450  Biso   1.000  H
  C144     1.0000 0.12172  0.81097  0.97986  Biso   1.000  C
  H171     1.0000 0.20895  0.87997  0.05976  Biso   1.000  H
  H172     1.0000 0.27538  0.81617  0.10265  Biso   1.000  H
  C145     1.0000 0.38799  0.95941  0.07907  Biso   1.000  C
  H173     1.0000 0.46974  0.90100  0.01767  Biso   1.000  H
  H174     1.0000 0.46668  0.87009  0.10526  Biso   1.000  H
  C146     1.0000 0.37023  0.15202  0.67245  Biso   1.000  C
  H175     1.0000 0.45153  0.08596  0.62934  Biso   1.000  H
  C147     1.0000 0.22800  0.11379  0.73754  Biso   1.000  C
  H176     1.0000 0.22022  0.01281  0.74654  Biso   1.000  H
  H177     1.0000 0.00754  0.95629  0.58594  Biso   1.000  H
  H178     1.0000 0.06554  0.90227  0.64850  Biso   1.000  H
  C148     1.0000 0.90337  0.88186  0.54312  Biso   1.000  C
  C149     1.0000 0.05931  0.82846  0.88312  Biso   1.000  C
  C150     1.0000 0.07581  0.76334  0.01941  Biso   1.000  C
  H179     1.0000 0.45297  0.97807  0.11325  Biso   1.000  H
  H180     1.0000 0.34541  0.95889  0.12246  Biso   1.000  H
  C151     1.0000 0.32215  0.00165  0.99387  Biso   1.000  C
  C152     1.0000 0.28678  0.16379  0.71251  Biso   1.000  C
  H181     1.0000 0.40268  0.19030  0.64893  Biso   1.000  H
  C153     1.0000 0.13168  0.12773  0.77390  Biso   1.000  C
  C154     1.0000 0.82484  0.89660  0.59813  Biso   1.000  C
  H182     1.0000 0.91953  0.83848  0.54233  Biso   1.000  H
  H183     1.0000 0.85633  0.89358  0.47629  Biso   1.000  H
  H184     1.0000 0.09341  0.85847  0.85511  Biso   1.000  H
  C155     1.0000 0.95328  0.79944  0.82702  Biso   1.000  C
  C156     1.0000 0.96889  0.73480  0.96491  Biso   1.000  C
  H185     1.0000 0.12151  0.74746  0.08581  Biso   1.000  H
  H186     1.0000 0.37348  0.99976  0.95773  Biso   1.000  H
  H187     1.0000 0.25008  0.98578  0.96092  Biso   1.000  H
  C157     1.0000 0.29886  0.06710  0.02623  Biso   1.000  C
  H188     1.0000 0.26970  0.20802  0.72339  Biso   1.000  H
  N15      1.0000 0.14749  0.09404  0.86251  Biso   1.000  N
  H189     1.0000 0.04409  0.12225  0.74662  Biso   1.000  H
  H190     1.0000 0.12253  0.17287  0.77804  Biso   1.000  H
  N16      1.0000 0.87737  0.88398  0.70285  Biso   1.000  N
  H191     1.0000 0.74923  0.87638  0.56475  Biso   1.000  H
  H192     1.0000 0.80519  0.93757  0.58914  Biso   1.000  H
  C158     1.0000 0.90813  0.75289  0.86962  Biso   1.000  C
  C159     1.0000 0.88924  0.81603  0.72172  Biso   1.000  C
  H193     1.0000 0.93905  0.70049  0.99895  Biso   1.000  H
  C160     1.0000 0.25497  0.11474  0.94307  Biso   1.000  C
  H194     1.0000 0.23385  0.06153  0.04452  Biso   1.000  H
  H195     1.0000 0.37390  0.08648  0.07522  Biso   1.000  H
  C161     1.0000 0.04509  0.10567  0.89002  Biso   1.000  C
  C162     1.0000 0.80459  0.91258  0.75010  Biso   1.000  C
  H196     1.0000 0.83311  0.73347  0.83261  Biso   1.000  H
  H197     1.0000 0.92716  0.79840  0.68580  Biso   1.000  H
  H198     1.0000 0.80676  0.79637  0.69386  Biso   1.000  H
  H199     1.0000 0.24854  0.15590  0.97282  Biso   1.000  H
  H200     1.0000 0.32041  0.12112  0.91803  Biso   1.000  H
  C163     1.0000 0.93253  0.07641  0.82006  Biso   1.000  C
  H201     1.0000 0.02953  0.15429  0.89575  Biso   1.000  H
  H202     1.0000 0.06998  0.09087  0.95874  Biso   1.000  H
  C164     1.0000 0.81471  0.98351  0.75402  Biso   1.000  C
  H203     1.0000 0.82818  0.89547  0.81360  Biso   1.000  H
  H204     1.0000 0.72856  0.89977  0.72405  Biso   1.000  H
  C165     1.0000 0.83879  0.11441  0.76062  Biso   1.000  C
  C166     1.0000 0.91857  0.01106  0.81454  Biso   1.000  C
  C167     1.0000 0.72054  0.02216  0.69944  Biso   1.000  C
  C168     1.0000 0.73245  0.08733  0.70213  Biso   1.000  C
  H205     1.0000 0.84408  0.16077  0.76483  Biso   1.000  H
  H206     1.0000 0.98279  0.98355  0.84865  Biso   1.000  H
  H207     1.0000 0.64901  0.99457  0.66345  Biso   1.000  H
  H208     1.0000 0.67124  0.11455  0.66381  Biso   1.000  H
