data_image0
_cell_length_a       8.725
_cell_length_b       18.811
_cell_length_c       11.178
_cell_angle_alpha    90
_cell_angle_beta     111.85
_cell_angle_gamma    90

_symmetry_space_group_name_H-M    "P 1"
_symmetry_int_tables_number       1

loop_
  _symmetry_equiv_pos_as_xyz
  'x, y, z'

loop_
  _atom_site_label
  _atom_site_occupancy
  _atom_site_fract_x
  _atom_site_fract_y
  _atom_site_fract_z
  _atom_site_thermal_displace_type
  _atom_site_B_iso_or_equiv
  _atom_site_type_symbol
  C1       1.0000 0.47723  0.59401  0.41243  Biso   1.000  C
  C2       1.0000 0.38806  0.58280  0.28000  Biso   1.000  C
  H1       1.0000 0.51449  0.55499  0.46680  Biso   1.000  H
  C3       1.0000 0.51066  0.66222  0.46333  Biso   1.000  C
  C4       1.0000 0.34406  0.50880  0.22786  Biso   1.000  C
  C5       1.0000 0.33935  0.64218  0.20116  Biso   1.000  C
  C6       1.0000 0.46039  0.71953  0.38313  Biso   1.000  C
  C7       1.0000 0.58998  0.67200  0.60733  Biso   1.000  C
  N1       1.0000 0.18446  0.48610  0.23566  Biso   1.000  N
  H2       1.0000 0.33541  0.50742  0.13880  Biso   1.000  H
  H3       1.0000 0.43077  0.47610  0.27701  Biso   1.000  H
  C8       1.0000 0.37320  0.71033  0.25002  Biso   1.000  C
  H4       1.0000 0.28238  0.63590  0.11316  Biso   1.000  H
  H5       1.0000 0.48393  0.76508  0.41687  Biso   1.000  H
  H6       1.0000 0.68433  0.64058  0.64222  Biso   1.000  H
  H7       1.0000 0.62856  0.72059  0.62670  Biso   1.000  H
  N2       1.0000 0.46733  0.65589  0.66786  Biso   1.000  N
  C9       1.0000 0.11232  0.42199  0.19518  Biso   1.000  C
  C10      1.0000 0.08461  0.52469  0.27239  Biso   1.000  C
  C11      1.0000 0.30685  0.77380  0.16424  Biso   1.000  C
  C12      1.0000 0.48967  0.61799  0.77696  Biso   1.000  C
  C13      1.0000 0.31300  0.67960  0.61870  Biso   1.000  C
  H8       1.0000 0.15822  0.38440  0.16598  Biso   1.000  H
  C14      1.0000 0.96411  0.42209  0.20453  Biso   1.000  C
  N3       1.0000 0.94982  0.48732  0.25629  Biso   1.000  N
  H9       1.0000 0.10502  0.57089  0.30439  Biso   1.000  H
  H10      1.0000 0.39015  0.81080  0.18631  Biso   1.000  H
  H11      1.0000 0.28188  0.76030  0.07508  Biso   1.000  H
  N4       1.0000 0.15613  0.80171  0.17793  Biso   1.000  N
  H12      1.0000 0.58681  0.59619  0.83046  Biso   1.000  H
  C15      1.0000 0.34440  0.61810  0.79248  Biso   1.000  C
  N5       1.0000 0.23453  0.65568  0.69378  Biso   1.000  N
  H13      1.0000 0.26746  0.70772  0.54554  Biso   1.000  H
  H14      1.0000 0.88631  0.38578  0.18101  Biso   1.000  H
  C16      1.0000 0.80232  0.51422  0.27913  Biso   1.000  C
  C17      1.0000 0.10213  0.87119  0.16106  Biso   1.000  C
  C18      1.0000 0.04542  0.76370  0.20607  Biso   1.000  C
  H15      1.0000 0.32263  0.59619  0.85909  Biso   1.000  H
  C19      1.0000 0.06261  0.66823  0.67190  Biso   1.000  C
  C20      1.0000 0.83247  0.58620  0.33995  Biso   1.000  C
  H16      1.0000 0.77472  0.48131  0.33494  Biso   1.000  H
  H17      1.0000 0.70905  0.51651  0.19769  Biso   1.000  H
  H18      1.0000 0.15593  0.90979  0.14217  Biso   1.000  H
  C21      1.0000 0.95587  0.87242  0.17716  Biso   1.000  C
  N6       1.0000 0.92574  0.80511  0.20771  Biso   1.000  N
  H19      1.0000 0.05202  0.71511  0.22207  Biso   1.000  H
  C22      1.0000 0.95580  0.66052  0.52771  Biso   1.000  C
  H20      1.0000 0.04974  0.71559  0.70092  Biso   1.000  H
  H21      1.0000 0.02643  0.63431  0.72125  Biso   1.000  H
  C23      1.0000 0.78437  0.64803  0.26169  Biso   1.000  C
  C24      1.0000 0.91734  0.59370  0.47325  Biso   1.000  C
  H22      1.0000 0.88843  0.91191  0.16887  Biso   1.000  H
  C25      1.0000 0.77786  0.78130  0.23431  Biso   1.000  C
  C26      1.0000 0.90714  0.72351  0.45234  Biso   1.000  C
  C27      1.0000 0.81967  0.71559  0.31721  Biso   1.000  C
  C28      1.0000 0.69375  0.63909  0.11730  Biso   1.000  C
  C29      1.0000 0.97221  0.52820  0.55827  Biso   1.000  C
  H23      1.0000 0.68752  0.77120  0.15374  Biso   1.000  H
  H24      1.0000 0.74302  0.81883  0.27807  Biso   1.000  H
  C30      1.0000 0.94925  0.79682  0.50940  Biso   1.000  C
  H25      1.0000 0.74536  0.60220  0.08636  Biso   1.000  H
  H26      1.0000 0.69769  0.68300  0.07460  Biso   1.000  H
  H27      1.0000 0.58075  0.62660  0.09976  Biso   1.000  H
  H28      1.0000 0.09030  0.52459  0.59007  Biso   1.000  H
  H29      1.0000 0.92419  0.48652  0.50901  Biso   1.000  H
  H30      1.0000 0.93658  0.53208  0.62969  Biso   1.000  H
  H31      1.0000 0.03556  0.79353  0.59306  Biso   1.000  H
  H32      1.0000 0.85314  0.81793  0.51721  Biso   1.000  H
  H33      1.0000 0.98570  0.82569  0.45436  Biso   1.000  H
  C31      1.0000 0.89778  0.37122  0.83894  Biso   1.000  C
  N7       1.0000 0.84378  0.30169  0.82207  Biso   1.000  N
  H34      1.0000 0.84398  0.40981  0.85783  Biso   1.000  H
  C32      1.0000 0.04403  0.37239  0.82284  Biso   1.000  C
  C33      1.0000 0.69310  0.27378  0.83586  Biso   1.000  C
  C34      1.0000 0.95449  0.26368  0.79393  Biso   1.000  C
  N8       1.0000 0.07416  0.30509  0.79229  Biso   1.000  N
  H35      1.0000 0.11137  0.41189  0.83113  Biso   1.000  H
  C35      1.0000 0.62671  0.21030  0.74998  Biso   1.000  C
  H36      1.0000 0.60975  0.31078  0.81369  Biso   1.000  H
  H37      1.0000 0.71803  0.26033  0.92492  Biso   1.000  H
  H38      1.0000 0.94789  0.21509  0.77793  Biso   1.000  H
  C36      1.0000 0.22205  0.28132  0.76569  Biso   1.000  C
  C37      1.0000 0.53952  0.21950  0.61687  Biso   1.000  C
  C38      1.0000 0.66056  0.14220  0.79884  Biso   1.000  C
  C39      1.0000 0.18024  0.21562  0.68280  Biso   1.000  C
  H39      1.0000 0.31239  0.27122  0.84627  Biso   1.000  H
  H40      1.0000 0.25689  0.31880  0.72193  Biso   1.000  H
  C40      1.0000 0.48925  0.16219  0.53668  Biso   1.000  C
  H41      1.0000 0.51598  0.26511  0.58313  Biso   1.000  H
  C41      1.0000 0.61185  0.08282  0.72000  Biso   1.000  C
  H42      1.0000 0.71753  0.13588  0.88684  Biso   1.000  H
  C42      1.0000 0.09265  0.22349  0.54766  Biso   1.000  C
  C43      1.0000 0.21553  0.14800  0.73831  Biso   1.000  C
  C44      1.0000 0.40993  0.17203  0.39268  Biso   1.000  C
  C45      1.0000 0.52268  0.09399  0.58757  Biso   1.000  C
  C46      1.0000 0.65585  0.00882  0.77215  Biso   1.000  C
  C47      1.0000 0.04411  0.16049  0.47229  Biso   1.000  C
  C48      1.0000 0.05066  0.29679  0.49060  Biso   1.000  C
  C49      1.0000 0.16749  0.08623  0.66015  Biso   1.000  C
  C50      1.0000 0.30616  0.13912  0.88270  Biso   1.000  C
  H43      1.0000 0.31558  0.14061  0.35778  Biso   1.000  H
  H44      1.0000 0.37135  0.22062  0.37330  Biso   1.000  H
  N9       1.0000 0.53263  0.15592  0.33224  Biso   1.000  N
  H45      1.0000 0.48530  0.05502  0.53321  Biso   1.000  H
  H46      1.0000 0.66450  0.00739  0.86121  Biso   1.000  H
  H47      1.0000 0.56914  0.97608  0.72299  Biso   1.000  H
  N10      1.0000 0.81545  0.98613  0.76434  Biso   1.000  N
  C51      1.0000 0.93719  0.16820  0.32810  Biso   1.000  C
  C52      1.0000 0.08261  0.09372  0.52684  Biso   1.000  C
  H48      1.0000 0.96435  0.29350  0.40694  Biso   1.000  H
  H49      1.0000 0.14677  0.31790  0.48280  Biso   1.000  H
  H50      1.0000 0.01409  0.32571  0.54564  Biso   1.000  H
  C53      1.0000 0.19759  0.01419  0.72087  Biso   1.000  C
  H51      1.0000 0.25455  0.10217  0.91364  Biso   1.000  H
  H52      1.0000 0.30222  0.18298  0.92540  Biso   1.000  H
  H53      1.0000 0.41916  0.12657  0.90024  Biso   1.000  H
  C54      1.0000 0.51013  0.11802  0.22304  Biso   1.000  C
  C55      1.0000 0.68680  0.17958  0.38130  Biso   1.000  C
  C56      1.0000 0.91530  0.02472  0.72762  Biso   1.000  C
  C57      1.0000 0.88759  0.92201  0.80482  Biso   1.000  C
  N11      1.0000 0.76538  0.15571  0.30622  Biso   1.000  N
  H54      1.0000 0.95017  0.21562  0.29908  Biso   1.000  H
  H55      1.0000 0.97353  0.13428  0.27884  Biso   1.000  H
  C58      1.0000 0.02770  0.02818  0.44174  Biso   1.000  C
  N12      1.0000 0.05009  0.98729  0.74371  Biso   1.000  N
  H56      1.0000 0.22519  0.98129  0.66506  Biso   1.000  H
  H57      1.0000 0.29086  0.01648  0.80231  Biso   1.000  H
  H58      1.0000 0.41304  0.09622  0.16964  Biso   1.000  H
  C59      1.0000 0.65551  0.11812  0.20752  Biso   1.000  C
  H59      1.0000 0.73245  0.20770  0.45446  Biso   1.000  H
  H60      1.0000 0.89477  0.07092  0.69562  Biso   1.000  H
  H61      1.0000 0.84169  0.88438  0.83403  Biso   1.000  H
  C60      1.0000 0.03580  0.92212  0.79547  Biso   1.000  C
  H62      1.0000 0.90950  0.02461  0.40993  Biso   1.000  H
  H63      1.0000 0.07571  0.98650  0.49099  Biso   1.000  H
  H64      1.0000 0.06333  0.03211  0.37031  Biso   1.000  H
  H65      1.0000 0.67728  0.09622  0.14092  Biso   1.000  H
  H66      1.0000 0.11360  0.88581  0.81899  Biso   1.000  H
