data_image0
_cell_length_a       10.071
_cell_length_b       17.501
_cell_length_c       10.652
_cell_angle_alpha    90
_cell_angle_beta     115.6
_cell_angle_gamma    90

_symmetry_space_group_name_H-M    "P 1"
_symmetry_int_tables_number       1

loop_
  _symmetry_equiv_pos_as_xyz
  'x, y, z'

loop_
  _atom_site_label
  _atom_site_occupancy
  _atom_site_fract_x
  _atom_site_fract_y
  _atom_site_fract_z
  _atom_site_thermal_displace_type
  _atom_site_B_iso_or_equiv
  _atom_site_type_symbol
  C1       1.0000 0.56083  0.60757  0.36070  Biso   1.000  C
  C2       1.0000 0.56310  0.60128  0.21944  Biso   1.000  C
  H1       1.0000 0.63523  0.57431  0.42680  Biso   1.000  H
  H2       1.0000 0.46546  0.59157  0.35341  Biso   1.000  H
  N1       1.0000 0.58992  0.68796  0.41108  Biso   1.000  N
  C3       1.0000 0.43033  0.60157  0.09796  Biso   1.000  C
  C4       1.0000 0.70060  0.60031  0.21309  Biso   1.000  C
  C5       1.0000 0.66557  0.71099  0.54620  Biso   1.000  C
  C6       1.0000 0.54359  0.74996  0.33166  Biso   1.000  C
  C7       1.0000 0.28337  0.60379  0.10576  Biso   1.000  C
  C8       1.0000 0.43616  0.60259  0.96710  Biso   1.000  C
  C9       1.0000 0.70299  0.60208  0.08297  Biso   1.000  C
  C10      1.0000 0.84303  0.60179  0.34550  Biso   1.000  C
  C11      1.0000 0.66557  0.78898  0.54620  Biso   1.000  C
  H3       1.0000 0.70896  0.67939  0.62355  Biso   1.000  H
  H4       1.0000 0.48761  0.74996  0.23568  Biso   1.000  H
  N2       1.0000 0.58992  0.81195  0.41108  Biso   1.000  N
  H5       1.0000 0.28042  0.64739  0.15906  Biso   1.000  H
  H6       1.0000 0.20522  0.60728  0.01343  Biso   1.000  H
  H7       1.0000 0.27172  0.55797  0.14959  Biso   1.000  H
  C12      1.0000 0.57127  0.60368  0.95878  Biso   1.000  C
  C13      1.0000 0.29399  0.60699  0.83417  Biso   1.000  C
  C14      1.0000 0.84857  0.60871  0.07235  Biso   1.000  C
  H8       1.0000 0.89975  0.55688  0.34967  Biso   1.000  H
  H9       1.0000 0.89863  0.64648  0.34613  Biso   1.000  H
  H10      1.0000 0.82115  0.60277  0.42472  Biso   1.000  H
  H11      1.0000 0.70896  0.82058  0.62355  Biso   1.000  H
  C15      1.0000 0.56083  0.89241  0.36070  Biso   1.000  C
  C16      1.0000 0.57520  0.61071  0.81897  Biso   1.000  C
  H12      1.0000 0.21769  0.57831  0.84604  Biso   1.000  H
  H13      1.0000 0.30871  0.58420  0.75818  Biso   1.000  H
  N3       1.0000 0.24637  0.68779  0.79972  Biso   1.000  N
  H14      1.0000 0.84817  0.57471  0.00021  Biso   1.000  H
  H15      1.0000 0.92880  0.59357  0.15989  Biso   1.000  H
  N4       1.0000 0.87083  0.68779  0.03935  Biso   1.000  N
  C17      1.0000 0.56310  0.89869  0.21944  Biso   1.000  C
  H16      1.0000 0.63523  0.92566  0.42680  Biso   1.000  H
  H17      1.0000 0.46546  0.90841  0.35341  Biso   1.000  H
  H18      1.0000 0.55483  0.66259  0.78702  Biso   1.000  H
  H19      1.0000 0.67099  0.59648  0.82803  Biso   1.000  H
  H20      1.0000 0.50243  0.57757  0.75318  Biso   1.000  H
  C18      1.0000 0.32530  0.74996  0.85749  Biso   1.000  C
  C19      1.0000 0.11296  0.71116  0.70030  Biso   1.000  C
  C20      1.0000 0.83726  0.74996  0.09192  Biso   1.000  C
  C21      1.0000 0.93149  0.71116  0.95243  Biso   1.000  C
  C22      1.0000 0.70060  0.89966  0.21309  Biso   1.000  C
  C23      1.0000 0.43033  0.89841  0.09796  Biso   1.000  C
  H21      1.0000 0.42101  0.74996  0.92765  Biso   1.000  H
  N5       1.0000 0.24637  0.81218  0.79972  Biso   1.000  N
  C24      1.0000 0.11296  0.78875  0.70030  Biso   1.000  C
  H22      1.0000 0.03620  0.67968  0.64315  Biso   1.000  H
  H23      1.0000 0.79643  0.74996  0.15531  Biso   1.000  H
  N6       1.0000 0.87083  0.81218  0.03935  Biso   1.000  N
  C25      1.0000 0.93149  0.78875  0.95243  Biso   1.000  C
  H24      1.0000 0.96614  0.67968  0.90267  Biso   1.000  H
  C26      1.0000 0.70299  0.89789  0.08297  Biso   1.000  C
  C27      1.0000 0.84303  0.89818  0.34550  Biso   1.000  C
  C28      1.0000 0.43616  0.89738  0.96710  Biso   1.000  C
  C29      1.0000 0.28337  0.89618  0.10576  Biso   1.000  C
  C30      1.0000 0.29399  0.89298  0.83417  Biso   1.000  C
  H25      1.0000 0.03620  0.82030  0.64315  Biso   1.000  H
  C31      1.0000 0.84857  0.89126  0.07235  Biso   1.000  C
  H26      1.0000 0.96614  0.82030  0.90267  Biso   1.000  H
  C32      1.0000 0.57127  0.89629  0.95878  Biso   1.000  C
  H27      1.0000 0.89975  0.94309  0.34967  Biso   1.000  H
  H28      1.0000 0.89863  0.85349  0.34613  Biso   1.000  H
  H29      1.0000 0.82115  0.89721  0.42472  Biso   1.000  H
  H30      1.0000 0.28042  0.85258  0.15906  Biso   1.000  H
  H31      1.0000 0.20522  0.89269  0.01343  Biso   1.000  H
  H32      1.0000 0.27172  0.94200  0.14959  Biso   1.000  H
  H33      1.0000 0.21769  0.92166  0.84604  Biso   1.000  H
  H34      1.0000 0.30871  0.91578  0.75818  Biso   1.000  H
  H35      1.0000 0.84817  0.92526  0.00021  Biso   1.000  H
  H36      1.0000 0.92880  0.90641  0.15989  Biso   1.000  H
  C33      1.0000 0.57520  0.88926  0.81897  Biso   1.000  C
  H37      1.0000 0.55483  0.83738  0.78702  Biso   1.000  H
  H38      1.0000 0.67099  0.90349  0.82803  Biso   1.000  H
  H39      1.0000 0.50243  0.92240  0.75318  Biso   1.000  H
  C34      1.0000 0.43921  0.39238  0.63927  Biso   1.000  C
  N7       1.0000 0.41003  0.31198  0.58888  Biso   1.000  N
  C35      1.0000 0.43684  0.39866  0.78053  Biso   1.000  C
  H40      1.0000 0.36481  0.42569  0.57316  Biso   1.000  H
  H41      1.0000 0.53449  0.40838  0.64655  Biso   1.000  H
  C36      1.0000 0.33437  0.28901  0.45376  Biso   1.000  C
  C37      1.0000 0.45635  0.24999  0.66831  Biso   1.000  C
  C38      1.0000 0.29934  0.39969  0.78688  Biso   1.000  C
  C39      1.0000 0.56966  0.39838  0.90191  Biso   1.000  C
  C40      1.0000 0.33437  0.21102  0.45376  Biso   1.000  C
  H42      1.0000 0.29098  0.32061  0.37642  Biso   1.000  H
  N8       1.0000 0.41003  0.18799  0.58888  Biso   1.000  N
  H43      1.0000 0.51233  0.24999  0.76429  Biso   1.000  H
  C41      1.0000 0.29695  0.39786  0.91700  Biso   1.000  C
  C42      1.0000 0.15691  0.39821  0.65446  Biso   1.000  C
  C43      1.0000 0.71658  0.39621  0.89420  Biso   1.000  C
  C44      1.0000 0.56378  0.39741  0.03286  Biso   1.000  C
  H44      1.0000 0.29098  0.17942  0.37642  Biso   1.000  H
  C45      1.0000 0.43921  0.10759  0.63927  Biso   1.000  C
  C46      1.0000 0.15132  0.39129  0.92751  Biso   1.000  C
  C47      1.0000 0.42867  0.39626  0.04119  Biso   1.000  C
  H45      1.0000 0.10029  0.44312  0.65030  Biso   1.000  H
  H46      1.0000 0.10132  0.35347  0.65384  Biso   1.000  H
  H47      1.0000 0.17889  0.39718  0.57525  Biso   1.000  H
  H48      1.0000 0.71962  0.35261  0.84090  Biso   1.000  H
  H49      1.0000 0.79472  0.39266  0.98654  Biso   1.000  H
  H50      1.0000 0.72822  0.44197  0.85038  Biso   1.000  H
  C48      1.0000 0.70595  0.39301  0.16580  Biso   1.000  C
  C49      1.0000 0.43684  0.10131  0.78053  Biso   1.000  C
  H51      1.0000 0.36481  0.07428  0.57316  Biso   1.000  H
  H52      1.0000 0.53449  0.09159  0.64655  Biso   1.000  H
  H53      1.0000 0.15187  0.42529  0.99976  Biso   1.000  H
  H54      1.0000 0.07114  0.40638  0.84007  Biso   1.000  H
  N9       1.0000 0.12907  0.31221  0.96051  Biso   1.000  N
  C50      1.0000 0.42475  0.38929  0.18099  Biso   1.000  C
  H55      1.0000 0.78225  0.42169  0.15393  Biso   1.000  H
  H56      1.0000 0.69123  0.41580  0.24179  Biso   1.000  H
  N10      1.0000 0.75357  0.31221  0.20025  Biso   1.000  N
  C51      1.0000 0.29934  0.10028  0.78688  Biso   1.000  C
  C52      1.0000 0.56966  0.10159  0.90191  Biso   1.000  C
  C53      1.0000 0.16268  0.24999  0.90805  Biso   1.000  C
  C54      1.0000 0.06845  0.28878  0.04754  Biso   1.000  C
  H57      1.0000 0.44511  0.33741  0.21295  Biso   1.000  H
  H58      1.0000 0.32896  0.40346  0.17194  Biso   1.000  H
  H59      1.0000 0.49751  0.42238  0.24678  Biso   1.000  H
  C55      1.0000 0.67464  0.24999  0.14248  Biso   1.000  C
  C56      1.0000 0.88698  0.28878  0.29967  Biso   1.000  C
  C57      1.0000 0.29695  0.10211  0.91700  Biso   1.000  C
  C58      1.0000 0.15691  0.10182  0.65446  Biso   1.000  C
  C59      1.0000 0.71658  0.10382  0.89420  Biso   1.000  C
  C60      1.0000 0.56378  0.10262  0.03286  Biso   1.000  C
  N11      1.0000 0.12907  0.18782  0.96051  Biso   1.000  N
  H60      1.0000 0.20351  0.24999  0.84465  Biso   1.000  H
  C61      1.0000 0.06845  0.21119  0.04754  Biso   1.000  C
  H61      1.0000 0.03390  0.32027  0.09730  Biso   1.000  H
  N12      1.0000 0.75357  0.18782  0.20025  Biso   1.000  N
  H62      1.0000 0.57903  0.24999  0.07231  Biso   1.000  H
  C62      1.0000 0.88698  0.21119  0.29967  Biso   1.000  C
  H63      1.0000 0.96374  0.32027  0.35682  Biso   1.000  H
  C63      1.0000 0.15132  0.10868  0.92751  Biso   1.000  C
  C64      1.0000 0.42867  0.10371  0.04119  Biso   1.000  C
  H64      1.0000 0.10029  0.05691  0.65030  Biso   1.000  H
  H65      1.0000 0.10132  0.14651  0.65384  Biso   1.000  H
  H66      1.0000 0.17889  0.10279  0.57525  Biso   1.000  H
  H67      1.0000 0.71962  0.14742  0.84090  Biso   1.000  H
  H68      1.0000 0.79472  0.10731  0.98654  Biso   1.000  H
  H69      1.0000 0.72822  0.05800  0.85038  Biso   1.000  H
  C65      1.0000 0.70595  0.10702  0.16580  Biso   1.000  C
  H70      1.0000 0.03390  0.17970  0.09730  Biso   1.000  H
  H71      1.0000 0.96374  0.17970  0.35682  Biso   1.000  H
  H72      1.0000 0.15187  0.07468  0.99976  Biso   1.000  H
  H73      1.0000 0.07114  0.09359  0.84007  Biso   1.000  H
  C66      1.0000 0.42475  0.11068  0.18099  Biso   1.000  C
  H74      1.0000 0.78225  0.07828  0.15393  Biso   1.000  H
  H75      1.0000 0.69123  0.08422  0.24179  Biso   1.000  H
  H76      1.0000 0.44511  0.16262  0.21295  Biso   1.000  H
  H77      1.0000 0.32896  0.09651  0.17194  Biso   1.000  H
  H78      1.0000 0.49751  0.07760  0.24678  Biso   1.000  H
  Ne1      1.0000 0.43177  0.25000  0.91447  Biso   1.000  Ne
  He1      1.0000 0.32928  0.25001  0.16400  Biso   1.000  He
  He2      1.0000 0.54911  0.22557  0.91911  Biso   1.000  He
  He3      1.0000 0.31979  0.22719  0.78273  Biso   1.000  He
  Ar1      1.0000 0.41278  0.25000  0.88819  Biso   1.000  Ar
  Ne2      1.0000 0.56818  0.74998  0.08548  Biso   1.000  Ne
  He4      1.0000 0.70428  0.72688  0.24289  Biso   1.000  He
  He5      1.0000 0.44562  0.77436  0.08026  Biso   1.000  He
  He6      1.0000 0.59384  0.76796  0.96234  Biso   1.000  He
  Ar2      1.0000 0.58717  0.74999  0.11180  Biso   1.000  Ar
