data_image0
_cell_length_a       11.894
_cell_length_b       15.526
_cell_length_c       14.86
_cell_angle_alpha    90
_cell_angle_beta     91.67
_cell_angle_gamma    90

_symmetry_space_group_name_H-M    "P 1"
_symmetry_int_tables_number       1

loop_
  _symmetry_equiv_pos_as_xyz
  'x, y, z'

loop_
  _atom_site_label
  _atom_site_occupancy
  _atom_site_fract_x
  _atom_site_fract_y
  _atom_site_fract_z
  _atom_site_thermal_displace_type
  _atom_site_B_iso_or_equiv
  _atom_site_type_symbol
  C1       1.0000 0.61966  0.25680  0.21981  Biso   1.000  C
  N1       1.0000 0.50037  0.27522  0.22028  Biso   1.000  N
  C2       1.0000 0.63603  0.21821  0.12468  Biso   1.000  C
  N2       1.0000 0.69073  0.33247  0.22069  Biso   1.000  N
  H1       1.0000 0.64226  0.21570  0.26788  Biso   1.000  H
  C3       1.0000 0.44486  0.25068  0.14111  Biso   1.000  C
  C4       1.0000 0.44157  0.29982  0.30040  Biso   1.000  C
  N3       1.0000 0.52516  0.22472  0.08153  Biso   1.000  N
  N4       1.0000 0.72008  0.27451  0.08691  Biso   1.000  N
  H2       1.0000 0.66247  0.15780  0.12798  Biso   1.000  H
  C5       1.0000 0.74885  0.34123  0.14279  Biso   1.000  C
  C6       1.0000 0.70785  0.38748  0.29831  Biso   1.000  C
  O1       1.0000 0.34377  0.25203  0.12650  Biso   1.000  O
  N5       1.0000 0.43453  0.39250  0.31474  Biso   1.000  N
  H3       1.0000 0.36509  0.27631  0.29642  Biso   1.000  H
  H4       1.0000 0.47972  0.27367  0.35291  Biso   1.000  H
  C7       1.0000 0.49633  0.18479  0.99630  Biso   1.000  C
  C8       1.0000 0.78114  0.25538  0.00653  Biso   1.000  C
  O2       1.0000 0.81714  0.39778  0.12711  Biso   1.000  O
  N6       1.0000 0.62322  0.45408  0.30383  Biso   1.000  N
  H5       1.0000 0.70673  0.35218  0.35291  Biso   1.000  H
  H6       1.0000 0.78216  0.41440  0.29562  Biso   1.000  H
  C9       1.0000 0.34764  0.44068  0.27892  Biso   1.000  C
  C10      1.0000 0.52128  0.44538  0.35574  Biso   1.000  C
  N7       1.0000 0.52721  0.23657  0.91847  Biso   1.000  N
  H7       1.0000 0.41517  0.17422  0.99313  Biso   1.000  H
  H8       1.0000 0.53431  0.12888  0.99333  Biso   1.000  H
  H9       1.0000 0.85435  0.28430  0.01070  Biso   1.000  H
  H10      1.0000 0.79518  0.19322  0.00438  Biso   1.000  H
  N8       1.0000 0.72430  0.28108  0.92339  Biso   1.000  N
  C11      1.0000 0.64865  0.53922  0.28868  Biso   1.000  C
  O3       1.0000 0.26305  0.41221  0.24183  Biso   1.000  O
  N9       1.0000 0.37300  0.52673  0.29198  Biso   1.000  N
  C12      1.0000 0.47053  0.53749  0.35210  Biso   1.000  C
  H11      1.0000 0.53894  0.42728  0.41841  Biso   1.000  H
  C13      1.0000 0.63733  0.22981  0.87868  Biso   1.000  C
  C14      1.0000 0.44776  0.26923  0.85849  Biso   1.000  C
  C15      1.0000 0.75405  0.35173  0.87451  Biso   1.000  C
  N10      1.0000 0.56097  0.58869  0.31682  Biso   1.000  N
  O4       1.0000 0.73479  0.56621  0.25549  Biso   1.000  O
  C16      1.0000 0.28635  0.59152  0.27892  Biso   1.000  C
  H12      1.0000 0.44893  0.55752  0.41242  Biso   1.000  H
  H13      1.0000 0.66079  0.16901  0.87168  Biso   1.000  H
  C17      1.0000 0.62121  0.27560  0.78672  Biso   1.000  C
  O5       1.0000 0.34732  0.27470  0.87081  Biso   1.000  O
  N11      1.0000 0.50217  0.29538  0.78248  Biso   1.000  N
  N12      1.0000 0.69316  0.35070  0.79561  Biso   1.000  N
  O6       1.0000 0.82584  0.40500  0.89740  Biso   1.000  O
  C18      1.0000 0.55673  0.68054  0.29972  Biso   1.000  C
  N13      1.0000 0.30675  0.64930  0.20439  Biso   1.000  N
  H14      1.0000 0.21390  0.56280  0.26822  Biso   1.000  H
  H15      1.0000 0.28121  0.62553  0.33419  Biso   1.000  H
  H16      1.0000 0.64333  0.23831  0.73623  Biso   1.000  H
  C19      1.0000 0.44318  0.31953  0.70028  Biso   1.000  C
  C20      1.0000 0.71357  0.40848  0.72108  Biso   1.000  C
  N14      1.0000 0.49775  0.70462  0.21752  Biso   1.000  N
  H17      1.0000 0.63393  0.70243  0.29784  Biso   1.000  H
  H18      1.0000 0.52040  0.70868  0.35022  Biso   1.000  H
  C21      1.0000 0.24587  0.64833  0.12549  Biso   1.000  C
  C22      1.0000 0.37871  0.72440  0.21328  Biso   1.000  C
  N15      1.0000 0.43894  0.41131  0.68318  Biso   1.000  N
  H19      1.0000 0.36599  0.29763  0.70223  Biso   1.000  H
  H20      1.0000 0.47951  0.29132  0.64978  Biso   1.000  H
  N16      1.0000 0.62692  0.47334  0.70802  Biso   1.000  N
  H21      1.0000 0.78601  0.43720  0.73178  Biso   1.000  H
  H22      1.0000 0.71870  0.37453  0.66581  Biso   1.000  H
  C23      1.0000 0.55215  0.73077  0.14151  Biso   1.000  C
  O7       1.0000 0.17407  0.59500  0.10260  Biso   1.000  O
  N17      1.0000 0.27562  0.71892  0.07661  Biso   1.000  N
  C24      1.0000 0.36258  0.77019  0.12132  Biso   1.000  C
  H23      1.0000 0.35659  0.76169  0.26384  Biso   1.000  H
  C25      1.0000 0.52930  0.46251  0.64790  Biso   1.000  C
  C26      1.0000 0.35127  0.46078  0.71132  Biso   1.000  C
  C27      1.0000 0.65220  0.55932  0.72108  Biso   1.000  C
  N18      1.0000 0.47270  0.76343  0.08153  Biso   1.000  N
  O8       1.0000 0.65259  0.72530  0.12919  Biso   1.000  O
  C28      1.0000 0.21878  0.74462  0.99354  Biso   1.000  C
  H24      1.0000 0.33904  0.83099  0.12832  Biso   1.000  H
  H25      1.0000 0.55098  0.44248  0.58758  Biso   1.000  H
  C29      1.0000 0.47864  0.55462  0.64426  Biso   1.000  C
  O9       1.0000 0.26512  0.43379  0.74451  Biso   1.000  O
  N19      1.0000 0.37661  0.54592  0.69617  Biso   1.000  N
  O10      1.0000 0.73687  0.58779  0.75817  Biso   1.000  O
  N20      1.0000 0.56530  0.60750  0.68526  Biso   1.000  N
  C30      1.0000 0.50358  0.81521  0.00370  Biso   1.000  C
  N21      1.0000 0.27984  0.72549  0.91309  Biso   1.000  N
  H26      1.0000 0.14557  0.71570  0.98930  Biso   1.000  H
  H27      1.0000 0.20473  0.80678  0.99562  Biso   1.000  H
  H28      1.0000 0.46097  0.57272  0.58159  Biso   1.000  H
  C31      1.0000 0.29206  0.61252  0.70169  Biso   1.000  C
  C32      1.0000 0.55834  0.70018  0.69960  Biso   1.000  C
  H29      1.0000 0.58475  0.82578  0.00687  Biso   1.000  H
  H30      1.0000 0.46561  0.87112  0.00673  Biso   1.000  H
  N22      1.0000 0.47475  0.77528  0.91847  Biso   1.000  N
  C33      1.0000 0.25106  0.65883  0.85721  Biso   1.000  C
  C34      1.0000 0.36388  0.78179  0.87532  Biso   1.000  C
  N23      1.0000 0.30918  0.66753  0.77931  Biso   1.000  N
  H31      1.0000 0.29319  0.64782  0.64709  Biso   1.000  H
  H32      1.0000 0.21776  0.58560  0.70438  Biso   1.000  H
  N24      1.0000 0.49955  0.72478  0.77972  Biso   1.000  N
  H33      1.0000 0.63483  0.72369  0.70358  Biso   1.000  H
  H34      1.0000 0.52011  0.72633  0.64709  Biso   1.000  H
  C35      1.0000 0.55506  0.74932  0.85889  Biso   1.000  C
  O11      1.0000 0.18278  0.60222  0.87289  Biso   1.000  O
  C36      1.0000 0.38026  0.74320  0.78019  Biso   1.000  C
  H35      1.0000 0.33745  0.84220  0.87202  Biso   1.000  H
  O12      1.0000 0.65615  0.74804  0.87350  Biso   1.000  O
  H36      1.0000 0.35766  0.78430  0.73212  Biso   1.000  H
  O13      1.0000 0.84737  0.22530  0.37082  Biso   1.000  O
  C37      1.0000 0.94773  0.23077  0.35850  Biso   1.000  C
  N25      1.0000 0.00213  0.20462  0.28249  Biso   1.000  N
  N26      1.0000 0.02718  0.26343  0.41848  Biso   1.000  N
  C38      1.0000 0.94314  0.18047  0.20029  Biso   1.000  C
  C39      1.0000 0.12117  0.22440  0.28673  Biso   1.000  C
  C40      1.0000 0.13730  0.27019  0.37869  Biso   1.000  C
  C41      1.0000 0.99629  0.31521  0.49631  Biso   1.000  C
  N27      1.0000 0.93899  0.08869  0.18319  Biso   1.000  N
  H37      1.0000 0.86595  0.20237  0.20217  Biso   1.000  H
  H38      1.0000 0.97956  0.20868  0.14979  Biso   1.000  H
  N28      1.0000 0.19312  0.14930  0.29562  Biso   1.000  N
  H39      1.0000 0.14329  0.26169  0.23624  Biso   1.000  H
  N29      1.0000 0.22426  0.21892  0.42340  Biso   1.000  N
  H40      1.0000 0.16075  0.33099  0.37169  Biso   1.000  H
  H41      1.0000 0.91513  0.32578  0.49314  Biso   1.000  H
  N30      1.0000 0.02513  0.27528  0.58154  Biso   1.000  N
  H42      1.0000 0.03427  0.37112  0.49335  Biso   1.000  H
  C42      1.0000 0.85123  0.03922  0.21133  Biso   1.000  C
  C43      1.0000 0.02935  0.03749  0.14791  Biso   1.000  C
  C44      1.0000 0.21353  0.09152  0.22109  Biso   1.000  C
  C45      1.0000 0.25401  0.14833  0.37452  Biso   1.000  C
  C46      1.0000 0.28110  0.24462  0.50654  Biso   1.000  C
  C47      1.0000 0.94482  0.24932  0.64112  Biso   1.000  C
  C48      1.0000 0.13600  0.28179  0.62469  Biso   1.000  C
  O14      1.0000 0.76517  0.06621  0.24452  Biso   1.000  O
  N31      1.0000 0.87666  0.95408  0.19618  Biso   1.000  N
  C49      1.0000 0.97869  0.94538  0.14427  Biso   1.000  C
  N32      1.0000 0.12688  0.02673  0.20803  Biso   1.000  N
  H43      1.0000 0.05094  0.05752  0.08759  Biso   1.000  H
  H44      1.0000 0.28597  0.06280  0.23179  Biso   1.000  H
  H45      1.0000 0.21867  0.12553  0.16582  Biso   1.000  H
  O15      1.0000 0.32580  0.09500  0.39741  Biso   1.000  O
  N33      1.0000 0.21996  0.22549  0.58692  Biso   1.000  N
  H46      1.0000 0.35431  0.21570  0.51071  Biso   1.000  H
  H47      1.0000 0.29506  0.30678  0.50439  Biso   1.000  H
  O16      1.0000 0.84373  0.24797  0.62651  Biso   1.000  O
  N34      1.0000 0.00025  0.22478  0.72029  Biso   1.000  N
  C50      1.0000 0.11962  0.24320  0.71982  Biso   1.000  C
  H48      1.0000 0.16235  0.34220  0.62799  Biso   1.000  H
  C51      1.0000 0.79203  0.88748  0.20170  Biso   1.000  C
  H49      1.0000 0.96093  0.92728  0.08160  Biso   1.000  H
  N35      1.0000 0.06526  0.89250  0.18527  Biso   1.000  N
  C52      1.0000 0.15224  0.94068  0.22109  Biso   1.000  C
  C53      1.0000 0.24881  0.15883  0.64280  Biso   1.000  C
  C54      1.0000 0.94154  0.20018  0.80041  Biso   1.000  C
  N36      1.0000 0.19069  0.16753  0.72070  Biso   1.000  N
  H50      1.0000 0.14213  0.28430  0.76789  Biso   1.000  H
  N37      1.0000 0.80914  0.83247  0.27932  Biso   1.000  N
  H51      1.0000 0.79315  0.85218  0.14710  Biso   1.000  H
  H52      1.0000 0.71780  0.91440  0.20439  Biso   1.000  H
  C55      1.0000 0.05830  0.79982  0.19961  Biso   1.000  C
  O17      1.0000 0.23683  0.91221  0.25819  Biso   1.000  O
  O18      1.0000 0.31710  0.10222  0.62712  Biso   1.000  O
  N38      1.0000 0.93449  0.10750  0.81475  Biso   1.000  N
  H53      1.0000 0.86505  0.22369  0.79644  Biso   1.000  H
  H54      1.0000 0.97968  0.22633  0.85292  Biso   1.000  H
  C56      1.0000 0.20781  0.11252  0.79832  Biso   1.000  C
  C57      1.0000 0.75103  0.84123  0.35722  Biso   1.000  C
  C58      1.0000 0.88022  0.75680  0.28020  Biso   1.000  C
  N39      1.0000 0.99951  0.77522  0.27973  Biso   1.000  N
  H55      1.0000 0.13479  0.77631  0.20359  Biso   1.000  H
  H56      1.0000 0.02007  0.77373  0.14710  Biso   1.000  H
  C59      1.0000 0.84760  0.05932  0.77893  Biso   1.000  C
  C60      1.0000 0.02115  0.05462  0.85575  Biso   1.000  C
  N40      1.0000 0.12318  0.04592  0.80384  Biso   1.000  N
  H57      1.0000 0.20669  0.14782  0.85292  Biso   1.000  H
  H58      1.0000 0.28204  0.08560  0.79563  Biso   1.000  H
  O19      1.0000 0.68274  0.89778  0.37290  Biso   1.000  O
  N41      1.0000 0.77988  0.77451  0.41310  Biso   1.000  N
  H59      1.0000 0.85762  0.71570  0.23213  Biso   1.000  H
  C61      1.0000 0.86384  0.71821  0.37533  Biso   1.000  C
  C62      1.0000 0.05502  0.75068  0.35890  Biso   1.000  C
  N42      1.0000 0.87296  0.97334  0.79199  Biso   1.000  N
  O20      1.0000 0.76301  0.08779  0.74184  Biso   1.000  O
  C63      1.0000 0.97049  0.96251  0.85211  Biso   1.000  C
  H60      1.0000 0.03890  0.07272  0.91843  Biso   1.000  H
  C64      1.0000 0.14861  0.96078  0.78869  Biso   1.000  C
  C65      1.0000 0.71874  0.75538  0.49348  Biso   1.000  C
  N43      1.0000 0.97471  0.72472  0.41848  Biso   1.000  N
  H61      1.0000 0.83749  0.65780  0.37203  Biso   1.000  H
  O21      1.0000 0.15611  0.75203  0.37351  Biso   1.000  O
  C66      1.0000 0.78631  0.90848  0.77893  Biso   1.000  C
  N44      1.0000 0.06085  0.91131  0.81683  Biso   1.000  N
  H62      1.0000 0.94889  0.94248  0.91243  Biso   1.000  H
  O22      1.0000 0.23467  0.93379  0.75550  Biso   1.000  O
  N45      1.0000 0.77558  0.78108  0.57662  Biso   1.000  N
  H63      1.0000 0.64553  0.78430  0.48931  Biso   1.000  H
  H64      1.0000 0.70478  0.69322  0.49563  Biso   1.000  H
  C67      1.0000 0.00346  0.68479  0.50371  Biso   1.000  C
  N46      1.0000 0.80671  0.85070  0.70440  Biso   1.000  N
  H65      1.0000 0.71386  0.93720  0.76823  Biso   1.000  H
  H66      1.0000 0.78109  0.87453  0.83420  Biso   1.000  H
  C68      1.0000 0.05670  0.81953  0.79973  Biso   1.000  C
  C69      1.0000 0.74583  0.85173  0.62550  Biso   1.000  C
  C70      1.0000 0.86254  0.72981  0.62133  Biso   1.000  C
  N47      1.0000 0.97266  0.73664  0.58154  Biso   1.000  N
  H67      1.0000 0.96557  0.62888  0.50674  Biso   1.000  H
  H68      1.0000 0.08471  0.67422  0.50694  Biso   1.000  H
  C71      1.0000 0.87867  0.77560  0.71329  Biso   1.000  C
  N48      1.0000 0.99771  0.79538  0.71753  Biso   1.000  N
  H69      1.0000 0.13389  0.79763  0.79785  Biso   1.000  H
  H70      1.0000 0.02028  0.79132  0.85023  Biso   1.000  H
  O23      1.0000 0.67403  0.90500  0.60261  Biso   1.000  O
  H71      1.0000 0.83900  0.66901  0.62833  Biso   1.000  H
  C72      1.0000 0.05211  0.76923  0.64152  Biso   1.000  C
  H72      1.0000 0.85655  0.73831  0.76385  Biso   1.000  H
  O24      1.0000 0.15247  0.77470  0.62920  Biso   1.000  O
  Ne1      1.0000 0.49995  0.50000  0.00000  Biso   1.000  Ne
  He1      1.0000 0.74713  0.58382  0.98951  Biso   1.000  He
  He2      1.0000 0.26508  0.41979  0.01119  Biso   1.000  He
  Ar1      1.0000 0.49995  0.50000  1.00000  Biso   1.000  Ar
  Ne2      1.0000 0.99992  0.00000  0.50001  Biso   1.000  Ne
  He3      1.0000 0.27517  0.90800  0.49129  Biso   1.000  He
  He4      1.0000 0.73287  0.08961  0.50923  Biso   1.000  He
  Ar2      1.0000 0.99992  0.00000  0.50001  Biso   1.000  Ar
