data_image0
_cell_length_a       14.666
_cell_length_b       14.666
_cell_length_c       12.223
_cell_angle_alpha    90
_cell_angle_beta     90
_cell_angle_gamma    120

_symmetry_space_group_name_H-M    "P 1"
_symmetry_int_tables_number       1

loop_
  _symmetry_equiv_pos_as_xyz
  'x, y, z'

loop_
  _atom_site_label
  _atom_site_occupancy
  _atom_site_fract_x
  _atom_site_fract_y
  _atom_site_fract_z
  _atom_site_thermal_displace_type
  _atom_site_B_iso_or_equiv
  _atom_site_type_symbol
  O1       1.0000 0.48917  0.34776  0.53571  Biso   1.000  O
  C1       1.0000 0.57135  0.34194  0.53792  Biso   1.000  C
  C2       1.0000 0.67572  0.43532  0.53767  Biso   1.000  C
  C3       1.0000 0.56468  0.24037  0.53767  Biso   1.000  C
  C4       1.0000 0.67832  0.53011  0.53759  Biso   1.000  C
  C5       1.0000 0.77060  0.42870  0.53792  Biso   1.000  C
  C6       1.0000 0.65815  0.22943  0.53792  Biso   1.000  C
  C7       1.0000 0.46990  0.14818  0.53759  Biso   1.000  C
  N1       1.0000 0.75949  0.62207  0.53849  Biso   1.000  N
  H1       1.0000 0.62104  0.53704  0.53800  Biso   1.000  H
  O2       1.0000 0.85864  0.51082  0.53571  Biso   1.000  O
  C8       1.0000 0.75959  0.32430  0.53767  Biso   1.000  C
  O3       1.0000 0.65218  0.14140  0.53571  Biso   1.000  O
  N2       1.0000 0.37791  0.13739  0.53849  Biso   1.000  N
  H2       1.0000 0.46298  0.08401  0.53800  Biso   1.000  H
  H3       1.0000 0.81932  0.62459  0.53555  Biso   1.000  H
  C9       1.0000 0.76378  0.72379  0.54381  Biso   1.000  C
  C10      1.0000 0.85177  0.32170  0.53759  Biso   1.000  C
  H4       1.0000 0.37541  0.19471  0.53555  Biso   1.000  H
  C11      1.0000 0.27617  0.04000  0.54381  Biso   1.000  C
  C12      1.0000 0.81890  0.78426  0.64616  Biso   1.000  C
  H5       1.0000 0.69098  0.71198  0.53399  Biso   1.000  H
  H6       1.0000 0.79900  0.76300  0.47100  Biso   1.000  H
  N3       1.0000 0.86259  0.24053  0.53849  Biso   1.000  N
  H7       1.0000 0.91602  0.37902  0.53800  Biso   1.000  H
  C13      1.0000 0.21570  0.03456  0.64616  Biso   1.000  C
  H8       1.0000 0.23700  0.03598  0.47100  Biso   1.000  H
  H9       1.0000 0.28800  0.97898  0.53399  Biso   1.000  H
  H10      1.0000 0.82158  0.85181  0.64559  Biso   1.000  H
  H11      1.0000 0.89068  0.79772  0.64649  Biso   1.000  H
  C14      1.0000 0.76311  0.72450  0.74998  Biso   1.000  C
  H12      1.0000 0.80527  0.18069  0.53555  Biso   1.000  H
  C15      1.0000 0.95998  0.23620  0.54381  Biso   1.000  C
  H13      1.0000 0.20229  0.09298  0.64649  Biso   1.000  H
  C16      1.0000 0.27546  0.03858  0.74998  Biso   1.000  C
  H14      1.0000 0.14819  0.96977  0.64559  Biso   1.000  H
  H15      1.0000 0.68198  0.71198  0.74998  Biso   1.000  H
  H16      1.0000 0.72501  0.65199  0.74998  Biso   1.000  H
  C17      1.0000 0.81890  0.78426  0.85380  Biso   1.000  C
  C18      1.0000 0.96542  0.18109  0.64616  Biso   1.000  C
  H17      1.0000 0.96400  0.20101  0.47100  Biso   1.000  H
  H18      1.0000 0.02101  0.30903  0.53399  Biso   1.000  H
  H19      1.0000 0.34796  0.07299  0.74998  Biso   1.000  H
  C19      1.0000 0.21570  0.03456  0.85380  Biso   1.000  C
  H20      1.0000 0.28802  0.97000  0.74998  Biso   1.000  H
  C20      1.0000 0.76378  0.72379  0.95615  Biso   1.000  C
  H21      1.0000 0.82158  0.85181  0.85437  Biso   1.000  H
  H22      1.0000 0.89068  0.79772  0.85347  Biso   1.000  H
  H23      1.0000 0.90702  0.10928  0.64649  Biso   1.000  H
  C21      1.0000 0.96142  0.23691  0.74998  Biso   1.000  C
  H24      1.0000 0.03022  0.17841  0.64559  Biso   1.000  H
  C22      1.0000 0.27617  0.04000  0.95615  Biso   1.000  C
  H25      1.0000 0.20229  0.09298  0.85347  Biso   1.000  H
  H26      1.0000 0.14819  0.96977  0.85437  Biso   1.000  H
  N4       1.0000 0.75949  0.62207  0.96147  Biso   1.000  N
  H27      1.0000 0.69098  0.71198  0.96597  Biso   1.000  H
  H28      1.0000 0.79900  0.76300  0.02896  Biso   1.000  H
  H29      1.0000 0.92702  0.27501  0.74998  Biso   1.000  H
  C23      1.0000 0.96542  0.18109  0.85380  Biso   1.000  C
  H30      1.0000 0.03000  0.31800  0.74998  Biso   1.000  H
  N5       1.0000 0.37791  0.13739  0.96147  Biso   1.000  N
  H31      1.0000 0.28800  0.97898  0.96597  Biso   1.000  H
  H32      1.0000 0.23700  0.03598  0.02896  Biso   1.000  H
  H33      1.0000 0.81932  0.62459  0.96441  Biso   1.000  H
  C24      1.0000 0.67832  0.53011  0.96237  Biso   1.000  C
  C25      1.0000 0.95998  0.23620  0.95615  Biso   1.000  C
  H34      1.0000 0.90702  0.10928  0.85347  Biso   1.000  H
  H35      1.0000 0.03022  0.17841  0.85437  Biso   1.000  H
  H36      1.0000 0.37541  0.19471  0.96441  Biso   1.000  H
  C26      1.0000 0.46990  0.14818  0.96237  Biso   1.000  C
  C27      1.0000 0.67572  0.43532  0.96228  Biso   1.000  C
  H37      1.0000 0.62104  0.53704  0.96196  Biso   1.000  H
  N6       1.0000 0.86259  0.24053  0.96147  Biso   1.000  N
  H38      1.0000 0.96400  0.20101  0.02896  Biso   1.000  H
  H39      1.0000 0.02101  0.30903  0.96597  Biso   1.000  H
  C28      1.0000 0.56468  0.24037  0.96228  Biso   1.000  C
  H40      1.0000 0.46298  0.08401  0.96196  Biso   1.000  H
  C29      1.0000 0.77060  0.42870  0.96204  Biso   1.000  C
  C30      1.0000 0.57135  0.34194  0.96204  Biso   1.000  C
  H41      1.0000 0.80527  0.18069  0.96441  Biso   1.000  H
  C31      1.0000 0.85177  0.32170  0.96237  Biso   1.000  C
  C32      1.0000 0.65815  0.22943  0.96204  Biso   1.000  C
  O4       1.0000 0.85864  0.51082  0.96425  Biso   1.000  O
  C33      1.0000 0.75959  0.32430  0.96228  Biso   1.000  C
  O5       1.0000 0.48917  0.34776  0.96425  Biso   1.000  O
  H42      1.0000 0.91602  0.37902  0.96196  Biso   1.000  H
  O6       1.0000 0.65218  0.14140  0.96425  Biso   1.000  O
  O7       1.0000 0.51083  0.65223  0.46429  Biso   1.000  O
  C34      1.0000 0.42868  0.65813  0.46208  Biso   1.000  C
  C35      1.0000 0.32427  0.56467  0.46233  Biso   1.000  C
  C36      1.0000 0.43531  0.75962  0.46233  Biso   1.000  C
  C37      1.0000 0.32167  0.46988  0.46241  Biso   1.000  C
  C38      1.0000 0.22939  0.57129  0.46208  Biso   1.000  C
  C39      1.0000 0.34185  0.77056  0.46208  Biso   1.000  C
  C40      1.0000 0.53009  0.85181  0.46241  Biso   1.000  C
  N7       1.0000 0.24051  0.37792  0.46151  Biso   1.000  N
  H43      1.0000 0.37900  0.46303  0.46200  Biso   1.000  H
  O8       1.0000 0.14135  0.48917  0.46429  Biso   1.000  O
  C41      1.0000 0.24041  0.67569  0.46233  Biso   1.000  C
  O9       1.0000 0.34781  0.85859  0.46429  Biso   1.000  O
  N8       1.0000 0.62208  0.86260  0.46151  Biso   1.000  N
  H44      1.0000 0.53702  0.91598  0.46200  Biso   1.000  H
  C42      1.0000 0.23622  0.27620  0.45619  Biso   1.000  C
  H45      1.0000 0.18068  0.37540  0.46437  Biso   1.000  H
  C43      1.0000 0.14823  0.67829  0.46241  Biso   1.000  C
  H46      1.0000 0.62458  0.80528  0.46437  Biso   1.000  H
  C44      1.0000 0.72383  0.95999  0.45619  Biso   1.000  C
  C45      1.0000 0.18110  0.21573  0.35376  Biso   1.000  C
  H47      1.0000 0.30901  0.28801  0.46601  Biso   1.000  H
  H48      1.0000 0.20100  0.23699  0.52900  Biso   1.000  H
  N9       1.0000 0.13744  0.75954  0.46151  Biso   1.000  N
  H49      1.0000 0.08397  0.62097  0.46200  Biso   1.000  H
  C46      1.0000 0.78429  0.96543  0.35376  Biso   1.000  C
  H50      1.0000 0.76299  0.96401  0.52900  Biso   1.000  H
  H51      1.0000 0.71199  0.02101  0.46601  Biso   1.000  H
  C47      1.0000 0.23688  0.27549  0.25002  Biso   1.000  C
  H52      1.0000 0.17841  0.14818  0.35441  Biso   1.000  H
  H53      1.0000 0.10931  0.20227  0.35351  Biso   1.000  H
  H54      1.0000 0.19473  0.81930  0.46437  Biso   1.000  H
  C48      1.0000 0.04002  0.76379  0.45619  Biso   1.000  C
  C49      1.0000 0.72453  0.96141  0.25002  Biso   1.000  C
  H55      1.0000 0.79770  0.90701  0.35351  Biso   1.000  H
  H56      1.0000 0.85181  0.03022  0.35441  Biso   1.000  H
  C50      1.0000 0.18110  0.21573  0.14620  Biso   1.000  C
  H57      1.0000 0.31801  0.28801  0.25002  Biso   1.000  H
  H58      1.0000 0.27498  0.34800  0.25002  Biso   1.000  H
  C51      1.0000 0.03457  0.81890  0.35376  Biso   1.000  C
  H59      1.0000 0.03600  0.79898  0.52900  Biso   1.000  H
  H60      1.0000 0.97899  0.69096  0.46601  Biso   1.000  H
  C52      1.0000 0.78429  0.96543  0.14620  Biso   1.000  C
  H61      1.0000 0.65203  0.92700  0.25002  Biso   1.000  H
  H62      1.0000 0.71198  0.02999  0.25002  Biso   1.000  H
  C53      1.0000 0.23622  0.27620  0.04377  Biso   1.000  C
  H63      1.0000 0.17841  0.14818  0.14563  Biso   1.000  H
  H64      1.0000 0.10931  0.20227  0.14653  Biso   1.000  H
  C54      1.0000 0.03857  0.76308  0.25002  Biso   1.000  C
  H65      1.0000 0.09297  0.89071  0.35351  Biso   1.000  H
  H66      1.0000 0.96977  0.82158  0.35441  Biso   1.000  H
  C55      1.0000 0.72383  0.95999  0.04377  Biso   1.000  C
  H67      1.0000 0.79770  0.90701  0.14653  Biso   1.000  H
  H68      1.0000 0.85181  0.03022  0.14563  Biso   1.000  H
  N10      1.0000 0.24051  0.37792  0.03853  Biso   1.000  N
  H69      1.0000 0.30901  0.28801  0.03403  Biso   1.000  H
  H70      1.0000 0.20100  0.23699  0.97104  Biso   1.000  H
  C56      1.0000 0.03457  0.81890  0.14620  Biso   1.000  C
  H71      1.0000 0.07297  0.72497  0.25002  Biso   1.000  H
  H72      1.0000 0.97000  0.68199  0.25002  Biso   1.000  H
  N11      1.0000 0.62208  0.86260  0.03853  Biso   1.000  N
  H73      1.0000 0.76299  0.96401  0.97104  Biso   1.000  H
  H74      1.0000 0.71199  0.02101  0.03403  Biso   1.000  H
  H75      1.0000 0.18068  0.37540  0.03559  Biso   1.000  H
  C57      1.0000 0.32167  0.46988  0.03763  Biso   1.000  C
  C58      1.0000 0.04002  0.76379  0.04377  Biso   1.000  C
  H76      1.0000 0.09297  0.89071  0.14653  Biso   1.000  H
  H77      1.0000 0.96977  0.82158  0.14563  Biso   1.000  H
  C59      1.0000 0.53009  0.85181  0.03763  Biso   1.000  C
  H78      1.0000 0.62458  0.80528  0.03559  Biso   1.000  H
  C60      1.0000 0.32427  0.56467  0.03772  Biso   1.000  C
  H79      1.0000 0.37900  0.46303  0.03796  Biso   1.000  H
  N12      1.0000 0.13744  0.75954  0.03853  Biso   1.000  N
  H80      1.0000 0.97899  0.69096  0.03403  Biso   1.000  H
  H81      1.0000 0.03600  0.79898  0.97104  Biso   1.000  H
  C61      1.0000 0.43531  0.75962  0.03772  Biso   1.000  C
  H82      1.0000 0.53702  0.91598  0.03796  Biso   1.000  H
  C62      1.0000 0.22939  0.57129  0.03788  Biso   1.000  C
  C63      1.0000 0.42868  0.65813  0.03788  Biso   1.000  C
  C64      1.0000 0.14823  0.67829  0.03763  Biso   1.000  C
  H83      1.0000 0.19473  0.81930  0.03559  Biso   1.000  H
  C65      1.0000 0.34185  0.77056  0.03788  Biso   1.000  C
  O10      1.0000 0.14135  0.48917  0.03567  Biso   1.000  O
  C66      1.0000 0.24041  0.67569  0.03772  Biso   1.000  C
  O11      1.0000 0.51083  0.65223  0.03567  Biso   1.000  O
  H84      1.0000 0.08397  0.62097  0.03796  Biso   1.000  H
  O12      1.0000 0.34781  0.85859  0.03567  Biso   1.000  O
