data_image0
_cell_length_a       22.752
_cell_length_b       12.921
_cell_length_c       11.252
_cell_angle_alpha    90
_cell_angle_beta     90
_cell_angle_gamma    90

_symmetry_space_group_name_H-M    "P 1"
_symmetry_int_tables_number       1

loop_
  _symmetry_equiv_pos_as_xyz
  'x, y, z'

loop_
  _atom_site_label
  _atom_site_occupancy
  _atom_site_fract_x
  _atom_site_fract_y
  _atom_site_fract_z
  _atom_site_thermal_displace_type
  _atom_site_B_iso_or_equiv
  _atom_site_type_symbol
  C1       1.0000 0.35720  0.87369  0.63207  Biso   1.000  C
  C2       1.0000 0.30340  0.86301  0.57714  Biso   1.000  C
  C3       1.0000 0.30340  0.86294  0.57714  Biso   1.000  C
  N1       1.0000 0.36458  0.88213  0.74440  Biso   1.000  N
  H1       1.0000 0.39038  0.87501  0.58399  Biso   1.000  H
  N2       1.0000 0.36458  0.88205  0.74440  Biso   1.000  N
  C4       1.0000 0.30239  0.86208  0.44988  Biso   1.000  C
  C5       1.0000 0.25000  0.86557  0.64415  Biso   1.000  C
  H2       1.0000 0.33439  0.87818  0.78999  Biso   1.000  H
  C6       1.0000 0.42190  0.89769  0.79790  Biso   1.000  C
  C7       1.0000 0.25000  0.86301  0.38864  Biso   1.000  C
  C8       1.0000 0.25000  0.86294  0.38864  Biso   1.000  C
  O1       1.0000 0.34942  0.86030  0.38971  Biso   1.000  O
  C9       1.0000 0.19660  0.86301  0.57714  Biso   1.000  C
  C10      1.0000 0.19660  0.86294  0.57714  Biso   1.000  C
  O2       1.0000 0.25000  0.87091  0.75551  Biso   1.000  O
  H3       1.0000 0.45139  0.89892  0.73587  Biso   1.000  H
  H4       1.0000 0.43060  0.84003  0.85007  Biso   1.000  H
  H5       1.0000 0.45139  0.89885  0.73587  Biso   1.000  H
  H6       1.0000 0.43060  0.83995  0.85007  Biso   1.000  H
  C11      1.0000 0.42559  1.00000  0.87025  Biso   1.000  C
  C12      1.0000 0.27901  0.87385  0.26564  Biso   1.000  C
  C13      1.0000 0.22099  0.87393  0.26564  Biso   1.000  C
  C14      1.0000 0.22099  0.87385  0.26564  Biso   1.000  C
  C15      1.0000 0.19761  0.86208  0.44988  Biso   1.000  C
  C16      1.0000 0.27901  0.87393  0.26564  Biso   1.000  C
  C17      1.0000 0.14280  0.87369  0.63207  Biso   1.000  C
  H7       1.0000 0.39412  1.00000  0.92819  Biso   1.000  H
  H8       1.0000 0.46242  1.00000  0.91379  Biso   1.000  H
  C18      1.0000 0.42190  0.10231  0.79790  Biso   1.000  C
  C19      1.0000 0.42190  0.10224  0.79790  Biso   1.000  C
  N3       1.0000 0.25000  0.88399  0.18894  Biso   1.000  N
  H9       1.0000 0.31799  0.87903  0.23098  Biso   1.000  H
  H10      1.0000 0.31799  0.87896  0.23098  Biso   1.000  H
  H11      1.0000 0.18201  0.87903  0.23098  Biso   1.000  H
  H12      1.0000 0.18201  0.87896  0.23098  Biso   1.000  H
  O3       1.0000 0.15058  0.86030  0.38971  Biso   1.000  O
  N4       1.0000 0.13542  0.88213  0.74440  Biso   1.000  N
  H13      1.0000 0.10962  0.87501  0.58399  Biso   1.000  H
  N5       1.0000 0.13542  0.88205  0.74440  Biso   1.000  N
  N6       1.0000 0.36458  0.11787  0.74440  Biso   1.000  N
  H14      1.0000 0.45139  0.10108  0.73587  Biso   1.000  H
  H15      1.0000 0.43060  0.15997  0.85007  Biso   1.000  H
  C20      1.0000 0.25000  0.90264  0.06257  Biso   1.000  C
  C21      1.0000 0.25000  0.90256  0.06257  Biso   1.000  C
  H16      1.0000 0.16561  0.87818  0.78999  Biso   1.000  H
  C22      1.0000 0.07810  0.89769  0.79790  Biso   1.000  C
  H17      1.0000 0.33439  0.12182  0.78999  Biso   1.000  H
  C23      1.0000 0.35720  0.12631  0.63207  Biso   1.000  C
  H18      1.0000 0.33439  0.12174  0.78999  Biso   1.000  H
  C24      1.0000 0.35720  0.12623  0.63207  Biso   1.000  C
  H19      1.0000 0.26701  0.85698  0.03004  Biso   1.000  H
  H20      1.0000 0.23299  0.85698  0.03004  Biso   1.000  H
  C25      1.0000 0.25000  1.00000  0.02222  Biso   1.000  C
  H21      1.0000 0.04861  0.89892  0.73587  Biso   1.000  H
  H22      1.0000 0.06940  0.84003  0.85007  Biso   1.000  H
  H23      1.0000 0.04861  0.89885  0.73587  Biso   1.000  H
  H24      1.0000 0.06940  0.83995  0.85007  Biso   1.000  H
  C26      1.0000 0.07441  1.00000  0.87025  Biso   1.000  C
  C27      1.0000 0.30340  0.13699  0.57714  Biso   1.000  C
  H25      1.0000 0.39038  0.12499  0.58399  Biso   1.000  H
  H26      1.0000 0.28380  1.00000  0.96961  Biso   1.000  H
  H27      1.0000 0.21620  1.00000  0.96961  Biso   1.000  H
  C28      1.0000 0.25000  0.09736  0.06257  Biso   1.000  C
  H28      1.0000 0.10588  1.00000  0.92819  Biso   1.000  H
  H29      1.0000 0.03758  1.00000  0.91379  Biso   1.000  H
  C29      1.0000 0.07810  0.10231  0.79790  Biso   1.000  C
  C30      1.0000 0.07810  0.10224  0.79790  Biso   1.000  C
  C31      1.0000 0.30239  0.13792  0.44988  Biso   1.000  C
  C32      1.0000 0.30239  0.13784  0.44988  Biso   1.000  C
  C33      1.0000 0.25000  0.13443  0.64415  Biso   1.000  C
  C34      1.0000 0.25000  0.13435  0.64415  Biso   1.000  C
  N7       1.0000 0.25000  0.11601  0.18894  Biso   1.000  N
  H30      1.0000 0.23299  0.14302  0.03004  Biso   1.000  H
  H31      1.0000 0.26701  0.14302  0.03004  Biso   1.000  H
  N8       1.0000 0.25000  0.11594  0.18894  Biso   1.000  N
  H32      1.0000 0.23299  0.14295  0.03004  Biso   1.000  H
  H33      1.0000 0.26701  0.14295  0.03004  Biso   1.000  H
  N9       1.0000 0.13542  0.11787  0.74440  Biso   1.000  N
  H34      1.0000 0.04861  0.10108  0.73587  Biso   1.000  H
  H35      1.0000 0.06940  0.15997  0.85007  Biso   1.000  H
  C35      1.0000 0.25000  0.13699  0.38864  Biso   1.000  C
  O4       1.0000 0.34942  0.13970  0.38971  Biso   1.000  O
  C36      1.0000 0.19660  0.13699  0.57714  Biso   1.000  C
  O5       1.0000 0.25000  0.12909  0.75551  Biso   1.000  O
  C37      1.0000 0.27901  0.12607  0.26564  Biso   1.000  C
  C38      1.0000 0.22099  0.12607  0.26564  Biso   1.000  C
  H36      1.0000 0.16561  0.12182  0.78999  Biso   1.000  H
  C39      1.0000 0.14280  0.12631  0.63207  Biso   1.000  C
  H37      1.0000 0.16561  0.12174  0.78999  Biso   1.000  H
  C40      1.0000 0.14280  0.12623  0.63207  Biso   1.000  C
  C41      1.0000 0.19761  0.13792  0.44988  Biso   1.000  C
  C42      1.0000 0.19761  0.13784  0.44988  Biso   1.000  C
  H38      1.0000 0.31799  0.12097  0.23098  Biso   1.000  H
  H39      1.0000 0.18201  0.12097  0.23098  Biso   1.000  H
  H40      1.0000 0.10962  0.12499  0.58399  Biso   1.000  H
  O6       1.0000 0.15058  0.13970  0.38971  Biso   1.000  O
  C43      1.0000 0.35720  0.87369  0.63207  Biso   1.000  C
  C44      1.0000 0.30340  0.86301  0.57714  Biso   1.000  C
  C45      1.0000 0.30340  0.86294  0.57714  Biso   1.000  C
  H41      1.0000 0.39038  0.87501  0.58399  Biso   1.000  H
  N10      1.0000 0.36458  0.88213  0.74440  Biso   1.000  N
  N11      1.0000 0.36458  0.88205  0.74440  Biso   1.000  N
  C46      1.0000 0.30239  0.86208  0.44988  Biso   1.000  C
  C47      1.0000 0.25000  0.86557  0.64415  Biso   1.000  C
  H42      1.0000 0.33439  0.87818  0.78999  Biso   1.000  H
  C48      1.0000 0.42190  0.89769  0.79790  Biso   1.000  C
  C49      1.0000 0.25000  0.86301  0.38864  Biso   1.000  C
  C50      1.0000 0.25000  0.86294  0.38864  Biso   1.000  C
  O7       1.0000 0.34942  0.86030  0.38971  Biso   1.000  O
  C51      1.0000 0.19660  0.86301  0.57714  Biso   1.000  C
  C52      1.0000 0.19660  0.86294  0.57714  Biso   1.000  C
  O8       1.0000 0.25000  0.87091  0.75551  Biso   1.000  O
  H43      1.0000 0.45139  0.89892  0.73587  Biso   1.000  H
  H44      1.0000 0.43060  0.84003  0.85007  Biso   1.000  H
  H45      1.0000 0.45139  0.89885  0.73587  Biso   1.000  H
  H46      1.0000 0.43060  0.83995  0.85007  Biso   1.000  H
  C53      1.0000 0.42559  1.00000  0.87025  Biso   1.000  C
  C54      1.0000 0.22099  0.87393  0.26564  Biso   1.000  C
  C55      1.0000 0.27901  0.87393  0.26564  Biso   1.000  C
  C56      1.0000 0.22099  0.87385  0.26564  Biso   1.000  C
  C57      1.0000 0.27901  0.87385  0.26564  Biso   1.000  C
  C58      1.0000 0.19761  0.86208  0.44988  Biso   1.000  C
  C59      1.0000 0.14280  0.87369  0.63207  Biso   1.000  C
  H47      1.0000 0.39412  1.00000  0.92819  Biso   1.000  H
  H48      1.0000 0.46242  1.00000  0.91379  Biso   1.000  H
  C60      1.0000 0.42190  0.10231  0.79790  Biso   1.000  C
  C61      1.0000 0.42190  0.10224  0.79790  Biso   1.000  C
  N12      1.0000 0.25000  0.88399  0.18894  Biso   1.000  N
  H49      1.0000 0.18201  0.87903  0.23098  Biso   1.000  H
  H50      1.0000 0.18201  0.87896  0.23098  Biso   1.000  H
  H51      1.0000 0.31799  0.87903  0.23098  Biso   1.000  H
  H52      1.0000 0.31799  0.87896  0.23098  Biso   1.000  H
  O9       1.0000 0.15058  0.86030  0.38971  Biso   1.000  O
  H53      1.0000 0.10962  0.87501  0.58399  Biso   1.000  H
  N13      1.0000 0.13542  0.88213  0.74440  Biso   1.000  N
  N14      1.0000 0.13542  0.88205  0.74440  Biso   1.000  N
  N15      1.0000 0.36458  0.11787  0.74440  Biso   1.000  N
  H54      1.0000 0.45139  0.10108  0.73587  Biso   1.000  H
  H55      1.0000 0.43060  0.15997  0.85007  Biso   1.000  H
  C62      1.0000 0.25000  0.90264  0.06257  Biso   1.000  C
  C63      1.0000 0.25000  0.90256  0.06257  Biso   1.000  C
  H56      1.0000 0.16561  0.87818  0.78999  Biso   1.000  H
  C64      1.0000 0.07810  0.89769  0.79790  Biso   1.000  C
  C65      1.0000 0.35720  0.12631  0.63207  Biso   1.000  C
  C66      1.0000 0.35720  0.12623  0.63207  Biso   1.000  C
  H57      1.0000 0.33439  0.12182  0.78999  Biso   1.000  H
  H58      1.0000 0.33439  0.12174  0.78999  Biso   1.000  H
  H59      1.0000 0.26701  0.85698  0.03004  Biso   1.000  H
  H60      1.0000 0.23299  0.85698  0.03004  Biso   1.000  H
  C67      1.0000 0.25000  1.00000  0.02222  Biso   1.000  C
  H61      1.0000 0.04861  0.89892  0.73587  Biso   1.000  H
  H62      1.0000 0.06940  0.84003  0.85007  Biso   1.000  H
  H63      1.0000 0.04861  0.89885  0.73587  Biso   1.000  H
  H64      1.0000 0.06940  0.83995  0.85007  Biso   1.000  H
  C68      1.0000 0.07441  1.00000  0.87025  Biso   1.000  C
  C69      1.0000 0.30340  0.13699  0.57714  Biso   1.000  C
  H65      1.0000 0.39038  0.12499  0.58399  Biso   1.000  H
  H66      1.0000 0.28380  1.00000  0.96961  Biso   1.000  H
  H67      1.0000 0.21620  1.00000  0.96961  Biso   1.000  H
  C70      1.0000 0.25000  0.09736  0.06257  Biso   1.000  C
  H68      1.0000 0.10588  1.00000  0.92819  Biso   1.000  H
  H69      1.0000 0.03758  1.00000  0.91379  Biso   1.000  H
  C71      1.0000 0.07810  0.10231  0.79790  Biso   1.000  C
  C72      1.0000 0.07810  0.10224  0.79790  Biso   1.000  C
  C73      1.0000 0.30239  0.13792  0.44988  Biso   1.000  C
  C74      1.0000 0.30239  0.13784  0.44988  Biso   1.000  C
  C75      1.0000 0.25000  0.13443  0.64415  Biso   1.000  C
  C76      1.0000 0.25000  0.13435  0.64415  Biso   1.000  C
  N16      1.0000 0.25000  0.11601  0.18894  Biso   1.000  N
  H70      1.0000 0.23299  0.14302  0.03004  Biso   1.000  H
  H71      1.0000 0.26701  0.14302  0.03004  Biso   1.000  H
  N17      1.0000 0.25000  0.11594  0.18894  Biso   1.000  N
  H72      1.0000 0.23299  0.14295  0.03004  Biso   1.000  H
  H73      1.0000 0.26701  0.14295  0.03004  Biso   1.000  H
  N18      1.0000 0.13542  0.11787  0.74440  Biso   1.000  N
  H74      1.0000 0.04861  0.10108  0.73587  Biso   1.000  H
  H75      1.0000 0.06940  0.15997  0.85007  Biso   1.000  H
  C77      1.0000 0.25000  0.13699  0.38864  Biso   1.000  C
  O10      1.0000 0.34942  0.13970  0.38971  Biso   1.000  O
  C78      1.0000 0.19660  0.13699  0.57714  Biso   1.000  C
  O11      1.0000 0.25000  0.12909  0.75551  Biso   1.000  O
  C79      1.0000 0.27901  0.12607  0.26564  Biso   1.000  C
  C80      1.0000 0.22099  0.12607  0.26564  Biso   1.000  C
  C81      1.0000 0.14280  0.12631  0.63207  Biso   1.000  C
  C82      1.0000 0.14280  0.12623  0.63207  Biso   1.000  C
  H76      1.0000 0.16561  0.12182  0.78999  Biso   1.000  H
  H77      1.0000 0.16561  0.12174  0.78999  Biso   1.000  H
  C83      1.0000 0.19761  0.13792  0.44988  Biso   1.000  C
  C84      1.0000 0.19761  0.13784  0.44988  Biso   1.000  C
  H78      1.0000 0.31799  0.12097  0.23098  Biso   1.000  H
  H79      1.0000 0.18201  0.12097  0.23098  Biso   1.000  H
  H80      1.0000 0.10962  0.12499  0.58399  Biso   1.000  H
  O12      1.0000 0.15058  0.13970  0.38971  Biso   1.000  O
  C85      1.0000 0.42190  0.60228  0.70210  Biso   1.000  C
  C86      1.0000 0.42559  0.49996  0.62984  Biso   1.000  C
  N19      1.0000 0.36458  0.61791  0.75560  Biso   1.000  N
  H81      1.0000 0.45139  0.60111  0.76422  Biso   1.000  H
  H82      1.0000 0.43060  0.66001  0.65002  Biso   1.000  H
  C87      1.0000 0.42190  0.39772  0.70210  Biso   1.000  C
  H83      1.0000 0.39412  0.49996  0.57181  Biso   1.000  H
  H84      1.0000 0.46242  0.49996  0.58621  Biso   1.000  H
  H85      1.0000 0.33439  0.62178  0.71001  Biso   1.000  H
  C88      1.0000 0.35720  0.62627  0.86802  Biso   1.000  C
  N20      1.0000 0.36458  0.38209  0.75560  Biso   1.000  N
  H86      1.0000 0.45139  0.39889  0.76422  Biso   1.000  H
  H87      1.0000 0.43060  0.33999  0.65002  Biso   1.000  H
  C89      1.0000 0.30340  0.63695  0.92295  Biso   1.000  C
  H88      1.0000 0.39038  0.62495  0.91601  Biso   1.000  H
  C90      1.0000 0.35720  0.37366  0.86802  Biso   1.000  C
  H89      1.0000 0.33439  0.37822  0.71001  Biso   1.000  H
  C91      1.0000 0.25000  0.63439  0.85594  Biso   1.000  C
  C92      1.0000 0.30239  0.63788  0.05012  Biso   1.000  C
  C93      1.0000 0.30340  0.36298  0.92295  Biso   1.000  C
  H90      1.0000 0.39038  0.37497  0.91601  Biso   1.000  H
  C94      1.0000 0.19660  0.63695  0.92295  Biso   1.000  C
  O13      1.0000 0.25000  0.62905  0.74449  Biso   1.000  O
  C95      1.0000 0.25000  0.63695  0.11145  Biso   1.000  C
  O14      1.0000 0.34942  0.63966  0.11038  Biso   1.000  O
  C96      1.0000 0.25000  0.36561  0.85594  Biso   1.000  C
  C97      1.0000 0.30239  0.36212  0.05012  Biso   1.000  C
  C98      1.0000 0.14280  0.62627  0.86802  Biso   1.000  C
  C99      1.0000 0.19761  0.63788  0.05012  Biso   1.000  C
  C100     1.0000 0.22099  0.62611  0.23445  Biso   1.000  C
  C101     1.0000 0.27901  0.62611  0.23445  Biso   1.000  C
  O15      1.0000 0.25000  0.37087  0.74449  Biso   1.000  O
  C102     1.0000 0.19660  0.36298  0.92295  Biso   1.000  C
  C103     1.0000 0.25000  0.36298  0.11145  Biso   1.000  C
  O16      1.0000 0.34942  0.36027  0.11038  Biso   1.000  O
  N21      1.0000 0.13542  0.61791  0.75560  Biso   1.000  N
  H91      1.0000 0.10962  0.62495  0.91601  Biso   1.000  H
  O17      1.0000 0.15058  0.63966  0.11038  Biso   1.000  O
  N22      1.0000 0.25000  0.61597  0.31114  Biso   1.000  N
  H92      1.0000 0.18201  0.62100  0.26902  Biso   1.000  H
  H93      1.0000 0.31799  0.62100  0.26902  Biso   1.000  H
  C104     1.0000 0.14280  0.37366  0.86802  Biso   1.000  C
  C105     1.0000 0.19761  0.36212  0.05012  Biso   1.000  C
  C106     1.0000 0.27901  0.37389  0.23445  Biso   1.000  C
  C107     1.0000 0.22099  0.37389  0.23445  Biso   1.000  C
  C108     1.0000 0.07810  0.60228  0.70210  Biso   1.000  C
  H94      1.0000 0.16561  0.62178  0.71001  Biso   1.000  H
  C109     1.0000 0.25000  0.59740  0.43743  Biso   1.000  C
  N23      1.0000 0.13542  0.38209  0.75560  Biso   1.000  N
  H95      1.0000 0.10962  0.37497  0.91601  Biso   1.000  H
  O18      1.0000 0.15058  0.36027  0.11038  Biso   1.000  O
  N24      1.0000 0.25000  0.38403  0.31114  Biso   1.000  N
  H96      1.0000 0.31799  0.37900  0.26902  Biso   1.000  H
  H97      1.0000 0.18201  0.37900  0.26902  Biso   1.000  H
  C110     1.0000 0.07441  0.49996  0.62984  Biso   1.000  C
  H98      1.0000 0.04861  0.60111  0.76422  Biso   1.000  H
  H99      1.0000 0.06940  0.66001  0.65002  Biso   1.000  H
  C111     1.0000 0.25000  0.49996  0.47787  Biso   1.000  C
  H100     1.0000 0.26701  0.64298  0.47005  Biso   1.000  H
  H101     1.0000 0.23299  0.64298  0.47005  Biso   1.000  H
  H102     1.0000 0.16561  0.37822  0.71001  Biso   1.000  H
  C112     1.0000 0.07810  0.39772  0.70210  Biso   1.000  C
  C113     1.0000 0.25000  0.40260  0.43743  Biso   1.000  C
  H103     1.0000 0.10588  0.49996  0.57181  Biso   1.000  H
  H104     1.0000 0.03758  0.49996  0.58621  Biso   1.000  H
  H105     1.0000 0.28380  0.49996  0.53048  Biso   1.000  H
  H106     1.0000 0.21620  0.49996  0.53048  Biso   1.000  H
  H107     1.0000 0.28380  0.49996  0.53039  Biso   1.000  H
  H108     1.0000 0.21620  0.49996  0.53039  Biso   1.000  H
  H109     1.0000 0.04861  0.39889  0.76422  Biso   1.000  H
  H110     1.0000 0.06940  0.33999  0.65002  Biso   1.000  H
  H111     1.0000 0.23299  0.35702  0.47005  Biso   1.000  H
  H112     1.0000 0.26701  0.35702  0.47005  Biso   1.000  H
  C114     1.0000 0.57810  0.60228  0.29790  Biso   1.000  C
  C115     1.0000 0.57441  0.49996  0.37025  Biso   1.000  C
  N25      1.0000 0.63542  0.61791  0.24440  Biso   1.000  N
  H113     1.0000 0.54861  0.60111  0.23578  Biso   1.000  H
  H114     1.0000 0.56940  0.66001  0.34998  Biso   1.000  H
  C116     1.0000 0.57810  0.39772  0.29790  Biso   1.000  C
  H115     1.0000 0.60588  0.49996  0.42819  Biso   1.000  H
  H116     1.0000 0.53758  0.49996  0.41379  Biso   1.000  H
  H117     1.0000 0.66561  0.62178  0.28999  Biso   1.000  H
  C117     1.0000 0.64280  0.62627  0.13198  Biso   1.000  C
  N26      1.0000 0.63542  0.38209  0.24440  Biso   1.000  N
  H118     1.0000 0.54861  0.39889  0.23578  Biso   1.000  H
  H119     1.0000 0.56940  0.33999  0.34998  Biso   1.000  H
  C118     1.0000 0.69660  0.63695  0.07714  Biso   1.000  C
  H120     1.0000 0.60962  0.62495  0.08399  Biso   1.000  H
  H121     1.0000 0.66561  0.37822  0.28999  Biso   1.000  H
  C119     1.0000 0.64280  0.37366  0.13198  Biso   1.000  C
  C120     1.0000 0.75000  0.63439  0.14406  Biso   1.000  C
  C121     1.0000 0.69761  0.63788  0.94988  Biso   1.000  C
  C122     1.0000 0.69660  0.36298  0.07714  Biso   1.000  C
  H122     1.0000 0.60962  0.37497  0.08399  Biso   1.000  H
  O19      1.0000 0.75000  0.62905  0.25551  Biso   1.000  O
  C123     1.0000 0.80340  0.63695  0.07714  Biso   1.000  C
  C124     1.0000 0.75000  0.63695  0.88855  Biso   1.000  C
  O20      1.0000 0.65058  0.63966  0.88971  Biso   1.000  O
  C125     1.0000 0.75000  0.36561  0.14406  Biso   1.000  C
  C126     1.0000 0.69761  0.36212  0.94988  Biso   1.000  C
  C127     1.0000 0.85720  0.62627  0.13198  Biso   1.000  C
  C128     1.0000 0.80239  0.63788  0.94988  Biso   1.000  C
  C129     1.0000 0.77901  0.62611  0.76555  Biso   1.000  C
  C130     1.0000 0.72099  0.62611  0.76555  Biso   1.000  C
  O21      1.0000 0.75000  0.37087  0.25551  Biso   1.000  O
  C131     1.0000 0.80340  0.36298  0.07714  Biso   1.000  C
  C132     1.0000 0.75000  0.36298  0.88855  Biso   1.000  C
  O22      1.0000 0.65058  0.36027  0.88971  Biso   1.000  O
  N27      1.0000 0.86458  0.61791  0.24440  Biso   1.000  N
  H123     1.0000 0.89038  0.62495  0.08399  Biso   1.000  H
  O23      1.0000 0.84942  0.63966  0.88971  Biso   1.000  O
  N28      1.0000 0.75000  0.61597  0.68886  Biso   1.000  N
  H124     1.0000 0.81799  0.62100  0.73098  Biso   1.000  H
  H125     1.0000 0.68201  0.62100  0.73098  Biso   1.000  H
  C133     1.0000 0.85720  0.37366  0.13198  Biso   1.000  C
  C134     1.0000 0.80239  0.36212  0.94988  Biso   1.000  C
  C135     1.0000 0.72099  0.37389  0.76555  Biso   1.000  C
  C136     1.0000 0.77901  0.37389  0.76555  Biso   1.000  C
  H126     1.0000 0.83439  0.62178  0.28999  Biso   1.000  H
  C137     1.0000 0.92190  0.60228  0.29790  Biso   1.000  C
  C138     1.0000 0.75000  0.59740  0.56257  Biso   1.000  C
  N29      1.0000 0.86458  0.38209  0.24440  Biso   1.000  N
  H127     1.0000 0.89038  0.37497  0.08399  Biso   1.000  H
  O24      1.0000 0.84942  0.36027  0.88971  Biso   1.000  O
  N30      1.0000 0.75000  0.38403  0.68886  Biso   1.000  N
  H128     1.0000 0.68201  0.37900  0.73098  Biso   1.000  H
  H129     1.0000 0.81799  0.37900  0.73098  Biso   1.000  H
  C139     1.0000 0.92559  0.49996  0.37025  Biso   1.000  C
  H130     1.0000 0.95139  0.60111  0.23578  Biso   1.000  H
  H131     1.0000 0.93060  0.66001  0.34998  Biso   1.000  H
  C140     1.0000 0.75000  0.49996  0.52222  Biso   1.000  C
  H132     1.0000 0.73299  0.64298  0.52995  Biso   1.000  H
  H133     1.0000 0.76701  0.64298  0.52995  Biso   1.000  H
  H134     1.0000 0.83439  0.37822  0.28999  Biso   1.000  H
  C141     1.0000 0.92190  0.39772  0.29790  Biso   1.000  C
  C142     1.0000 0.75000  0.40260  0.56257  Biso   1.000  C
  H135     1.0000 0.89412  0.49996  0.42819  Biso   1.000  H
  H136     1.0000 0.96242  0.49996  0.41379  Biso   1.000  H
  H137     1.0000 0.78380  0.49996  0.46961  Biso   1.000  H
  H138     1.0000 0.71620  0.49996  0.46961  Biso   1.000  H
  H139     1.0000 0.95139  0.39889  0.23578  Biso   1.000  H
  H140     1.0000 0.93060  0.33999  0.34998  Biso   1.000  H
  H141     1.0000 0.76701  0.35702  0.52995  Biso   1.000  H
  H142     1.0000 0.73299  0.35702  0.52995  Biso   1.000  H
  O25      1.0000 0.65058  0.86030  0.61029  Biso   1.000  O
  C143     1.0000 0.69761  0.86208  0.55012  Biso   1.000  C
  C144     1.0000 0.69660  0.86301  0.42295  Biso   1.000  C
  C145     1.0000 0.69660  0.86294  0.42295  Biso   1.000  C
  C146     1.0000 0.75000  0.86301  0.61145  Biso   1.000  C
  C147     1.0000 0.75000  0.86294  0.61145  Biso   1.000  C
  C148     1.0000 0.64280  0.87369  0.36802  Biso   1.000  C
  C149     1.0000 0.75000  0.86557  0.35594  Biso   1.000  C
  C150     1.0000 0.80239  0.86208  0.55012  Biso   1.000  C
  C151     1.0000 0.77901  0.87393  0.73445  Biso   1.000  C
  C152     1.0000 0.72099  0.87393  0.73445  Biso   1.000  C
  C153     1.0000 0.77901  0.87385  0.73445  Biso   1.000  C
  C154     1.0000 0.72099  0.87385  0.73445  Biso   1.000  C
  N31      1.0000 0.63542  0.88213  0.25560  Biso   1.000  N
  N32      1.0000 0.63542  0.88205  0.25560  Biso   1.000  N
  H143     1.0000 0.60962  0.87501  0.41601  Biso   1.000  H
  O26      1.0000 0.75000  0.87091  0.24449  Biso   1.000  O
  C155     1.0000 0.80340  0.86301  0.42295  Biso   1.000  C
  C156     1.0000 0.80340  0.86294  0.42295  Biso   1.000  C
  O27      1.0000 0.84942  0.86030  0.61029  Biso   1.000  O
  N33      1.0000 0.75000  0.88399  0.81114  Biso   1.000  N
  H144     1.0000 0.81799  0.87903  0.76902  Biso   1.000  H
  H145     1.0000 0.81799  0.87896  0.76902  Biso   1.000  H
  H146     1.0000 0.68201  0.87903  0.76902  Biso   1.000  H
  H147     1.0000 0.68201  0.87896  0.76902  Biso   1.000  H
  C157     1.0000 0.57810  0.89769  0.20210  Biso   1.000  C
  H148     1.0000 0.66561  0.87818  0.21001  Biso   1.000  H
  C158     1.0000 0.85720  0.87369  0.36802  Biso   1.000  C
  C159     1.0000 0.75000  0.90264  0.93743  Biso   1.000  C
  C160     1.0000 0.75000  0.90256  0.93743  Biso   1.000  C
  H149     1.0000 0.54861  0.89892  0.26422  Biso   1.000  H
  H150     1.0000 0.56940  0.84003  0.15002  Biso   1.000  H
  H151     1.0000 0.54861  0.89885  0.26422  Biso   1.000  H
  H152     1.0000 0.56940  0.83995  0.15002  Biso   1.000  H
  C161     1.0000 0.57441  1.00000  0.12984  Biso   1.000  C
  N34      1.0000 0.86458  0.88213  0.25560  Biso   1.000  N
  H153     1.0000 0.89038  0.87501  0.41601  Biso   1.000  H
  N35      1.0000 0.86458  0.88205  0.25560  Biso   1.000  N
  H154     1.0000 0.73299  0.85698  0.97005  Biso   1.000  H
  H155     1.0000 0.76701  0.85698  0.97005  Biso   1.000  H
  C162     1.0000 0.75000  1.00000  0.97787  Biso   1.000  C
  H156     1.0000 0.60588  1.00000  0.07181  Biso   1.000  H
  H157     1.0000 0.53758  1.00000  0.08621  Biso   1.000  H
  C163     1.0000 0.57810  0.10231  0.20210  Biso   1.000  C
  C164     1.0000 0.57810  0.10224  0.20210  Biso   1.000  C
  H158     1.0000 0.83439  0.87818  0.21001  Biso   1.000  H
  C165     1.0000 0.92190  0.89769  0.20210  Biso   1.000  C
  C166     1.0000 0.75000  0.09736  0.93743  Biso   1.000  C
  H159     1.0000 0.78380  1.00000  0.03039  Biso   1.000  H
  H160     1.0000 0.71620  1.00000  0.03039  Biso   1.000  H
  N36      1.0000 0.63542  0.11787  0.25560  Biso   1.000  N
  H161     1.0000 0.54861  0.10108  0.26422  Biso   1.000  H
  H162     1.0000 0.56940  0.15997  0.15002  Biso   1.000  H
  H163     1.0000 0.95139  0.89892  0.26422  Biso   1.000  H
  H164     1.0000 0.93060  0.84003  0.15002  Biso   1.000  H
  H165     1.0000 0.95139  0.89885  0.26422  Biso   1.000  H
  H166     1.0000 0.93060  0.83995  0.15002  Biso   1.000  H
  C167     1.0000 0.92559  1.00000  0.12984  Biso   1.000  C
  N37      1.0000 0.75000  0.11601  0.81114  Biso   1.000  N
  N38      1.0000 0.75000  0.11594  0.81114  Biso   1.000  N
  H167     1.0000 0.76701  0.14302  0.97005  Biso   1.000  H
  H168     1.0000 0.73299  0.14302  0.97005  Biso   1.000  H
  H169     1.0000 0.76701  0.14295  0.97005  Biso   1.000  H
  H170     1.0000 0.73299  0.14295  0.97005  Biso   1.000  H
  H171     1.0000 0.66561  0.12182  0.21001  Biso   1.000  H
  C168     1.0000 0.64280  0.12631  0.36802  Biso   1.000  C
  H172     1.0000 0.66561  0.12174  0.21001  Biso   1.000  H
  C169     1.0000 0.64280  0.12623  0.36802  Biso   1.000  C
  H173     1.0000 0.89412  1.00000  0.07181  Biso   1.000  H
  H174     1.0000 0.96242  1.00000  0.08621  Biso   1.000  H
  C170     1.0000 0.92190  0.10231  0.20210  Biso   1.000  C
  C171     1.0000 0.92190  0.10224  0.20210  Biso   1.000  C
  C172     1.0000 0.72099  0.12607  0.73445  Biso   1.000  C
  C173     1.0000 0.77901  0.12607  0.73445  Biso   1.000  C
  C174     1.0000 0.69660  0.13699  0.42295  Biso   1.000  C
  H175     1.0000 0.60962  0.12499  0.41601  Biso   1.000  H
  N39      1.0000 0.86458  0.11787  0.25560  Biso   1.000  N
  H176     1.0000 0.95139  0.10108  0.26422  Biso   1.000  H
  H177     1.0000 0.93060  0.15997  0.15002  Biso   1.000  H
  C175     1.0000 0.75000  0.13699  0.61145  Biso   1.000  C
  H178     1.0000 0.68201  0.12097  0.76902  Biso   1.000  H
  H179     1.0000 0.81799  0.12097  0.76902  Biso   1.000  H
  C176     1.0000 0.75000  0.13443  0.35594  Biso   1.000  C
  C177     1.0000 0.69761  0.13792  0.55012  Biso   1.000  C
  C178     1.0000 0.75000  0.13435  0.35594  Biso   1.000  C
  C179     1.0000 0.69761  0.13784  0.55012  Biso   1.000  C
  C180     1.0000 0.85720  0.12631  0.36802  Biso   1.000  C
  C181     1.0000 0.85720  0.12623  0.36802  Biso   1.000  C
  H180     1.0000 0.83439  0.12182  0.21001  Biso   1.000  H
  H181     1.0000 0.83439  0.12174  0.21001  Biso   1.000  H
  C182     1.0000 0.80239  0.13792  0.55012  Biso   1.000  C
  C183     1.0000 0.80239  0.13784  0.55012  Biso   1.000  C
  O28      1.0000 0.75000  0.12909  0.24449  Biso   1.000  O
  C184     1.0000 0.80340  0.13699  0.42295  Biso   1.000  C
  O29      1.0000 0.65058  0.13970  0.61029  Biso   1.000  O
  H182     1.0000 0.89038  0.12499  0.41601  Biso   1.000  H
  O30      1.0000 0.84942  0.13970  0.61029  Biso   1.000  O
  O31      1.0000 0.65058  0.86030  0.61029  Biso   1.000  O
  C185     1.0000 0.69761  0.86208  0.55012  Biso   1.000  C
  C186     1.0000 0.69660  0.86301  0.42295  Biso   1.000  C
  C187     1.0000 0.69660  0.86294  0.42295  Biso   1.000  C
  C188     1.0000 0.75000  0.86301  0.61145  Biso   1.000  C
  C189     1.0000 0.75000  0.86294  0.61145  Biso   1.000  C
  C190     1.0000 0.64280  0.87369  0.36802  Biso   1.000  C
  C191     1.0000 0.75000  0.86557  0.35594  Biso   1.000  C
  C192     1.0000 0.80239  0.86208  0.55012  Biso   1.000  C
  C193     1.0000 0.77901  0.87393  0.73445  Biso   1.000  C
  C194     1.0000 0.72099  0.87393  0.73445  Biso   1.000  C
  C195     1.0000 0.77901  0.87385  0.73445  Biso   1.000  C
  C196     1.0000 0.72099  0.87385  0.73445  Biso   1.000  C
  N40      1.0000 0.63542  0.88213  0.25560  Biso   1.000  N
  N41      1.0000 0.63542  0.88205  0.25560  Biso   1.000  N
  H183     1.0000 0.60962  0.87501  0.41601  Biso   1.000  H
  O32      1.0000 0.75000  0.87091  0.24449  Biso   1.000  O
  C197     1.0000 0.80340  0.86301  0.42295  Biso   1.000  C
  C198     1.0000 0.80340  0.86294  0.42295  Biso   1.000  C
  O33      1.0000 0.84942  0.86030  0.61029  Biso   1.000  O
  N42      1.0000 0.75000  0.88399  0.81114  Biso   1.000  N
  H184     1.0000 0.81799  0.87903  0.76902  Biso   1.000  H
  H185     1.0000 0.81799  0.87896  0.76902  Biso   1.000  H
  H186     1.0000 0.68201  0.87903  0.76902  Biso   1.000  H
  H187     1.0000 0.68201  0.87896  0.76902  Biso   1.000  H
  C199     1.0000 0.57810  0.89769  0.20210  Biso   1.000  C
  H188     1.0000 0.66561  0.87818  0.21001  Biso   1.000  H
  C200     1.0000 0.85720  0.87369  0.36802  Biso   1.000  C
  C201     1.0000 0.75000  0.90264  0.93743  Biso   1.000  C
  C202     1.0000 0.75000  0.90256  0.93743  Biso   1.000  C
  H189     1.0000 0.54861  0.89892  0.26422  Biso   1.000  H
  H190     1.0000 0.56940  0.84003  0.15002  Biso   1.000  H
  H191     1.0000 0.54861  0.89885  0.26422  Biso   1.000  H
  H192     1.0000 0.56940  0.83995  0.15002  Biso   1.000  H
  C203     1.0000 0.57441  1.00000  0.12984  Biso   1.000  C
  H193     1.0000 0.89038  0.87501  0.41601  Biso   1.000  H
  N43      1.0000 0.86458  0.88213  0.25560  Biso   1.000  N
  N44      1.0000 0.86458  0.88205  0.25560  Biso   1.000  N
  H194     1.0000 0.73299  0.85698  0.97005  Biso   1.000  H
  H195     1.0000 0.76701  0.85698  0.97005  Biso   1.000  H
  C204     1.0000 0.75000  1.00000  0.97787  Biso   1.000  C
  H196     1.0000 0.60588  1.00000  0.07181  Biso   1.000  H
  H197     1.0000 0.53758  1.00000  0.08621  Biso   1.000  H
  C205     1.0000 0.57810  0.10231  0.20210  Biso   1.000  C
  C206     1.0000 0.57810  0.10224  0.20210  Biso   1.000  C
  H198     1.0000 0.83439  0.87818  0.21001  Biso   1.000  H
  C207     1.0000 0.92190  0.89769  0.20210  Biso   1.000  C
  C208     1.0000 0.75000  0.09736  0.93743  Biso   1.000  C
  H199     1.0000 0.78380  1.00000  0.03039  Biso   1.000  H
  H200     1.0000 0.71620  1.00000  0.03039  Biso   1.000  H
  N45      1.0000 0.63542  0.11787  0.25560  Biso   1.000  N
  H201     1.0000 0.54861  0.10108  0.26422  Biso   1.000  H
  H202     1.0000 0.56940  0.15997  0.15002  Biso   1.000  H
  H203     1.0000 0.95139  0.89892  0.26422  Biso   1.000  H
  H204     1.0000 0.93060  0.84003  0.15002  Biso   1.000  H
  H205     1.0000 0.95139  0.89885  0.26422  Biso   1.000  H
  H206     1.0000 0.93060  0.83995  0.15002  Biso   1.000  H
  C209     1.0000 0.92559  1.00000  0.12984  Biso   1.000  C
  N46      1.0000 0.75000  0.11601  0.81114  Biso   1.000  N
  N47      1.0000 0.75000  0.11594  0.81114  Biso   1.000  N
  H207     1.0000 0.76701  0.14302  0.97005  Biso   1.000  H
  H208     1.0000 0.73299  0.14302  0.97005  Biso   1.000  H
  H209     1.0000 0.76701  0.14295  0.97005  Biso   1.000  H
  H210     1.0000 0.73299  0.14295  0.97005  Biso   1.000  H
  H211     1.0000 0.66561  0.12182  0.21001  Biso   1.000  H
  C210     1.0000 0.64280  0.12631  0.36802  Biso   1.000  C
  H212     1.0000 0.66561  0.12174  0.21001  Biso   1.000  H
  C211     1.0000 0.64280  0.12623  0.36802  Biso   1.000  C
  H213     1.0000 0.89412  1.00000  0.07181  Biso   1.000  H
  H214     1.0000 0.96242  1.00000  0.08621  Biso   1.000  H
  C212     1.0000 0.92190  0.10231  0.20210  Biso   1.000  C
  C213     1.0000 0.92190  0.10224  0.20210  Biso   1.000  C
  C214     1.0000 0.72099  0.12607  0.73445  Biso   1.000  C
  C215     1.0000 0.77901  0.12607  0.73445  Biso   1.000  C
  C216     1.0000 0.69660  0.13699  0.42295  Biso   1.000  C
  H215     1.0000 0.60962  0.12499  0.41601  Biso   1.000  H
  N48      1.0000 0.86458  0.11787  0.25560  Biso   1.000  N
  H216     1.0000 0.95139  0.10108  0.26422  Biso   1.000  H
  H217     1.0000 0.93060  0.15997  0.15002  Biso   1.000  H
  C217     1.0000 0.75000  0.13699  0.61145  Biso   1.000  C
  H218     1.0000 0.68201  0.12097  0.76902  Biso   1.000  H
  H219     1.0000 0.81799  0.12097  0.76902  Biso   1.000  H
  C218     1.0000 0.75000  0.13443  0.35594  Biso   1.000  C
  C219     1.0000 0.69761  0.13792  0.55012  Biso   1.000  C
  C220     1.0000 0.75000  0.13435  0.35594  Biso   1.000  C
  C221     1.0000 0.69761  0.13784  0.55012  Biso   1.000  C
  C222     1.0000 0.85720  0.12631  0.36802  Biso   1.000  C
  C223     1.0000 0.85720  0.12623  0.36802  Biso   1.000  C
  H220     1.0000 0.83439  0.12182  0.21001  Biso   1.000  H
  H221     1.0000 0.83439  0.12174  0.21001  Biso   1.000  H
  C224     1.0000 0.80239  0.13792  0.55012  Biso   1.000  C
  C225     1.0000 0.80239  0.13784  0.55012  Biso   1.000  C
  O34      1.0000 0.75000  0.12909  0.24449  Biso   1.000  O
  C226     1.0000 0.80340  0.13699  0.42295  Biso   1.000  C
  O35      1.0000 0.65058  0.13970  0.61029  Biso   1.000  O
  H222     1.0000 0.89038  0.12499  0.41601  Biso   1.000  H
  O36      1.0000 0.84942  0.13970  0.61029  Biso   1.000  O
