data_image0
_cell_length_a       15.398
_cell_length_b       16.552
_cell_length_c       22.17
_cell_angle_alpha    107.91
_cell_angle_beta     108.62
_cell_angle_gamma    96.65

_symmetry_space_group_name_H-M    "P 1"
_symmetry_int_tables_number       1

loop_
  _symmetry_equiv_pos_as_xyz
  'x, y, z'

loop_
  _atom_site_label
  _atom_site_occupancy
  _atom_site_fract_x
  _atom_site_fract_y
  _atom_site_fract_z
  _atom_site_thermal_displace_type
  _atom_site_B_iso_or_equiv
  _atom_site_type_symbol
  C1       1.0000 0.50292  0.44096  0.31910  Biso   1.000  C
  C2       1.0000 0.42241  0.39796  0.33107  Biso   1.000  C
  H1       1.0000 0.47965  0.44916  0.27629  Biso   1.000  H
  H2       1.0000 0.54712  0.40467  0.31797  Biso   1.000  H
  H3       1.0000 0.53359  0.49665  0.35546  Biso   1.000  H
  N1       1.0000 0.36083  0.32063  0.27158  Biso   1.000  N
  C3       1.0000 0.35322  0.45904  0.34385  Biso   1.000  C
  N2       1.0000 0.45453  0.38494  0.39556  Biso   1.000  N
  C4       1.0000 0.27187  0.33515  0.24269  Biso   1.000  C
  C5       1.0000 0.39328  0.24837  0.23558  Biso   1.000  C
  N3       1.0000 0.26543  0.41437  0.28110  Biso   1.000  N
  C6       1.0000 0.38901  0.55722  0.35076  Biso   1.000  C
  N4       1.0000 0.34250  0.45300  0.40467  Biso   1.000  N
  C7       1.0000 0.52861  0.33435  0.41459  Biso   1.000  C
  C8       1.0000 0.40822  0.41162  0.43479  Biso   1.000  C
  O1       1.0000 0.21178  0.28508  0.18909  Biso   1.000  O
  H4       1.0000 0.45412  0.27158  0.23578  Biso   1.000  H
  H5       1.0000 0.34958  0.22284  0.18827  Biso   1.000  H
  N5       1.0000 0.40214  0.17869  0.26371  Biso   1.000  N
  C9       1.0000 0.18181  0.44787  0.26079  Biso   1.000  C
  H6       1.0000 0.39439  0.55723  0.30877  Biso   1.000  H
  H7       1.0000 0.44942  0.58291  0.38748  Biso   1.000  H
  H8       1.0000 0.34462  0.59051  0.36017  Biso   1.000  H
  C10      1.0000 0.28889  0.49959  0.44057  Biso   1.000  C
  N6       1.0000 0.49051  0.23905  0.38549  Biso   1.000  N
  H9       1.0000 0.57822  0.34824  0.39878  Biso   1.000  H
  H10      1.0000 0.55660  0.35304  0.46405  Biso   1.000  H
  O2       1.0000 0.42091  0.40813  0.49146  Biso   1.000  O
  C11      1.0000 0.48487  0.18355  0.31859  Biso   1.000  C
  C12      1.0000 0.34987  0.09566  0.22560  Biso   1.000  C
  H11      1.0000 0.15093  0.42245  0.21139  Biso   1.000  H
  H12      1.0000 0.20155  0.51055  0.27348  Biso   1.000  H
  N7       1.0000 0.11211  0.43013  0.29128  Biso   1.000  N
  H13      1.0000 0.29803  0.55882  0.44118  Biso   1.000  H
  H14      1.0000 0.31283  0.50272  0.48757  Biso   1.000  H
  N8       1.0000 0.18900  0.45841  0.40947  Biso   1.000  N
  C13      1.0000 0.47527  0.19274  0.42758  Biso   1.000  C
  C14      1.0000 0.46859  0.08948  0.32150  Biso   1.000  C
  H15      1.0000 0.54255  0.19854  0.31046  Biso   1.000  H
  N9       1.0000 0.38777  0.04197  0.26141  Biso   1.000  N
  O3       1.0000 0.28486  0.06728  0.17026  Biso   1.000  O
  C15      1.0000 0.12301  0.47993  0.35899  Biso   1.000  C
  C16      1.0000 0.02791  0.37354  0.24959  Biso   1.000  C
  C17      1.0000 0.14742  0.43152  0.44809  Biso   1.000  C
  N10      1.0000 0.45984  0.10425  0.38677  Biso   1.000  N
  O4       1.0000 0.48455  0.22272  0.48415  Biso   1.000  O
  H16      1.0000 0.52286  0.06457  0.31987  Biso   1.000  H
  C18      1.0000 0.35079  0.94685  0.23568  Biso   1.000  C
  H17      1.0000 0.13573  0.54282  0.36835  Biso   1.000  H
  C19      1.0000 0.02343  0.44365  0.35945  Biso   1.000  C
  N11      1.0000 0.97877  0.37066  0.29378  Biso   1.000  N
  O5       1.0000 0.99703  0.33288  0.18750  Biso   1.000  O
  N12      1.0000 0.04845  0.41731  0.41889  Biso   1.000  N
  O6       1.0000 0.18722  0.41536  0.49949  Biso   1.000  O
  C20      1.0000 0.44986  0.03762  0.41546  Biso   1.000  C
  H18      1.0000 0.31930  0.92659  0.18638  Biso   1.000  H
  H19      1.0000 0.40402  0.92029  0.24509  Biso   1.000  H
  N13      1.0000 0.28720  0.91504  0.26207  Biso   1.000  N
  H20      1.0000 0.98676  0.48815  0.36370  Biso   1.000  H
  C21      1.0000 0.88073  0.31998  0.26616  Biso   1.000  C
  C22      1.0000 0.98373  0.38695  0.44369  Biso   1.000  C
  H21      1.0000 0.47016  0.06555  0.46476  Biso   1.000  H
  H22      1.0000 0.49088  0.99944  0.40625  Biso   1.000  H
  N14      1.0000 0.35219  0.98453  0.38789  Biso   1.000  N
  C23      1.0000 0.31460  0.90626  0.32928  Biso   1.000  C
  C24      1.0000 0.19192  0.88650  0.22330  Biso   1.000  C
  H23      1.0000 0.84224  0.35854  0.28008  Biso   1.000  H
  H24      1.0000 0.85807  0.29807  0.21660  Biso   1.000  H
  N15      1.0000 0.86883  0.24818  0.28770  Biso   1.000  N
  H25      1.0000 0.01490  0.40203  0.49259  Biso   1.000  H
  H26      1.0000 0.93292  0.41671  0.43658  Biso   1.000  H
  N16      1.0000 0.94405  0.29373  0.41188  Biso   1.000  N
  C25      1.0000 0.29488  0.99111  0.42446  Biso   1.000  C
  C26      1.0000 0.21901  0.86982  0.33056  Biso   1.000  C
  H27      1.0000 0.35560  0.86548  0.33260  Biso   1.000  H
  N17      1.0000 0.14933  0.86603  0.26407  Biso   1.000  N
  O7       1.0000 0.15075  0.87958  0.16571  Biso   1.000  O
  C27      1.0000 0.85962  0.25174  0.35020  Biso   1.000  C
  C28      1.0000 0.86688  0.16298  0.24678  Biso   1.000  C
  C29      1.0000 0.96934  0.23595  0.44635  Biso   1.000  C
  O8       1.0000 0.31373  0.05034  0.48205  Biso   1.000  O
  N18      1.0000 0.21467  0.92807  0.38968  Biso   1.000  N
  H28      1.0000 0.21572  0.81118  0.33250  Biso   1.000  H
  C30      1.0000 0.04895  0.82445  0.24018  Biso   1.000  C
  H29      1.0000 0.80572  0.27554  0.35505  Biso   1.000  H
  C31      1.0000 0.84345  0.15256  0.34258  Biso   1.000  C
  N19      1.0000 0.85703  0.10793  0.28279  Biso   1.000  N
  O9       1.0000 0.86735  0.14160  0.19001  Biso   1.000  O
  O10      1.0000 0.02953  0.25552  0.50276  Biso   1.000  O
  N20      1.0000 0.91126  0.15475  0.40656  Biso   1.000  N
  C32      1.0000 0.14840  0.90794  0.42078  Biso   1.000  C
  N21      1.0000 0.99482  0.87803  0.27138  Biso   1.000  N
  H30      1.0000 0.02114  0.80886  0.19098  Biso   1.000  H
  H31      1.0000 0.04341  0.77075  0.24918  Biso   1.000  H
  H32      1.0000 0.77904  0.13065  0.33838  Biso   1.000  H
  C33      1.0000 0.82785  0.01536  0.24847  Biso   1.000  C
  C34      1.0000 0.91172  0.08094  0.43096  Biso   1.000  C
  H33      1.0000 0.17809  0.93672  0.47008  Biso   1.000  H
  H34      1.0000 0.13288  0.84543  0.41029  Biso   1.000  H
  N22      1.0000 0.05927  0.93692  0.39536  Biso   1.000  N
  C35      1.0000 0.98050  0.88174  0.33148  Biso   1.000  C
  C36      1.0000 0.94530  0.93035  0.23681  Biso   1.000  C
  H35      1.0000 0.76902  0.99474  0.25251  Biso   1.000  H
  N23      1.0000 0.89573  0.96697  0.27389  Biso   1.000  N
  H36      1.0000 0.81520  0.00195  0.20029  Biso   1.000  H
  H37      1.0000 0.94704  0.10331  0.47995  Biso   1.000  H
  H38      1.0000 0.84745  0.05443  0.42277  Biso   1.000  H
  N24      1.0000 0.95253  0.01471  0.39807  Biso   1.000  N
  C37      1.0000 0.04047  0.01086  0.43418  Biso   1.000  C
  C38      1.0000 0.90342  0.94126  0.33388  Biso   1.000  C
  C39      1.0000 0.94468  0.79086  0.33158  Biso   1.000  C
  O11      1.0000 0.94454  0.93056  0.18239  Biso   1.000  O
  O12      1.0000 0.09706  0.06131  0.48977  Biso   1.000  O
  C40      1.0000 0.80818  0.89633  0.32846  Biso   1.000  C
  H39      1.0000 0.93448  0.79741  0.37316  Biso   1.000  H
  H40      1.0000 0.99074  0.75704  0.32846  Biso   1.000  H
  H41      1.0000 0.88642  0.76152  0.29317  Biso   1.000  H
  H42      1.0000 0.77881  0.84826  0.28550  Biso   1.000  H
  H43      1.0000 0.76889  0.93723  0.33137  Biso   1.000  H
  H44      1.0000 0.81658  0.87512  0.36518  Biso   1.000  H
  O13      1.0000 0.57888  0.59170  0.50849  Biso   1.000  O
  C41      1.0000 0.59158  0.58822  0.56516  Biso   1.000  C
  N25      1.0000 0.54530  0.61487  0.60434  Biso   1.000  N
  N26      1.0000 0.65729  0.54683  0.59529  Biso   1.000  N
  C42      1.0000 0.47118  0.66549  0.58537  Biso   1.000  C
  C43      1.0000 0.57735  0.60185  0.66884  Biso   1.000  C
  C44      1.0000 0.64654  0.54076  0.65605  Biso   1.000  C
  C45      1.0000 0.71091  0.50024  0.55938  Biso   1.000  C
  H45      1.0000 0.42158  0.65159  0.60117  Biso   1.000  H
  H46      1.0000 0.44317  0.64683  0.53586  Biso   1.000  H
  N27      1.0000 0.50928  0.76078  0.61447  Biso   1.000  N
  C46      1.0000 0.49687  0.55887  0.68085  Biso   1.000  C
  N28      1.0000 0.63896  0.67921  0.72837  Biso   1.000  N
  C47      1.0000 0.61076  0.44259  0.64914  Biso   1.000  C
  N29      1.0000 0.73437  0.58547  0.71886  Biso   1.000  N
  H47      1.0000 0.70182  0.44101  0.55877  Biso   1.000  H
  H48      1.0000 0.68703  0.49711  0.51238  Biso   1.000  H
  N30      1.0000 0.81079  0.54142  0.59048  Biso   1.000  N
  C48      1.0000 0.52459  0.80709  0.57237  Biso   1.000  C
  C49      1.0000 0.51499  0.81628  0.68137  Biso   1.000  C
  H49      1.0000 0.52020  0.55067  0.72366  Biso   1.000  H
  H50      1.0000 0.45268  0.59517  0.68198  Biso   1.000  H
  H51      1.0000 0.46618  0.50316  0.64444  Biso   1.000  H
  C50      1.0000 0.60658  0.75146  0.76438  Biso   1.000  C
  C51      1.0000 0.72798  0.66468  0.75727  Biso   1.000  C
  H52      1.0000 0.60538  0.44258  0.69113  Biso   1.000  H
  H53      1.0000 0.55037  0.41692  0.61247  Biso   1.000  H
  H54      1.0000 0.65518  0.40932  0.63978  Biso   1.000  H
  C52      1.0000 0.81798  0.55196  0.73916  Biso   1.000  C
  C53      1.0000 0.85237  0.56831  0.55186  Biso   1.000  C
  C54      1.0000 0.87678  0.51990  0.64096  Biso   1.000  C
  N31      1.0000 0.53993  0.89556  0.61314  Biso   1.000  N
  O14      1.0000 0.51529  0.77708  0.51576  Biso   1.000  O
  C55      1.0000 0.53127  0.91035  0.67845  Biso   1.000  C
  H55      1.0000 0.45728  0.80127  0.68945  Biso   1.000  H
  N32      1.0000 0.59765  0.82115  0.73625  Biso   1.000  N
  H56      1.0000 0.54567  0.72825  0.76417  Biso   1.000  H
  H57      1.0000 0.65025  0.77697  0.81163  Biso   1.000  H
  O15      1.0000 0.78808  0.71475  0.81087  Biso   1.000  O
  H58      1.0000 0.84886  0.57738  0.78857  Biso   1.000  H
  H59      1.0000 0.79831  0.48928  0.72648  Biso   1.000  H
  N33      1.0000 0.88768  0.56970  0.70868  Biso   1.000  N
  N34      1.0000 0.95141  0.58252  0.58107  Biso   1.000  N
  O16      1.0000 0.81258  0.58454  0.50046  Biso   1.000  O
  H60      1.0000 0.86410  0.45699  0.63155  Biso   1.000  H
  C56      1.0000 0.97640  0.55622  0.64045  Biso   1.000  C
  C57      1.0000 0.54997  0.96219  0.58444  Biso   1.000  C
  H61      1.0000 0.47691  0.93530  0.68004  Biso   1.000  H
  N35      1.0000 0.61202  0.95786  0.73855  Biso   1.000  N
  C58      1.0000 0.64992  0.90417  0.77435  Biso   1.000  C
  C59      1.0000 0.97188  0.62630  0.75036  Biso   1.000  C
  C60      1.0000 0.01607  0.61289  0.55626  Biso   1.000  C
  H62      1.0000 0.01309  0.51168  0.63626  Biso   1.000  H
  N36      1.0000 0.02109  0.62917  0.70617  Biso   1.000  N
  H63      1.0000 0.52970  0.93434  0.53519  Biso   1.000  H
  H64      1.0000 0.50888  0.00037  0.59365  Biso   1.000  H
  N37      1.0000 0.64760  0.01531  0.61206  Biso   1.000  N
  C61      1.0000 0.64900  0.05298  0.76427  Biso   1.000  C
  O17      1.0000 0.71491  0.93252  0.82964  Biso   1.000  O
  O18      1.0000 0.00276  0.66695  0.81245  Biso   1.000  O
  H65      1.0000 0.98489  0.59780  0.50737  Biso   1.000  H
  H66      1.0000 0.06687  0.58312  0.56337  Biso   1.000  H
  N38      1.0000 0.05580  0.70611  0.58808  Biso   1.000  N
  C62      1.0000 0.11905  0.67989  0.73374  Biso   1.000  C
  C63      1.0000 0.70489  0.00870  0.57544  Biso   1.000  C
  C64      1.0000 0.68520  0.09357  0.67068  Biso   1.000  C
  H67      1.0000 0.68047  0.07328  0.81353  Biso   1.000  H
  H68      1.0000 0.59578  0.07960  0.75486  Biso   1.000  H
  N39      1.0000 0.71257  0.08477  0.73783  Biso   1.000  N
  C65      1.0000 0.03050  0.76392  0.55355  Biso   1.000  C
  C66      1.0000 0.14017  0.74809  0.64976  Biso   1.000  C
  H69      1.0000 0.15755  0.64130  0.71988  Biso   1.000  H
  H70      1.0000 0.14172  0.70176  0.78335  Biso   1.000  H
  N40      1.0000 0.13097  0.75166  0.71226  Biso   1.000  N
  O19      1.0000 0.68605  0.94953  0.51785  Biso   1.000  O
  N41      1.0000 0.78513  0.07183  0.61027  Biso   1.000  N
  C67      1.0000 0.78082  0.12999  0.66935  Biso   1.000  C
  H71      1.0000 0.64420  0.13441  0.66735  Biso   1.000  H
  C68      1.0000 0.80788  0.11339  0.77665  Biso   1.000  C
  O20      1.0000 0.97026  0.74431  0.49719  Biso   1.000  O
  N42      1.0000 0.08858  0.84506  0.59334  Biso   1.000  N
  H72      1.0000 0.19405  0.72427  0.64485  Biso   1.000  H
  C69      1.0000 0.15635  0.84728  0.65738  Biso   1.000  C
  C70      1.0000 0.13298  0.83691  0.75317  Biso   1.000  C
  C71      1.0000 0.85139  0.09189  0.57918  Biso   1.000  C
  H73      1.0000 0.78407  0.18865  0.66745  Biso   1.000  H
  N43      1.0000 0.85050  0.13378  0.73584  Biso   1.000  N
  O21      1.0000 0.84905  0.12025  0.83424  Biso   1.000  O
  C72      1.0000 0.08804  0.91887  0.56895  Biso   1.000  C
  H74      1.0000 0.22075  0.86919  0.66157  Biso   1.000  H
  N44      1.0000 0.14276  0.89190  0.71717  Biso   1.000  N
  O22      1.0000 0.13244  0.85823  0.80995  Biso   1.000  O
  H75      1.0000 0.82170  0.06312  0.52987  Biso   1.000  H
  H76      1.0000 0.86691  0.15440  0.58966  Biso   1.000  H
  N45      1.0000 0.94049  0.06288  0.60454  Biso   1.000  N
  C73      1.0000 0.95091  0.17538  0.75977  Biso   1.000  C
  H77      1.0000 0.05273  0.89650  0.51995  Biso   1.000  H
  H78      1.0000 0.15235  0.94541  0.57718  Biso   1.000  H
  N46      1.0000 0.04727  0.98512  0.60189  Biso   1.000  N
  C74      1.0000 0.17191  0.98445  0.75144  Biso   1.000  C
  C75      1.0000 0.95939  0.98904  0.56578  Biso   1.000  C
  C76      1.0000 0.01929  0.11809  0.66848  Biso   1.000  C
  H79      1.0000 0.97869  0.19095  0.80892  Biso   1.000  H
  H80      1.0000 0.95638  0.22908  0.75077  Biso   1.000  H
  N47      1.0000 0.00497  0.12180  0.72857  Biso   1.000  N
  C77      1.0000 0.09644  0.05857  0.66607  Biso   1.000  C
  H81      1.0000 0.18465  0.99788  0.79967  Biso   1.000  H
  H82      1.0000 0.23077  0.00509  0.74745  Biso   1.000  H
  N48      1.0000 0.10413  0.03286  0.72607  Biso   1.000  N
  O23      1.0000 0.90280  0.93852  0.51018  Biso   1.000  O
  C78      1.0000 0.05511  0.20897  0.66837  Biso   1.000  C
  C79      1.0000 0.05449  0.06949  0.76315  Biso   1.000  C
  C80      1.0000 0.19159  0.10348  0.67144  Biso   1.000  C
  H83      1.0000 0.06528  0.20240  0.62674  Biso   1.000  H
  H84      1.0000 0.00909  0.24277  0.67144  Biso   1.000  H
  H85      1.0000 0.11341  0.23829  0.70673  Biso   1.000  H
  O24      1.0000 0.05532  0.06927  0.81757  Biso   1.000  O
  H86      1.0000 0.22099  0.15158  0.71446  Biso   1.000  H
  H87      1.0000 0.23090  0.06260  0.66858  Biso   1.000  H
  H88      1.0000 0.18322  0.12471  0.63477  Biso   1.000  H
  O25      1.0000 0.38727  0.57212  0.17129  Biso   1.000  O
  C81      1.0000 0.32452  0.55498  0.11487  Biso   1.000  C
  C82      1.0000 0.32458  0.55492  0.11487  Biso   1.000  C
  N49      1.0000 0.26315  0.47659  0.07380  Biso   1.000  N
  N50      1.0000 0.26312  0.47657  0.07375  Biso   1.000  N
  N51      1.0000 0.30817  0.61506  0.08168  Biso   1.000  N
  O26      1.0000 0.38721  0.57218  0.17129  Biso   1.000  O
  C83      1.0000 0.24737  0.40287  0.09590  Biso   1.000  C
  C84      1.0000 0.18909  0.48356  0.01509  Biso   1.000  C
  C85      1.0000 0.21928  0.57922  0.02051  Biso   1.000  C
  C86      1.0000 0.21924  0.57913  0.02046  Biso   1.000  C
  C87      1.0000 0.35214  0.70784  0.11605  Biso   1.000  C
  H89      1.0000 0.28178  0.42148  0.14479  Biso   1.000  H
  H90      1.0000 0.18075  0.38509  0.08690  Biso   1.000  H
  H91      1.0000 0.18075  0.38503  0.08690  Biso   1.000  H
  N52      1.0000 0.27820  0.32796  0.06020  Biso   1.000  N
  H92      1.0000 0.12657  0.47128  0.01719  Biso   1.000  H
  N53      1.0000 0.19006  0.42979  0.94967  Biso   1.000  N
  N54      1.0000 0.19009  0.42971  0.94962  Biso   1.000  N
  H93      1.0000 0.17146  0.61186  0.02619  Biso   1.000  H
  N55      1.0000 0.23019  0.56815  0.95627  Biso   1.000  N
  N56      1.0000 0.23016  0.56813  0.95622  Biso   1.000  N
  H94      1.0000 0.30285  0.73970  0.11421  Biso   1.000  H
  N57      1.0000 0.41462  0.74188  0.08792  Biso   1.000  N
  H95      1.0000 0.30282  0.73962  0.11416  Biso   1.000  H
  H96      1.0000 0.38776  0.71915  0.16377  Biso   1.000  H
  N58      1.0000 0.41466  0.74186  0.08787  Biso   1.000  N
  C88      1.0000 0.22021  0.25686  0.99596  Biso   1.000  C
  C89      1.0000 0.22018  0.25684  0.99591  Biso   1.000  C
  C90      1.0000 0.36485  0.31075  0.09089  Biso   1.000  C
  C91      1.0000 0.14157  0.33774  0.91842  Biso   1.000  C
  C92      1.0000 0.20457  0.48162  0.91223  Biso   1.000  C
  C93      1.0000 0.24034  0.63763  0.93213  Biso   1.000  C
  C94      1.0000 0.37904  0.76348  0.02798  Biso   1.000  C
  C95      1.0000 0.50706  0.77200  0.12331  Biso   1.000  C
  C96      1.0000 0.50702  0.77192  0.12326  Biso   1.000  C
  C97      1.0000 0.12934  0.21537  0.99673  Biso   1.000  C
  N59      1.0000 0.20035  0.27966  0.93586  Biso   1.000  N
  C98      1.0000 0.28800  0.19301  0.98624  Biso   1.000  C
  C99      1.0000 0.12940  0.21531  0.99673  Biso   1.000  C
  N60      1.0000 0.20039  0.27964  0.93581  Biso   1.000  N
  N61      1.0000 0.37618  0.23428  0.04639  Biso   1.000  N
  O27      1.0000 0.41985  0.35594  0.14955  Biso   1.000  O
  H97      1.0000 0.08870  0.32987  0.93254  Biso   1.000  H
  H98      1.0000 0.11650  0.32140  0.86917  Biso   1.000  H
  H99      1.0000 0.08869  0.32981  0.93254  Biso   1.000  H
  H100     1.0000 0.11647  0.32131  0.86912  Biso   1.000  H
  O28      1.0000 0.19410  0.45321  0.85408  Biso   1.000  O
  O29      1.0000 0.19407  0.45312  0.85403  Biso   1.000  O
  H101     1.0000 0.22054  0.61377  0.88267  Biso   1.000  H
  N62      1.0000 0.34171  0.69085  0.96333  Biso   1.000  N
  H102     1.0000 0.19987  0.67565  0.94343  Biso   1.000  H
  H103     1.0000 0.22058  0.61375  0.88262  Biso   1.000  H
  N63      1.0000 0.34177  0.69079  0.96333  Biso   1.000  N
  H104     1.0000 0.33481  0.80109  0.03192  Biso   1.000  H
  C100     1.0000 0.47113  0.81214  0.02680  Biso   1.000  C
  H105     1.0000 0.33485  0.80106  0.03186  Biso   1.000  H
  N64      1.0000 0.54585  0.80177  0.08240  Biso   1.000  N
  O30      1.0000 0.55352  0.76818  0.17640  Biso   1.000  O
  O31      1.0000 0.55349  0.76810  0.17635  Biso   1.000  O
  C101     1.0000 0.25218  0.09719  0.97877  Biso   1.000  C
  N65      1.0000 0.29787  0.19174  0.92175  Biso   1.000  N
  C102     1.0000 0.25221  0.09710  0.97872  Biso   1.000  C
  H106     1.0000 0.09779  0.16445  0.95586  Biso   1.000  H
  H107     1.0000 0.08996  0.25623  0.99903  Biso   1.000  H
  H108     1.0000 0.09776  0.16442  0.95581  Biso   1.000  H
  H109     1.0000 0.14209  0.19877  0.03601  Biso   1.000  H
  H110     1.0000 0.14206  0.19874  0.03596  Biso   1.000  H
  C103     1.0000 0.23980  0.23745  0.89295  Biso   1.000  C
  C104     1.0000 0.46178  0.20580  0.06470  Biso   1.000  C
  C105     1.0000 0.46177  0.20574  0.06470  Biso   1.000  C
  C106     1.0000 0.38895  0.69884  0.91955  Biso   1.000  C
  N66      1.0000 0.46863  0.76274  0.95903  Biso   1.000  N
  H111     1.0000 0.47241  0.87381  0.03381  Biso   1.000  H
  H112     1.0000 0.47244  0.87372  0.03376  Biso   1.000  H
  C107     1.0000 0.64332  0.85364  0.10787  Biso   1.000  C
  H113     1.0000 0.29757  0.06413  0.97105  Biso   1.000  H
  H114     1.0000 0.19303  0.07126  0.94077  Biso   1.000  H
  H115     1.0000 0.29764  0.06413  0.97105  Biso   1.000  H
  H116     1.0000 0.19301  0.07124  0.94072  Biso   1.000  H
  H117     1.0000 0.24417  0.09712  0.02000  Biso   1.000  H
  H118     1.0000 0.24423  0.09706  0.02000  Biso   1.000  H
  C108     1.0000 0.35647  0.14615  0.89203  Biso   1.000  C
  O32      1.0000 0.22527  0.23566  0.83372  Biso   1.000  O
  H119     1.0000 0.44650  0.14248  0.04649  Biso   1.000  H
  N67      1.0000 0.53118  0.23707  0.04092  Biso   1.000  N
  H120     1.0000 0.48968  0.22486  0.11416  Biso   1.000  H
  N68      1.0000 0.53115  0.23705  0.04087  Biso   1.000  N
  O33      1.0000 0.36335  0.65675  0.85986  Biso   1.000  O
  C109     1.0000 0.53804  0.79408  0.93525  Biso   1.000  C
  C110     1.0000 0.53803  0.79402  0.93525  Biso   1.000  C
  H121     1.0000 0.64201  0.90686  0.09810  Biso   1.000  H
  N69      1.0000 0.70194  0.80808  0.07820  Biso   1.000  N
  H122     1.0000 0.67092  0.87021  0.15707  Biso   1.000  H
  H123     1.0000 0.35780  0.09296  0.90185  Biso   1.000  H
  H124     1.0000 0.32889  0.12961  0.84288  Biso   1.000  H
  N70      1.0000 0.45396  0.19805  0.91755  Biso   1.000  N
  H125     1.0000 0.32892  0.12952  0.84283  Biso   1.000  H
  N71      1.0000 0.45402  0.19805  0.91755  Biso   1.000  N
  C111     1.0000 0.61086  0.30098  0.08040  Biso   1.000  C
  C112     1.0000 0.52868  0.18762  0.97315  Biso   1.000  C
  H126     1.0000 0.51017  0.77493  0.88574  Biso   1.000  H
  N72      1.0000 0.62363  0.76554  0.95356  Biso   1.000  N
  H127     1.0000 0.55337  0.85733  0.95346  Biso   1.000  H
  C113     1.0000 0.76001  0.76236  0.10700  Biso   1.000  C
  C114     1.0000 0.71181  0.80681  0.01371  Biso   1.000  C
  C115     1.0000 0.71184  0.80672  0.01366  Biso   1.000  C
  C116     1.0000 0.49276  0.22788  0.87664  Biso   1.000  C
  C117     1.0000 0.49282  0.22781  0.87664  Biso   1.000  C
  O34      1.0000 0.63646  0.34306  0.14009  Biso   1.000  O
  N73      1.0000 0.65811  0.30903  0.03662  Biso   1.000  N
  N74      1.0000 0.65807  0.30894  0.03657  Biso   1.000  N
  H128     1.0000 0.52740  0.12607  0.96614  Biso   1.000  H
  C118     1.0000 0.62078  0.23640  0.97197  Biso   1.000  C
  H129     1.0000 0.52740  0.12601  0.96614  Biso   1.000  H
  C119     1.0000 0.62074  0.23631  0.97192  Biso   1.000  C
  C120     1.0000 0.63493  0.68905  0.90901  Biso   1.000  C
  N75      1.0000 0.79946  0.72015  0.06409  Biso   1.000  N
  O35      1.0000 0.77451  0.76413  0.16617  Biso   1.000  O
  C121     1.0000 0.77961  0.74302  0.00399  Biso   1.000  C
  C122     1.0000 0.74764  0.90269  0.02117  Biso   1.000  C
  C123     1.0000 0.77967  0.74296  0.00399  Biso   1.000  C
  C124     1.0000 0.74763  0.90263  0.02117  Biso   1.000  C
  N76      1.0000 0.58519  0.25793  0.91203  Biso   1.000  N
  O36      1.0000 0.44630  0.23169  0.82355  Biso   1.000  O
  O37      1.0000 0.44629  0.23163  0.82355  Biso   1.000  O
  C125     1.0000 0.75947  0.36218  0.06782  Biso   1.000  C
  C126     1.0000 0.75944  0.36216  0.06777  Biso   1.000  C
  H130     1.0000 0.66500  0.19873  0.96803  Biso   1.000  H
  N77      1.0000 0.72167  0.67185  0.93975  Biso   1.000  N
  O38      1.0000 0.58000  0.64385  0.85035  Biso   1.000  O
  C127     1.0000 0.85821  0.66205  0.08148  Biso   1.000  C
  C128     1.0000 0.87047  0.78451  0.00322  Biso   1.000  C
  C129     1.0000 0.87045  0.78448  0.00317  Biso   1.000  C
  H131     1.0000 0.70224  0.93568  0.02890  Biso   1.000  H
  H132     1.0000 0.80684  0.92855  0.05918  Biso   1.000  H
  H133     1.0000 0.75565  0.90275  0.97995  Biso   1.000  H
  C130     1.0000 0.64771  0.29195  0.88385  Biso   1.000  C
  H134     1.0000 0.77927  0.38604  0.11728  Biso   1.000  H
  H135     1.0000 0.79998  0.32415  0.05647  Biso   1.000  H
  N78      1.0000 0.76968  0.43167  0.04368  Biso   1.000  N
  C131     1.0000 0.75250  0.59695  0.90405  Biso   1.000  C
  N79      1.0000 0.80976  0.57009  0.05028  Biso   1.000  N
  N80      1.0000 0.80975  0.57003  0.05028  Biso   1.000  N
  H136     1.0000 0.91112  0.67001  0.06741  Biso   1.000  H
  H137     1.0000 0.91115  0.66992  0.06736  Biso   1.000  H
  H138     1.0000 0.88330  0.67842  0.13078  Biso   1.000  H
  H139     1.0000 0.90202  0.83537  0.04409  Biso   1.000  H
  H140     1.0000 0.85772  0.80105  0.96394  Biso   1.000  H
  H141     1.0000 0.90982  0.74357  0.00087  Biso   1.000  H
  H142     1.0000 0.61212  0.28067  0.83618  Biso   1.000  H
  H143     1.0000 0.69696  0.26011  0.88574  Biso   1.000  H
  H144     1.0000 0.61209  0.28064  0.83613  Biso   1.000  H
  N81      1.0000 0.69168  0.38473  0.91822  Biso   1.000  N
  C132     1.0000 0.78054  0.42066  0.97944  Biso   1.000  C
  C133     1.0000 0.78060  0.42060  0.97944  Biso   1.000  C
  C134     1.0000 0.79524  0.51820  0.08772  Biso   1.000  C
  C135     1.0000 0.79522  0.51817  0.08766  Biso   1.000  C
  N82      1.0000 0.73666  0.52322  0.92615  Biso   1.000  N
  H145     1.0000 0.71804  0.57840  0.85515  Biso   1.000  H
  H146     1.0000 0.71810  0.57834  0.85515  Biso   1.000  H
  H147     1.0000 0.81906  0.61472  0.91305  Biso   1.000  H
  C136     1.0000 0.81078  0.51626  0.98486  Biso   1.000  C
  C137     1.0000 0.81075  0.51623  0.98481  Biso   1.000  C
  C138     1.0000 0.67530  0.44489  0.88508  Biso   1.000  C
  C139     1.0000 0.67526  0.44481  0.88502  Biso   1.000  C
  H148     1.0000 0.82835  0.38796  0.97376  Biso   1.000  H
  H149     1.0000 0.82839  0.38793  0.97371  Biso   1.000  H
  O39      1.0000 0.80571  0.54661  0.14587  Biso   1.000  O
  H150     1.0000 0.87324  0.52854  0.98276  Biso   1.000  H
  H151     1.0000 0.87327  0.52851  0.98271  Biso   1.000  H
  O40      1.0000 0.61260  0.42763  0.82866  Biso   1.000  O
