data_image0
_cell_length_a       15.398
_cell_length_b       16.552
_cell_length_c       22.17
_cell_angle_alpha    107.91
_cell_angle_beta     108.62
_cell_angle_gamma    96.65

_symmetry_space_group_name_H-M    "P 1"
_symmetry_int_tables_number       1

loop_
  _symmetry_equiv_pos_as_xyz
  'x, y, z'

loop_
  _atom_site_label
  _atom_site_occupancy
  _atom_site_fract_x
  _atom_site_fract_y
  _atom_site_fract_z
  _atom_site_thermal_displace_type
  _atom_site_B_iso_or_equiv
  _atom_site_type_symbol
  C1       1.0000 0.49687  0.55887  0.68085  Biso   1.000  C
  C2       1.0000 0.57735  0.60185  0.66884  Biso   1.000  C
  H1       1.0000 0.52020  0.55067  0.72366  Biso   1.000  H
  H2       1.0000 0.45268  0.59517  0.68198  Biso   1.000  H
  H3       1.0000 0.46618  0.50316  0.64444  Biso   1.000  H
  N1       1.0000 0.54530  0.61487  0.60434  Biso   1.000  N
  C3       1.0000 0.64654  0.54076  0.65605  Biso   1.000  C
  N2       1.0000 0.63896  0.67921  0.72837  Biso   1.000  N
  C4       1.0000 0.59158  0.58822  0.56516  Biso   1.000  C
  C5       1.0000 0.47118  0.66549  0.58537  Biso   1.000  C
  N3       1.0000 0.65729  0.54683  0.59529  Biso   1.000  N
  C6       1.0000 0.61076  0.44259  0.64914  Biso   1.000  C
  N4       1.0000 0.73437  0.58547  0.71886  Biso   1.000  N
  C7       1.0000 0.60658  0.75146  0.76438  Biso   1.000  C
  C8       1.0000 0.72798  0.66468  0.75727  Biso   1.000  C
  O1       1.0000 0.57888  0.59170  0.50849  Biso   1.000  O
  H4       1.0000 0.42158  0.65159  0.60117  Biso   1.000  H
  H5       1.0000 0.44317  0.64683  0.53586  Biso   1.000  H
  N5       1.0000 0.50928  0.76078  0.61447  Biso   1.000  N
  C9       1.0000 0.71091  0.50024  0.55938  Biso   1.000  C
  H6       1.0000 0.60538  0.44258  0.69113  Biso   1.000  H
  H7       1.0000 0.55037  0.41692  0.61247  Biso   1.000  H
  H8       1.0000 0.65518  0.40932  0.63978  Biso   1.000  H
  C10      1.0000 0.81798  0.55196  0.73916  Biso   1.000  C
  N6       1.0000 0.59765  0.82115  0.73625  Biso   1.000  N
  H9       1.0000 0.54567  0.72825  0.76417  Biso   1.000  H
  H10      1.0000 0.65025  0.77697  0.81163  Biso   1.000  H
  O2       1.0000 0.78808  0.71475  0.81087  Biso   1.000  O
  C11      1.0000 0.52459  0.80709  0.57237  Biso   1.000  C
  C12      1.0000 0.51499  0.81628  0.68137  Biso   1.000  C
  H11      1.0000 0.70182  0.44101  0.55877  Biso   1.000  H
  H12      1.0000 0.68703  0.49711  0.51238  Biso   1.000  H
  N7       1.0000 0.81079  0.54142  0.59048  Biso   1.000  N
  H13      1.0000 0.84886  0.57738  0.78857  Biso   1.000  H
  H14      1.0000 0.79831  0.48928  0.72648  Biso   1.000  H
  N8       1.0000 0.88768  0.56970  0.70868  Biso   1.000  N
  C13      1.0000 0.64992  0.90417  0.77435  Biso   1.000  C
  N9       1.0000 0.53993  0.89556  0.61314  Biso   1.000  N
  O3       1.0000 0.51529  0.77708  0.51576  Biso   1.000  O
  C14      1.0000 0.53127  0.91035  0.67845  Biso   1.000  C
  H15      1.0000 0.45728  0.80127  0.68945  Biso   1.000  H
  C15      1.0000 0.85237  0.56831  0.55186  Biso   1.000  C
  C16      1.0000 0.87678  0.51990  0.64096  Biso   1.000  C
  C17      1.0000 0.97188  0.62630  0.75036  Biso   1.000  C
  N10      1.0000 0.61202  0.95786  0.73855  Biso   1.000  N
  O4       1.0000 0.71491  0.93252  0.82964  Biso   1.000  O
  C18      1.0000 0.54997  0.96219  0.58444  Biso   1.000  C
  H16      1.0000 0.47691  0.93530  0.68004  Biso   1.000  H
  N11      1.0000 0.95141  0.58252  0.58107  Biso   1.000  N
  O5       1.0000 0.81258  0.58454  0.50046  Biso   1.000  O
  H17      1.0000 0.86410  0.45699  0.63155  Biso   1.000  H
  C19      1.0000 0.97640  0.55622  0.64045  Biso   1.000  C
  N12      1.0000 0.02109  0.62917  0.70617  Biso   1.000  N
  O6       1.0000 0.00276  0.66695  0.81245  Biso   1.000  O
  C20      1.0000 0.64900  0.05298  0.76427  Biso   1.000  C
  H18      1.0000 0.52970  0.93434  0.53519  Biso   1.000  H
  H19      1.0000 0.50889  0.00043  0.59365  Biso   1.000  H
  N13      1.0000 0.64760  0.01531  0.61206  Biso   1.000  N
  C21      1.0000 0.01607  0.61289  0.55626  Biso   1.000  C
  H20      1.0000 0.01309  0.51168  0.63626  Biso   1.000  H
  C22      1.0000 0.11905  0.67989  0.73374  Biso   1.000  C
  H21      1.0000 0.68047  0.07328  0.81353  Biso   1.000  H
  H22      1.0000 0.59578  0.07960  0.75486  Biso   1.000  H
  N14      1.0000 0.71257  0.08477  0.73783  Biso   1.000  N
  C23      1.0000 0.70489  0.00870  0.57544  Biso   1.000  C
  C24      1.0000 0.68520  0.09363  0.67068  Biso   1.000  C
  H23      1.0000 0.98489  0.59780  0.50737  Biso   1.000  H
  H24      1.0000 0.06687  0.58312  0.56337  Biso   1.000  H
  N15      1.0000 0.05580  0.70611  0.58808  Biso   1.000  N
  H25      1.0000 0.15755  0.64130  0.71988  Biso   1.000  H
  H26      1.0000 0.14172  0.70176  0.78335  Biso   1.000  H
  N16      1.0000 0.13097  0.75166  0.71226  Biso   1.000  N
  C25      1.0000 0.80788  0.11339  0.77665  Biso   1.000  C
  O7       1.0000 0.68605  0.94953  0.51785  Biso   1.000  O
  N17      1.0000 0.78513  0.07183  0.61027  Biso   1.000  N
  C26      1.0000 0.78082  0.12999  0.66935  Biso   1.000  C
  H27      1.0000 0.64420  0.13441  0.66735  Biso   1.000  H
  C27      1.0000 0.03050  0.76392  0.55355  Biso   1.000  C
  C28      1.0000 0.14017  0.74809  0.64976  Biso   1.000  C
  C29      1.0000 0.13298  0.83691  0.75317  Biso   1.000  C
  N18      1.0000 0.85050  0.13378  0.73584  Biso   1.000  N
  O8       1.0000 0.84905  0.12025  0.83424  Biso   1.000  O
  C30      1.0000 0.85140  0.09195  0.57918  Biso   1.000  C
  H28      1.0000 0.78408  0.18871  0.66745  Biso   1.000  H
  O9       1.0000 0.97026  0.74431  0.49719  Biso   1.000  O
  N19      1.0000 0.08858  0.84506  0.59334  Biso   1.000  N
  H29      1.0000 0.19405  0.72427  0.64485  Biso   1.000  H
  C31      1.0000 0.15635  0.84728  0.65738  Biso   1.000  C
  N20      1.0000 0.14276  0.89190  0.71717  Biso   1.000  N
  O10      1.0000 0.13244  0.85823  0.80995  Biso   1.000  O
  C32      1.0000 0.95091  0.17538  0.75977  Biso   1.000  C
  H30      1.0000 0.82170  0.06312  0.52987  Biso   1.000  H
  H31      1.0000 0.86691  0.15440  0.58966  Biso   1.000  H
  N21      1.0000 0.94050  0.06294  0.60454  Biso   1.000  N
  C33      1.0000 0.08804  0.91887  0.56895  Biso   1.000  C
  H32      1.0000 0.22075  0.86919  0.66157  Biso   1.000  H
  C34      1.0000 0.17191  0.98445  0.75144  Biso   1.000  C
  H33      1.0000 0.97869  0.19095  0.80892  Biso   1.000  H
  H34      1.0000 0.95638  0.22908  0.75077  Biso   1.000  H
  N22      1.0000 0.00497  0.12180  0.72857  Biso   1.000  N
  C35      1.0000 0.95939  0.98904  0.56578  Biso   1.000  C
  C36      1.0000 0.01930  0.11815  0.66848  Biso   1.000  C
  H35      1.0000 0.05273  0.89650  0.51995  Biso   1.000  H
  H36      1.0000 0.15235  0.94541  0.57718  Biso   1.000  H
  N23      1.0000 0.04727  0.98512  0.60189  Biso   1.000  N
  H37      1.0000 0.18465  0.99788  0.79967  Biso   1.000  H
  H38      1.0000 0.23077  0.00509  0.74745  Biso   1.000  H
  N24      1.0000 0.10414  0.03292  0.72607  Biso   1.000  N
  C37      1.0000 0.05449  0.06949  0.76315  Biso   1.000  C
  O11      1.0000 0.90280  0.93852  0.51018  Biso   1.000  O
  C38      1.0000 0.09638  0.05863  0.66607  Biso   1.000  C
  C39      1.0000 0.05512  0.20903  0.66837  Biso   1.000  C
  O12      1.0000 0.05532  0.06927  0.81757  Biso   1.000  O
  C40      1.0000 0.19159  0.10348  0.67144  Biso   1.000  C
  H39      1.0000 0.06528  0.20240  0.62674  Biso   1.000  H
  H40      1.0000 0.00910  0.24283  0.67144  Biso   1.000  H
  H41      1.0000 0.11334  0.23829  0.70673  Biso   1.000  H
  H42      1.0000 0.22099  0.15164  0.71446  Biso   1.000  H
  H43      1.0000 0.23090  0.06260  0.66858  Biso   1.000  H
  H44      1.0000 0.18322  0.12471  0.63477  Biso   1.000  H
  O13      1.0000 0.42091  0.40813  0.49146  Biso   1.000  O
  C41      1.0000 0.40822  0.41162  0.43479  Biso   1.000  C
  N25      1.0000 0.45453  0.38494  0.39556  Biso   1.000  N
  N26      1.0000 0.34250  0.45300  0.40467  Biso   1.000  N
  C42      1.0000 0.42241  0.39796  0.33107  Biso   1.000  C
  C43      1.0000 0.52861  0.33435  0.41459  Biso   1.000  C
  C44      1.0000 0.35322  0.45904  0.34385  Biso   1.000  C
  C45      1.0000 0.28889  0.49959  0.44057  Biso   1.000  C
  N27      1.0000 0.36083  0.32063  0.27158  Biso   1.000  N
  C46      1.0000 0.50292  0.44096  0.31910  Biso   1.000  C
  N28      1.0000 0.49051  0.23905  0.38549  Biso   1.000  N
  H45      1.0000 0.57822  0.34824  0.39878  Biso   1.000  H
  H46      1.0000 0.55660  0.35304  0.46405  Biso   1.000  H
  N29      1.0000 0.26543  0.41437  0.28110  Biso   1.000  N
  C47      1.0000 0.38901  0.55722  0.35076  Biso   1.000  C
  H47      1.0000 0.29803  0.55882  0.44118  Biso   1.000  H
  H48      1.0000 0.31283  0.50272  0.48757  Biso   1.000  H
  N30      1.0000 0.18900  0.45841  0.40947  Biso   1.000  N
  C48      1.0000 0.27187  0.33515  0.24269  Biso   1.000  C
  C49      1.0000 0.39328  0.24837  0.23558  Biso   1.000  C
  H49      1.0000 0.47965  0.44916  0.27629  Biso   1.000  H
  H50      1.0000 0.54712  0.40467  0.31797  Biso   1.000  H
  H51      1.0000 0.53359  0.49665  0.35546  Biso   1.000  H
  C50      1.0000 0.48487  0.18355  0.31859  Biso   1.000  C
  C51      1.0000 0.47527  0.19274  0.42758  Biso   1.000  C
  C52      1.0000 0.18181  0.44787  0.26079  Biso   1.000  C
  H52      1.0000 0.39439  0.55723  0.30877  Biso   1.000  H
  H53      1.0000 0.44942  0.58291  0.38748  Biso   1.000  H
  H54      1.0000 0.34462  0.59051  0.36017  Biso   1.000  H
  C53      1.0000 0.12301  0.47993  0.35899  Biso   1.000  C
  C54      1.0000 0.14742  0.43152  0.44809  Biso   1.000  C
  O14      1.0000 0.21178  0.28508  0.18909  Biso   1.000  O
  H55      1.0000 0.45412  0.27158  0.23578  Biso   1.000  H
  H56      1.0000 0.34958  0.22284  0.18827  Biso   1.000  H
  N31      1.0000 0.40214  0.17869  0.26371  Biso   1.000  N
  C55      1.0000 0.46859  0.08948  0.32150  Biso   1.000  C
  H57      1.0000 0.54255  0.19854  0.31046  Biso   1.000  H
  N32      1.0000 0.45984  0.10425  0.38677  Biso   1.000  N
  O15      1.0000 0.48455  0.22272  0.48415  Biso   1.000  O
  H58      1.0000 0.15093  0.42245  0.21139  Biso   1.000  H
  H59      1.0000 0.20155  0.51055  0.27348  Biso   1.000  H
  N33      1.0000 0.11211  0.43013  0.29128  Biso   1.000  N
  H60      1.0000 0.13573  0.54282  0.36835  Biso   1.000  H
  C56      1.0000 0.02343  0.44365  0.35945  Biso   1.000  C
  N34      1.0000 0.04845  0.41731  0.41889  Biso   1.000  N
  O16      1.0000 0.18722  0.41536  0.49949  Biso   1.000  O
  C57      1.0000 0.34987  0.09566  0.22560  Biso   1.000  C
  N35      1.0000 0.38777  0.04197  0.26141  Biso   1.000  N
  H61      1.0000 0.52286  0.06457  0.31987  Biso   1.000  H
  C58      1.0000 0.44986  0.03762  0.41546  Biso   1.000  C
  C59      1.0000 0.02791  0.37354  0.24959  Biso   1.000  C
  N36      1.0000 0.97877  0.37066  0.29378  Biso   1.000  N
  H62      1.0000 0.98676  0.48815  0.36370  Biso   1.000  H
  C60      1.0000 0.98373  0.38695  0.44369  Biso   1.000  C
  O17      1.0000 0.28486  0.06728  0.17026  Biso   1.000  O
  C61      1.0000 0.35079  0.94685  0.23568  Biso   1.000  C
  H63      1.0000 0.47016  0.06555  0.46476  Biso   1.000  H
  H64      1.0000 0.49088  0.99938  0.40625  Biso   1.000  H
  N37      1.0000 0.35219  0.98453  0.38789  Biso   1.000  N
  O18      1.0000 0.99703  0.33288  0.18750  Biso   1.000  O
  C62      1.0000 0.88073  0.31998  0.26616  Biso   1.000  C
  H65      1.0000 0.01490  0.40203  0.49259  Biso   1.000  H
  H66      1.0000 0.93292  0.41671  0.43658  Biso   1.000  H
  N38      1.0000 0.94405  0.29373  0.41188  Biso   1.000  N
  H67      1.0000 0.31929  0.92653  0.18638  Biso   1.000  H
  H68      1.0000 0.40401  0.92023  0.24509  Biso   1.000  H
  N39      1.0000 0.28720  0.91504  0.26207  Biso   1.000  N
  C63      1.0000 0.31459  0.90620  0.32928  Biso   1.000  C
  C64      1.0000 0.29488  0.99111  0.42446  Biso   1.000  C
  H69      1.0000 0.84224  0.35854  0.28008  Biso   1.000  H
  H70      1.0000 0.85807  0.29807  0.21660  Biso   1.000  H
  N40      1.0000 0.86883  0.24818  0.28770  Biso   1.000  N
  C65      1.0000 0.85962  0.25174  0.35020  Biso   1.000  C
  C66      1.0000 0.96934  0.23595  0.44635  Biso   1.000  C
  C67      1.0000 0.19191  0.88644  0.22330  Biso   1.000  C
  C68      1.0000 0.21901  0.86982  0.33056  Biso   1.000  C
  H71      1.0000 0.35559  0.86542  0.33260  Biso   1.000  H
  O19      1.0000 0.31373  0.05034  0.48205  Biso   1.000  O
  N41      1.0000 0.21467  0.92800  0.38968  Biso   1.000  N
  C69      1.0000 0.86688  0.16298  0.24678  Biso   1.000  C
  H72      1.0000 0.80572  0.27554  0.35505  Biso   1.000  H
  C70      1.0000 0.84345  0.15256  0.34258  Biso   1.000  C
  O20      1.0000 0.02953  0.25552  0.50276  Biso   1.000  O
  N42      1.0000 0.91126  0.15475  0.40656  Biso   1.000  N
  N43      1.0000 0.14933  0.86603  0.26407  Biso   1.000  N
  O21      1.0000 0.15075  0.87958  0.16571  Biso   1.000  O
  H73      1.0000 0.21572  0.81112  0.33250  Biso   1.000  H
  C71      1.0000 0.14839  0.90788  0.42078  Biso   1.000  C
  N44      1.0000 0.85703  0.10793  0.28279  Biso   1.000  N
  O22      1.0000 0.86735  0.14160  0.19001  Biso   1.000  O
  H74      1.0000 0.77904  0.13065  0.33838  Biso   1.000  H
  C72      1.0000 0.91172  0.08094  0.43096  Biso   1.000  C
  C73      1.0000 0.04895  0.82445  0.24018  Biso   1.000  C
  H75      1.0000 0.17809  0.93672  0.47008  Biso   1.000  H
  H76      1.0000 0.13288  0.84543  0.41029  Biso   1.000  H
  N45      1.0000 0.05927  0.93692  0.39536  Biso   1.000  N
  C74      1.0000 0.82785  0.01536  0.24847  Biso   1.000  C
  H77      1.0000 0.94704  0.10331  0.47995  Biso   1.000  H
  H78      1.0000 0.84745  0.05443  0.42277  Biso   1.000  H
  N46      1.0000 0.95253  0.01471  0.39807  Biso   1.000  N
  N47      1.0000 0.99482  0.87803  0.27138  Biso   1.000  N
  H79      1.0000 0.02114  0.80886  0.19098  Biso   1.000  H
  H80      1.0000 0.04341  0.77075  0.24918  Biso   1.000  H
  C75      1.0000 0.98050  0.88174  0.33148  Biso   1.000  C
  C76      1.0000 0.04047  0.01086  0.43418  Biso   1.000  C
  H81      1.0000 0.76902  0.99474  0.25251  Biso   1.000  H
  N48      1.0000 0.89572  0.96691  0.27389  Biso   1.000  N
  H82      1.0000 0.81520  0.00195  0.20029  Biso   1.000  H
  C77      1.0000 0.90341  0.94120  0.33388  Biso   1.000  C
  C78      1.0000 0.94530  0.93035  0.23681  Biso   1.000  C
  C79      1.0000 0.94468  0.79080  0.33158  Biso   1.000  C
  O23      1.0000 0.09706  0.06131  0.48977  Biso   1.000  O
  C80      1.0000 0.80818  0.89633  0.32846  Biso   1.000  C
  O24      1.0000 0.94454  0.93056  0.18239  Biso   1.000  O
  H83      1.0000 0.93448  0.79741  0.37316  Biso   1.000  H
  H84      1.0000 0.99073  0.75698  0.32846  Biso   1.000  H
  H85      1.0000 0.88642  0.76152  0.29317  Biso   1.000  H
  H86      1.0000 0.77881  0.84826  0.28550  Biso   1.000  H
  H87      1.0000 0.76889  0.93723  0.33137  Biso   1.000  H
  H88      1.0000 0.81658  0.87512  0.36518  Biso   1.000  H
  O25      1.0000 0.57998  0.64387  0.85035  Biso   1.000  O
  C81      1.0000 0.63491  0.68906  0.90902  Biso   1.000  C
  N49      1.0000 0.72166  0.67187  0.93976  Biso   1.000  N
  N50      1.0000 0.62361  0.76555  0.95356  Biso   1.000  N
  C82      1.0000 0.75248  0.59697  0.90406  Biso   1.000  C
  C83      1.0000 0.77959  0.74303  0.00399  Biso   1.000  C
  C84      1.0000 0.71180  0.80682  0.01371  Biso   1.000  C
  C85      1.0000 0.53801  0.79403  0.93525  Biso   1.000  C
  N51      1.0000 0.73664  0.52324  0.92615  Biso   1.000  N
  H89      1.0000 0.71808  0.57836  0.85516  Biso   1.000  H
  H90      1.0000 0.81904  0.61474  0.91306  Biso   1.000  H
  C86      1.0000 0.87046  0.78452  0.00323  Biso   1.000  C
  N52      1.0000 0.79944  0.72017  0.06409  Biso   1.000  N
  C87      1.0000 0.74762  0.90271  0.02118  Biso   1.000  C
  N53      1.0000 0.70192  0.80810  0.07821  Biso   1.000  N
  H91      1.0000 0.51015  0.77495  0.88574  Biso   1.000  H
  H92      1.0000 0.55336  0.85735  0.95346  Biso   1.000  H
  N54      1.0000 0.46862  0.76276  0.95904  Biso   1.000  N
  C88      1.0000 0.67525  0.44482  0.88503  Biso   1.000  C
  C89      1.0000 0.81074  0.51625  0.98481  Biso   1.000  C
  H93      1.0000 0.85770  0.80107  0.96395  Biso   1.000  H
  H94      1.0000 0.90200  0.83539  0.04409  Biso   1.000  H
  H95      1.0000 0.90983  0.74361  0.00093  Biso   1.000  H
  C90      1.0000 0.85819  0.66206  0.08148  Biso   1.000  C
  C91      1.0000 0.76000  0.76238  0.10700  Biso   1.000  C
  H96      1.0000 0.75563  0.90277  0.97996  Biso   1.000  H
  H97      1.0000 0.70222  0.93570  0.02890  Biso   1.000  H
  H98      1.0000 0.80682  0.92857  0.05918  Biso   1.000  H
  C92      1.0000 0.64333  0.85368  0.10792  Biso   1.000  C
  C93      1.0000 0.38893  0.69886  0.91955  Biso   1.000  C
  C94      1.0000 0.47112  0.81222  0.02681  Biso   1.000  C
  O26      1.0000 0.61258  0.42765  0.82867  Biso   1.000  O
  N55      1.0000 0.69167  0.38474  0.91822  Biso   1.000  N
  C95      1.0000 0.78058  0.42062  0.97944  Biso   1.000  C
  H99      1.0000 0.87326  0.52853  0.98272  Biso   1.000  H
  N56      1.0000 0.80974  0.57010  0.05028  Biso   1.000  N
  H100     1.0000 0.91110  0.67002  0.06742  Biso   1.000  H
  H101     1.0000 0.88329  0.67849  0.13079  Biso   1.000  H
  O27      1.0000 0.77450  0.76421  0.16618  Biso   1.000  O
  H102     1.0000 0.64199  0.90687  0.09810  Biso   1.000  H
  H103     1.0000 0.67091  0.87028  0.15707  Biso   1.000  H
  N57      1.0000 0.54584  0.80178  0.08240  Biso   1.000  N
  N58      1.0000 0.34175  0.69081  0.96333  Biso   1.000  N
  O28      1.0000 0.36333  0.65677  0.85987  Biso   1.000  O
  H104     1.0000 0.47240  0.87382  0.03381  Biso   1.000  H
  C96      1.0000 0.37902  0.76350  0.02798  Biso   1.000  C
  C97      1.0000 0.64769  0.29197  0.88385  Biso   1.000  C
  H105     1.0000 0.82837  0.38795  0.97372  Biso   1.000  H
  N59      1.0000 0.76960  0.43168  0.04368  Biso   1.000  N
  C98      1.0000 0.79523  0.51821  0.08772  Biso   1.000  C
  C99      1.0000 0.50704  0.77202  0.12332  Biso   1.000  C
  C100     1.0000 0.24032  0.63765  0.93213  Biso   1.000  C
  H106     1.0000 0.33479  0.80111  0.03192  Biso   1.000  H
  N60      1.0000 0.41461  0.74190  0.08792  Biso   1.000  N
  H107     1.0000 0.69694  0.26013  0.88574  Biso   1.000  H
  H108     1.0000 0.61207  0.28066  0.83613  Biso   1.000  H
  N61      1.0000 0.58517  0.25795  0.91203  Biso   1.000  N
  C101     1.0000 0.75945  0.36220  0.06782  Biso   1.000  C
  O29      1.0000 0.80570  0.54669  0.14587  Biso   1.000  O
  O30      1.0000 0.55350  0.76820  0.17641  Biso   1.000  O
  H109     1.0000 0.19986  0.67566  0.94344  Biso   1.000  H
  H110     1.0000 0.22057  0.61377  0.88263  Biso   1.000  H
  N62      1.0000 0.23015  0.56814  0.95622  Biso   1.000  N
  C102     1.0000 0.35215  0.70788  0.11611  Biso   1.000  C
  C103     1.0000 0.49280  0.22783  0.87664  Biso   1.000  C
  C104     1.0000 0.62073  0.23633  0.97193  Biso   1.000  C
  H111     1.0000 0.79998  0.32419  0.05652  Biso   1.000  H
  H112     1.0000 0.77925  0.38606  0.11728  Biso   1.000  H
  N63      1.0000 0.65809  0.30904  0.03663  Biso   1.000  N
  C105     1.0000 0.20455  0.48164  0.91224  Biso   1.000  C
  C106     1.0000 0.21926  0.57923  0.02051  Biso   1.000  C
  H113     1.0000 0.30283  0.73972  0.11421  Biso   1.000  H
  H114     1.0000 0.38768  0.71917  0.16377  Biso   1.000  H
  N64      1.0000 0.30815  0.61508  0.08168  Biso   1.000  N
  N65      1.0000 0.45400  0.19807  0.91756  Biso   1.000  N
  O31      1.0000 0.44627  0.23165  0.82355  Biso   1.000  O
  C107     1.0000 0.52866  0.18763  0.97315  Biso   1.000  C
  H115     1.0000 0.66498  0.19874  0.96804  Biso   1.000  H
  C108     1.0000 0.61084  0.30099  0.08041  Biso   1.000  C
  N66      1.0000 0.19007  0.42972  0.94963  Biso   1.000  N
  O32      1.0000 0.19405  0.45314  0.85403  Biso   1.000  O
  C109     1.0000 0.18901  0.48358  0.01509  Biso   1.000  C
  H116     1.0000 0.17144  0.61188  0.02619  Biso   1.000  H
  C110     1.0000 0.32450  0.55500  0.11488  Biso   1.000  C
  C111     1.0000 0.35645  0.14617  0.89204  Biso   1.000  C
  H117     1.0000 0.52738  0.12603  0.96615  Biso   1.000  H
  N67      1.0000 0.53116  0.23709  0.04092  Biso   1.000  N
  O33      1.0000 0.63644  0.34308  0.14009  Biso   1.000  O
  C112     1.0000 0.14155  0.33776  0.91843  Biso   1.000  C
  N68      1.0000 0.26313  0.47661  0.07381  Biso   1.000  N
  H118     1.0000 0.12656  0.47130  0.01719  Biso   1.000  H
  O34      1.0000 0.38719  0.57220  0.17129  Biso   1.000  O
  H119     1.0000 0.35778  0.09298  0.90186  Biso   1.000  H
  H120     1.0000 0.32890  0.12954  0.84283  Biso   1.000  H
  N69      1.0000 0.29785  0.19176  0.92175  Biso   1.000  N
  C113     1.0000 0.46176  0.20582  0.06470  Biso   1.000  C
  N70      1.0000 0.20037  0.27966  0.93582  Biso   1.000  N
  H121     1.0000 0.08867  0.32983  0.93254  Biso   1.000  H
  H122     1.0000 0.11645  0.32133  0.86912  Biso   1.000  H
  C114     1.0000 0.24736  0.40288  0.09590  Biso   1.000  C
  C115     1.0000 0.28798  0.19303  0.98625  Biso   1.000  C
  C116     1.0000 0.23978  0.23747  0.89296  Biso   1.000  C
  H123     1.0000 0.48969  0.22490  0.11421  Biso   1.000  H
  H124     1.0000 0.44648  0.14250  0.04650  Biso   1.000  H
  N71      1.0000 0.37616  0.23430  0.04639  Biso   1.000  N
  C117     1.0000 0.22016  0.25685  0.99591  Biso   1.000  C
  N72      1.0000 0.27812  0.32798  0.06020  Biso   1.000  N
  H125     1.0000 0.28176  0.42149  0.14480  Biso   1.000  H
  H126     1.0000 0.18074  0.38511  0.08690  Biso   1.000  H
  C118     1.0000 0.25219  0.09712  0.97873  Biso   1.000  C
  O35      1.0000 0.22525  0.23568  0.83373  Biso   1.000  O
  C119     1.0000 0.36484  0.31082  0.09089  Biso   1.000  C
  C120     1.0000 0.12938  0.21533  0.99673  Biso   1.000  C
  H127     1.0000 0.29762  0.06415  0.97106  Biso   1.000  H
  H128     1.0000 0.19299  0.07126  0.94073  Biso   1.000  H
  H129     1.0000 0.24415  0.09714  0.02000  Biso   1.000  H
  O36      1.0000 0.41986  0.35598  0.14961  Biso   1.000  O
  H130     1.0000 0.09775  0.16444  0.95581  Biso   1.000  H
  H131     1.0000 0.08995  0.25624  0.99903  Biso   1.000  H
  H132     1.0000 0.14207  0.19878  0.03601  Biso   1.000  H
  Ne1      1.0000 0.16567  0.17115  0.33687  Biso   1.000  Ne
  He1      1.0000 0.23872  0.22896  0.49637  Biso   1.000  He
  He2      1.0000 0.07956  0.10339  0.18090  Biso   1.000  He
  Ar1      1.0000 0.16645  0.17099  0.33679  Biso   1.000  Ar
  Ne2      1.0000 0.83413  0.82868  0.66307  Biso   1.000  Ne
  He3      1.0000 0.92218  0.89770  0.82224  Biso   1.000  He
  He4      1.0000 0.71861  0.75316  0.50377  Biso   1.000  He
  Ar2      1.0000 0.83335  0.82886  0.66315  Biso   1.000  Ar
  Ne3      1.0000 0.49989  0.49992  0.99997  Biso   1.000  Ne
  He5      1.0000 0.60240  0.54745  0.17323  Biso   1.000  He
  He6      1.0000 0.39845  0.43729  0.83321  Biso   1.000  He
  Ar3      1.0000 0.49990  0.49992  0.99997  Biso   1.000  Ar
