data_image0
_cell_length_a       15.391
_cell_length_b       18.641
_cell_length_c       12.872
_cell_angle_alpha    90
_cell_angle_beta     95.93
_cell_angle_gamma    90

_symmetry_space_group_name_H-M    "P 1"
_symmetry_int_tables_number       1

loop_
  _symmetry_equiv_pos_as_xyz
  'x, y, z'

loop_
  _atom_site_label
  _atom_site_occupancy
  _atom_site_fract_x
  _atom_site_fract_y
  _atom_site_fract_z
  _atom_site_thermal_displace_type
  _atom_site_B_iso_or_equiv
  _atom_site_type_symbol
  C1       1.0000 0.59987  0.20498  0.79231  Biso   1.000  C
  N1       1.0000 0.53128  0.16094  0.74060  Biso   1.000  N
  H1       1.0000 0.61919  0.24162  0.74513  Biso   1.000  H
  C2       1.0000 0.55608  0.23936  0.88400  Biso   1.000  C
  N2       1.0000 0.67294  0.16651  0.84464  Biso   1.000  N
  C3       1.0000 0.53608  0.13052  0.63828  Biso   1.000  C
  C4       1.0000 0.45371  0.16957  0.78207  Biso   1.000  C
  N3       1.0000 0.46789  0.21152  0.86869  Biso   1.000  N
  H2       1.0000 0.55703  0.29188  0.88072  Biso   1.000  H
  N4       1.0000 0.60899  0.21270  0.97523  Biso   1.000  N
  C5       1.0000 0.73790  0.13079  0.78957  Biso   1.000  C
  C6       1.0000 0.67983  0.17462  0.95071  Biso   1.000  C
  H3       1.0000 0.57047  0.16201  0.59868  Biso   1.000  H
  H4       1.0000 0.47773  0.12810  0.60212  Biso   1.000  H
  N5       1.0000 0.57468  0.05885  0.64133  Biso   1.000  N
  O1       1.0000 0.38367  0.14463  0.74747  Biso   1.000  O
  C7       1.0000 0.39699  0.24173  0.92118  Biso   1.000  C
  C8       1.0000 0.60299  0.24173  0.07880  Biso   1.000  C
  N6       1.0000 0.71344  0.05928  0.75161  Biso   1.000  N
  H5       1.0000 0.79160  0.12730  0.83581  Biso   1.000  H
  H6       1.0000 0.74969  0.16029  0.73053  Biso   1.000  H
  O2       1.0000 0.73952  0.15353  0.01132  Biso   1.000  O
  C9       1.0000 0.52351  0.00000  0.63336  Biso   1.000  C
  C10      1.0000 0.66809  0.04276  0.64937  Biso   1.000  C
  H7       1.0000 0.40492  0.29322  0.92657  Biso   1.000  H
  H8       1.0000 0.34231  0.23287  0.87861  Biso   1.000  H
  N7       1.0000 0.39106  0.21270  0.02483  Biso   1.000  N
  H9       1.0000 0.59512  0.29322  0.07341  Biso   1.000  H
  H10      1.0000 0.65767  0.23287  0.12137  Biso   1.000  H
  N8       1.0000 0.53209  0.21152  0.13129  Biso   1.000  N
  C11      1.0000 0.74281  0.00000  0.80582  Biso   1.000  C
  O3       1.0000 0.44361  0.00000  0.62079  Biso   1.000  O
  N9       1.0000 0.57468  0.94115  0.64133  Biso   1.000  N
  C12      1.0000 0.71097  0.07779  0.56057  Biso   1.000  C
  C13      1.0000 0.66809  0.95724  0.64937  Biso   1.000  C
  C14      1.0000 0.44390  0.23936  0.11598  Biso   1.000  C
  C15      1.0000 0.32021  0.17462  0.04928  Biso   1.000  C
  C16      1.0000 0.54627  0.16957  0.21791  Biso   1.000  C
  N10      1.0000 0.71344  0.94072  0.75161  Biso   1.000  N
  O4       1.0000 0.78660  0.00000  0.89002  Biso   1.000  O
  C17      1.0000 0.53608  0.86948  0.63828  Biso   1.000  C
  H11      1.0000 0.67918  0.06529  0.49504  Biso   1.000  H
  H12      1.0000 0.77019  0.06110  0.56174  Biso   1.000  H
  H13      1.0000 0.71079  0.12891  0.56908  Biso   1.000  H
  C18      1.0000 0.71097  0.92221  0.56057  Biso   1.000  C
  C19      1.0000 0.40011  0.20498  0.20767  Biso   1.000  C
  H14      1.0000 0.44302  0.29188  0.11926  Biso   1.000  H
  O5       1.0000 0.26046  0.15353  0.98867  Biso   1.000  O
  N11      1.0000 0.32704  0.16651  0.15542  Biso   1.000  N
  N12      1.0000 0.46877  0.16094  0.25938  Biso   1.000  N
  O6       1.0000 0.61631  0.14463  0.25251  Biso   1.000  O
  C20      1.0000 0.73790  0.86921  0.78957  Biso   1.000  C
  H15      1.0000 0.57047  0.83799  0.59868  Biso   1.000  H
  H16      1.0000 0.47773  0.87190  0.60212  Biso   1.000  H
  N13      1.0000 0.53128  0.83906  0.74060  Biso   1.000  N
  H17      1.0000 0.67918  0.93471  0.49504  Biso   1.000  H
  H18      1.0000 0.77019  0.93890  0.56174  Biso   1.000  H
  H19      1.0000 0.71079  0.87109  0.56908  Biso   1.000  H
  H20      1.0000 0.38080  0.24162  0.25493  Biso   1.000  H
  C21      1.0000 0.26208  0.13079  0.21041  Biso   1.000  C
  C22      1.0000 0.46390  0.13052  0.36170  Biso   1.000  C
  H21      1.0000 0.79160  0.87270  0.83581  Biso   1.000  H
  H22      1.0000 0.74969  0.83971  0.73053  Biso   1.000  H
  N14      1.0000 0.67294  0.83349  0.84464  Biso   1.000  N
  C23      1.0000 0.45371  0.83043  0.78207  Biso   1.000  C
  C24      1.0000 0.59987  0.79502  0.79231  Biso   1.000  C
  H23      1.0000 0.20838  0.12730  0.16417  Biso   1.000  H
  H24      1.0000 0.25029  0.16029  0.26946  Biso   1.000  H
  N15      1.0000 0.28654  0.05928  0.24837  Biso   1.000  N
  H25      1.0000 0.42951  0.16201  0.40130  Biso   1.000  H
  H26      1.0000 0.52231  0.12810  0.39786  Biso   1.000  H
  N16      1.0000 0.42537  0.05885  0.35865  Biso   1.000  N
  C25      1.0000 0.67983  0.82538  0.95071  Biso   1.000  C
  N17      1.0000 0.46789  0.78848  0.86869  Biso   1.000  N
  O7       1.0000 0.38367  0.85537  0.74747  Biso   1.000  O
  H27      1.0000 0.61919  0.75838  0.74513  Biso   1.000  H
  C26      1.0000 0.55608  0.76064  0.88400  Biso   1.000  C
  C27      1.0000 0.33189  0.04276  0.35061  Biso   1.000  C
  C28      1.0000 0.25717  0.00000  0.19416  Biso   1.000  C
  C29      1.0000 0.47647  0.00000  0.36662  Biso   1.000  C
  N18      1.0000 0.60899  0.78730  0.97523  Biso   1.000  N
  O8       1.0000 0.73952  0.84647  0.01132  Biso   1.000  O
  C30      1.0000 0.39699  0.75827  0.92118  Biso   1.000  C
  H28      1.0000 0.55703  0.70812  0.88072  Biso   1.000  H
  C31      1.0000 0.33189  0.95724  0.35061  Biso   1.000  C
  C32      1.0000 0.28901  0.07779  0.43941  Biso   1.000  C
  N19      1.0000 0.28654  0.94072  0.24837  Biso   1.000  N
  O9       1.0000 0.21338  0.00000  0.10996  Biso   1.000  O
  N20      1.0000 0.42537  0.94115  0.35865  Biso   1.000  N
  O10      1.0000 0.55637  0.00000  0.37920  Biso   1.000  O
  C33      1.0000 0.60299  0.75827  0.07880  Biso   1.000  C
  H29      1.0000 0.40492  0.70678  0.92657  Biso   1.000  H
  H30      1.0000 0.34231  0.76713  0.87861  Biso   1.000  H
  N21      1.0000 0.39106  0.78730  0.02483  Biso   1.000  N
  C34      1.0000 0.28901  0.92221  0.43941  Biso   1.000  C
  H31      1.0000 0.32080  0.06529  0.50502  Biso   1.000  H
  H32      1.0000 0.22979  0.06110  0.43832  Biso   1.000  H
  H33      1.0000 0.28919  0.12891  0.43090  Biso   1.000  H
  C35      1.0000 0.26208  0.86921  0.21041  Biso   1.000  C
  C36      1.0000 0.46390  0.86948  0.36170  Biso   1.000  C
  H34      1.0000 0.59512  0.70678  0.07341  Biso   1.000  H
  H35      1.0000 0.65767  0.76713  0.12137  Biso   1.000  H
  N22      1.0000 0.53209  0.78848  0.13129  Biso   1.000  N
  C37      1.0000 0.44390  0.76064  0.11598  Biso   1.000  C
  C38      1.0000 0.32021  0.82538  0.04928  Biso   1.000  C
  H36      1.0000 0.32080  0.93471  0.50502  Biso   1.000  H
  H37      1.0000 0.22979  0.93890  0.43832  Biso   1.000  H
  H38      1.0000 0.28919  0.87109  0.43090  Biso   1.000  H
  N23      1.0000 0.32704  0.83349  0.15542  Biso   1.000  N
  H39      1.0000 0.20838  0.87270  0.16417  Biso   1.000  H
  H40      1.0000 0.25029  0.83971  0.26946  Biso   1.000  H
  N24      1.0000 0.46877  0.83906  0.25938  Biso   1.000  N
  H41      1.0000 0.42951  0.83799  0.40130  Biso   1.000  H
  H42      1.0000 0.52231  0.87190  0.39786  Biso   1.000  H
  C39      1.0000 0.54627  0.83043  0.21791  Biso   1.000  C
  C40      1.0000 0.40011  0.79502  0.20767  Biso   1.000  C
  H43      1.0000 0.44302  0.70812  0.11926  Biso   1.000  H
  O11      1.0000 0.26046  0.84647  0.98867  Biso   1.000  O
  O12      1.0000 0.61631  0.85537  0.25251  Biso   1.000  O
  H44      1.0000 0.38080  0.75838  0.25493  Biso   1.000  H
  O13      1.0000 0.76049  0.34644  0.98867  Biso   1.000  O
  C41      1.0000 0.82018  0.32536  0.04928  Biso   1.000  C
  N25      1.0000 0.89103  0.28727  0.02483  Biso   1.000  N
  N26      1.0000 0.82708  0.33346  0.15542  Biso   1.000  N
  C42      1.0000 0.89702  0.25830  0.92118  Biso   1.000  C
  C43      1.0000 0.94387  0.26066  0.11598  Biso   1.000  C
  C44      1.0000 0.90007  0.29505  0.20767  Biso   1.000  C
  C45      1.0000 0.76211  0.36919  0.21041  Biso   1.000  C
  N27      1.0000 0.96792  0.28850  0.86869  Biso   1.000  N
  H45      1.0000 0.90489  0.20680  0.92657  Biso   1.000  H
  H46      1.0000 0.84227  0.26710  0.87861  Biso   1.000  H
  H47      1.0000 0.94298  0.20809  0.11926  Biso   1.000  H
  N28      1.0000 0.03206  0.28850  0.13129  Biso   1.000  N
  H48      1.0000 0.88077  0.25841  0.25493  Biso   1.000  H
  N29      1.0000 0.96873  0.33909  0.25938  Biso   1.000  N
  H49      1.0000 0.70841  0.37273  0.16417  Biso   1.000  H
  H50      1.0000 0.75026  0.33968  0.26946  Biso   1.000  H
  N30      1.0000 0.78651  0.44075  0.24837  Biso   1.000  N
  C46      1.0000 0.95368  0.33045  0.78207  Biso   1.000  C
  C47      1.0000 0.05611  0.26066  0.88400  Biso   1.000  C
  C48      1.0000 0.10296  0.25830  0.07880  Biso   1.000  C
  C49      1.0000 0.04630  0.33045  0.21791  Biso   1.000  C
  C50      1.0000 0.96387  0.36951  0.36170  Biso   1.000  C
  C51      1.0000 0.83192  0.45727  0.35061  Biso   1.000  C
  C52      1.0000 0.75720  0.49997  0.19416  Biso   1.000  C
  O14      1.0000 0.88364  0.35535  0.74747  Biso   1.000  O
  N31      1.0000 0.03124  0.33909  0.74060  Biso   1.000  N
  C53      1.0000 0.09991  0.29505  0.79231  Biso   1.000  C
  H51      1.0000 0.05700  0.20809  0.88072  Biso   1.000  H
  N32      1.0000 0.10895  0.28727  0.97523  Biso   1.000  N
  H52      1.0000 0.09509  0.20680  0.07341  Biso   1.000  H
  H53      1.0000 0.15771  0.26710  0.12137  Biso   1.000  H
  O15      1.0000 0.11634  0.35535  0.25251  Biso   1.000  O
  H54      1.0000 0.92947  0.33802  0.40130  Biso   1.000  H
  N33      1.0000 0.92533  0.44112  0.35865  Biso   1.000  N
  H55      1.0000 0.02228  0.37192  0.39786  Biso   1.000  H
  C54      1.0000 0.83192  0.54273  0.35061  Biso   1.000  C
  C55      1.0000 0.78898  0.42219  0.43941  Biso   1.000  C
  N34      1.0000 0.78651  0.55925  0.24837  Biso   1.000  N
  O16      1.0000 0.71341  0.49997  0.10996  Biso   1.000  O
  C56      1.0000 0.03611  0.36951  0.63828  Biso   1.000  C
  H56      1.0000 0.11922  0.25841  0.74513  Biso   1.000  H
  N35      1.0000 0.17291  0.33346  0.84464  Biso   1.000  N
  C57      1.0000 0.17980  0.32536  0.95071  Biso   1.000  C
  C58      1.0000 0.97651  0.49997  0.36662  Biso   1.000  C
  N36      1.0000 0.92533  0.55888  0.35865  Biso   1.000  N
  C59      1.0000 0.78898  0.57781  0.43941  Biso   1.000  C
  H57      1.0000 0.82077  0.43469  0.50502  Biso   1.000  H
  H58      1.0000 0.72976  0.43892  0.43832  Biso   1.000  H
  H59      1.0000 0.78922  0.37112  0.43090  Biso   1.000  H
  C60      1.0000 0.76211  0.63081  0.21041  Biso   1.000  C
  H60      1.0000 0.97770  0.37192  0.60212  Biso   1.000  H
  H61      1.0000 0.07051  0.33802  0.59868  Biso   1.000  H
  N37      1.0000 0.07465  0.44112  0.64133  Biso   1.000  N
  C61      1.0000 0.23787  0.36919  0.78957  Biso   1.000  C
  O17      1.0000 0.23948  0.34644  0.01132  Biso   1.000  O
  O18      1.0000 0.05640  0.49997  0.37920  Biso   1.000  O
  C62      1.0000 0.96387  0.63049  0.36170  Biso   1.000  C
  H62      1.0000 0.82077  0.56531  0.50502  Biso   1.000  H
  H63      1.0000 0.72976  0.56108  0.43832  Biso   1.000  H
  H64      1.0000 0.78922  0.62888  0.43090  Biso   1.000  H
  H65      1.0000 0.70841  0.62727  0.16417  Biso   1.000  H
  H66      1.0000 0.75026  0.66032  0.26946  Biso   1.000  H
  N38      1.0000 0.82708  0.66654  0.15542  Biso   1.000  N
  C63      1.0000 0.02347  0.49997  0.63336  Biso   1.000  C
  C64      1.0000 0.16812  0.45727  0.64937  Biso   1.000  C
  N39      1.0000 0.21347  0.44075  0.75161  Biso   1.000  N
  H67      1.0000 0.29163  0.37273  0.83581  Biso   1.000  H
  H68      1.0000 0.24972  0.33968  0.73053  Biso   1.000  H
  H69      1.0000 0.92947  0.66198  0.40130  Biso   1.000  H
  N40      1.0000 0.96873  0.66091  0.25938  Biso   1.000  N
  H70      1.0000 0.02228  0.62808  0.39786  Biso   1.000  H
  C65      1.0000 0.90007  0.70495  0.20767  Biso   1.000  C
  C66      1.0000 0.82018  0.67464  0.04928  Biso   1.000  C
  O19      1.0000 0.94357  0.49997  0.62079  Biso   1.000  O
  N41      1.0000 0.07465  0.55888  0.64133  Biso   1.000  N
  C67      1.0000 0.16812  0.54273  0.64937  Biso   1.000  C
  C68      1.0000 0.21100  0.42219  0.56057  Biso   1.000  C
  C69      1.0000 0.24278  0.49997  0.80582  Biso   1.000  C
  C70      1.0000 0.04630  0.66955  0.21791  Biso   1.000  C
  C71      1.0000 0.94387  0.73934  0.11598  Biso   1.000  C
  H71      1.0000 0.88077  0.74159  0.25493  Biso   1.000  H
  N42      1.0000 0.89103  0.71273  0.02483  Biso   1.000  N
  O20      1.0000 0.76049  0.65356  0.98867  Biso   1.000  O
  C72      1.0000 0.03611  0.63049  0.63828  Biso   1.000  C
  C73      1.0000 0.21100  0.57781  0.56057  Biso   1.000  C
  N43      1.0000 0.21347  0.55925  0.75161  Biso   1.000  N
  H72      1.0000 0.17922  0.43469  0.49504  Biso   1.000  H
  H73      1.0000 0.27022  0.43892  0.56174  Biso   1.000  H
  H74      1.0000 0.21082  0.37112  0.56908  Biso   1.000  H
  O21      1.0000 0.28657  0.49997  0.89002  Biso   1.000  O
  N44      1.0000 0.03206  0.71150  0.13129  Biso   1.000  N
  O22      1.0000 0.11634  0.64465  0.25251  Biso   1.000  O
  H75      1.0000 0.94298  0.79191  0.11926  Biso   1.000  H
  C74      1.0000 0.89702  0.74170  0.92118  Biso   1.000  C
  H76      1.0000 0.97770  0.62808  0.60212  Biso   1.000  H
  H77      1.0000 0.07051  0.66198  0.59868  Biso   1.000  H
  N45      1.0000 0.03124  0.66091  0.74060  Biso   1.000  N
  H78      1.0000 0.17922  0.56531  0.49504  Biso   1.000  H
  H79      1.0000 0.27022  0.56108  0.56174  Biso   1.000  H
  H80      1.0000 0.21082  0.62888  0.56908  Biso   1.000  H
  C75      1.0000 0.23787  0.63081  0.78957  Biso   1.000  C
  C76      1.0000 0.10296  0.74170  0.07880  Biso   1.000  C
  N46      1.0000 0.96792  0.71150  0.86869  Biso   1.000  N
  H81      1.0000 0.90489  0.79320  0.92657  Biso   1.000  H
  H82      1.0000 0.84227  0.73290  0.87861  Biso   1.000  H
  C77      1.0000 0.95368  0.66955  0.78207  Biso   1.000  C
  C78      1.0000 0.09991  0.70495  0.79231  Biso   1.000  C
  H83      1.0000 0.29163  0.62727  0.83581  Biso   1.000  H
  H84      1.0000 0.24972  0.66032  0.73053  Biso   1.000  H
  N47      1.0000 0.17291  0.66654  0.84464  Biso   1.000  N
  N48      1.0000 0.10895  0.71273  0.97523  Biso   1.000  N
  H85      1.0000 0.09509  0.79320  0.07341  Biso   1.000  H
  H86      1.0000 0.15771  0.73290  0.12137  Biso   1.000  H
  C79      1.0000 0.05611  0.73934  0.88400  Biso   1.000  C
  O23      1.0000 0.88364  0.64465  0.74747  Biso   1.000  O
  H87      1.0000 0.11922  0.74159  0.74513  Biso   1.000  H
  C80      1.0000 0.17980  0.67464  0.95071  Biso   1.000  C
  H88      1.0000 0.05700  0.79191  0.88072  Biso   1.000  H
  O24      1.0000 0.23948  0.65356  0.01132  Biso   1.000  O
