data_image0
_cell_length_a       12.285
_cell_length_b       12.69
_cell_length_c       15.131
_cell_angle_alpha    74.7
_cell_angle_beta     71.41
_cell_angle_gamma    86.51

_symmetry_space_group_name_H-M    "P 1"
_symmetry_int_tables_number       1

loop_
  _symmetry_equiv_pos_as_xyz
  'x, y, z'

loop_
  _atom_site_label
  _atom_site_occupancy
  _atom_site_fract_x
  _atom_site_fract_y
  _atom_site_fract_z
  _atom_site_thermal_displace_type
  _atom_site_B_iso_or_equiv
  _atom_site_type_symbol
  N1       1.0000 0.24054  0.34274  0.76625  Biso   1.000  N
  C1       1.0000 0.23947  0.42260  0.67762  Biso   1.000  C
  C2       1.0000 0.30395  0.37794  0.81245  Biso   1.000  C
  C3       1.0000 0.20403  0.22846  0.79151  Biso   1.000  C
  C4       1.0000 0.30498  0.37836  0.58920  Biso   1.000  C
  C5       1.0000 0.30350  0.52471  0.68021  Biso   1.000  C
  N2       1.0000 0.12651  0.46341  0.67870  Biso   1.000  N
  N3       1.0000 0.33881  0.48364  0.76582  Biso   1.000  N
  O1       1.0000 0.32970  0.32328  0.88188  Biso   1.000  O
  H1       1.0000 0.22377  0.20416  0.73291  Biso   1.000  H
  H2       1.0000 0.24675  0.18515  0.83186  Biso   1.000  H
  N4       1.0000 0.08303  0.20755  0.84139  Biso   1.000  N
  H3       1.0000 0.37900  0.35384  0.59367  Biso   1.000  H
  H4       1.0000 0.31461  0.43529  0.53088  Biso   1.000  H
  H5       1.0000 0.26194  0.31826  0.58819  Biso   1.000  H
  C6       1.0000 0.40600  0.56631  0.58956  Biso   1.000  C
  N5       1.0000 0.21342  0.60591  0.68953  Biso   1.000  N
  C7       1.0000 0.11467  0.56954  0.68296  Biso   1.000  C
  C8       1.0000 0.03820  0.40234  0.66751  Biso   1.000  C
  C9       1.0000 0.41393  0.54133  0.79476  Biso   1.000  C
  C10      1.0000 0.99341  0.21653  0.79476  Biso   1.000  C
  C11      1.0000 0.04259  0.16376  0.93898  Biso   1.000  C
  H6       1.0000 0.37920  0.59276  0.53477  Biso   1.000  H
  H7       1.0000 0.45785  0.50777  0.57945  Biso   1.000  H
  H8       1.0000 0.44526  0.62460  0.59757  Biso   1.000  H
  C12      1.0000 0.23309  0.72069  0.67848  Biso   1.000  C
  O2       1.0000 0.03090  0.62610  0.67827  Biso   1.000  O
  H9       1.0000 0.07458  0.35986  0.62168  Biso   1.000  H
  H10      1.0000 0.98860  0.45377  0.63987  Biso   1.000  H
  N6       1.0000 0.96748  0.32901  0.75571  Biso   1.000  N
  H11      1.0000 0.44734  0.48844  0.83735  Biso   1.000  H
  H12      1.0000 0.47635  0.57573  0.73789  Biso   1.000  H
  N7       1.0000 0.36043  0.62307  0.84269  Biso   1.000  N
  C13      1.0000 0.02139  0.15069  0.72056  Biso   1.000  C
  C14      1.0000 0.88139  0.17529  0.88390  Biso   1.000  C
  O3       1.0000 0.10143  0.13941  0.99224  Biso   1.000  O
  N8       1.0000 0.92650  0.14643  0.96583  Biso   1.000  N
  H13      1.0000 0.30407  0.74482  0.62651  Biso   1.000  H
  H14      1.0000 0.17144  0.76166  0.65936  Biso   1.000  H
  N9       1.0000 0.24030  0.74731  0.76344  Biso   1.000  N
  C15      1.0000 0.86421  0.35967  0.80797  Biso   1.000  C
  C16      1.0000 0.34323  0.73481  0.79375  Biso   1.000  C
  C17      1.0000 0.34409  0.60967  0.93869  Biso   1.000  C
  H15      1.0000 0.03740  0.07696  0.74965  Biso   1.000  H
  H16      1.0000 0.08739  0.18277  0.66758  Biso   1.000  H
  H17      1.0000 0.95709  0.15038  0.69761  Biso   1.000  H
  N10      1.0000 0.81285  0.27297  0.88196  Biso   1.000  N
  C18      1.0000 0.81651  0.08063  0.87690  Biso   1.000  C
  C19      1.0000 0.86300  0.09139  0.06464  Biso   1.000  C
  C20      1.0000 0.16211  0.81387  0.80848  Biso   1.000  C
  O4       1.0000 0.82359  0.45060  0.79050  Biso   1.000  O
  C21      1.0000 0.31186  0.79491  0.87625  Biso   1.000  C
  C22      1.0000 0.45235  0.78680  0.70779  Biso   1.000  C
  N11      1.0000 0.30861  0.70614  0.96135  Biso   1.000  N
  O5       1.0000 0.36047  0.52596  0.99434  Biso   1.000  O
  C23      1.0000 0.69743  0.27837  0.94554  Biso   1.000  C
  H18      1.0000 0.86331  0.01724  0.87878  Biso   1.000  H
  H19      1.0000 0.79868  0.10034  0.81735  Biso   1.000  H
  H20      1.0000 0.74660  0.06489  0.93017  Biso   1.000  H
  H21      1.0000 0.80895  0.03943  0.06385  Biso   1.000  H
  H22      1.0000 0.91640  0.05046  0.09524  Biso   1.000  H
  N12      1.0000 0.80079  0.16249  0.12274  Biso   1.000  N
  N13      1.0000 0.19924  0.83758  0.87719  Biso   1.000  N
  O6       1.0000 0.07601  0.84871  0.78791  Biso   1.000  O
  C24      1.0000 0.39790  0.88543  0.85720  Biso   1.000  C
  H23      1.0000 0.43694  0.86053  0.67841  Biso   1.000  H
  H24      1.0000 0.51590  0.78684  0.73168  Biso   1.000  H
  H25      1.0000 0.47064  0.74479  0.66087  Biso   1.000  H
  C25      1.0000 0.30260  0.72171  0.05439  Biso   1.000  C
  H26      1.0000 0.65590  0.21115  0.95616  Biso   1.000  H
  H27      1.0000 0.65881  0.33797  0.91371  Biso   1.000  H
  N14      1.0000 0.69142  0.29393  0.03858  Biso   1.000  N
  C26      1.0000 0.68826  0.20509  0.12368  Biso   1.000  C
  C27      1.0000 0.83793  0.18621  0.19146  Biso   1.000  C
  C28      1.0000 0.13704  0.90861  0.93530  Biso   1.000  C
  H28      1.0000 0.47131  0.85455  0.85698  Biso   1.000  H
  H29      1.0000 0.40503  0.93552  0.79556  Biso   1.000  H
  H30      1.0000 0.37203  0.92366  0.90678  Biso   1.000  H
  H31      1.0000 0.34414  0.78892  0.04378  Biso   1.000  H
  H32      1.0000 0.34120  0.66209  0.08629  Biso   1.000  H
  N15      1.0000 0.18726  0.72711  0.11798  Biso   1.000  N
  C29      1.0000 0.65595  0.39041  0.06125  Biso   1.000  C
  C30      1.0000 0.65681  0.26519  0.20618  Biso   1.000  C
  C31      1.0000 0.60214  0.11464  0.14274  Biso   1.000  C
  N16      1.0000 0.75973  0.25277  0.23650  Biso   1.000  N
  O7       1.0000 0.92403  0.15129  0.21203  Biso   1.000  O
  H33      1.0000 0.19117  0.96064  0.93609  Biso   1.000  H
  H34      1.0000 0.08364  0.94962  0.90469  Biso   1.000  H
  N17      1.0000 0.07354  0.85357  0.03411  Biso   1.000  N
  C32      1.0000 0.11864  0.82478  0.11603  Biso   1.000  C
  C33      1.0000 0.13583  0.64041  0.19196  Biso   1.000  C
  N18      1.0000 0.63961  0.37701  0.15725  Biso   1.000  N
  O8       1.0000 0.63965  0.47411  0.00560  Biso   1.000  O
  C34      1.0000 0.54777  0.21327  0.29215  Biso   1.000  C
  H35      1.0000 0.52872  0.14553  0.14295  Biso   1.000  H
  H36      1.0000 0.59500  0.06456  0.20438  Biso   1.000  H
  H37      1.0000 0.62800  0.07641  0.09315  Biso   1.000  H
  C35      1.0000 0.76695  0.27931  0.32145  Biso   1.000  C
  C36      1.0000 0.95745  0.83632  0.06096  Biso   1.000  C
  C37      1.0000 0.00663  0.78347  0.20517  Biso   1.000  C
  C38      1.0000 0.18353  0.91937  0.12303  Biso   1.000  C
  N19      1.0000 0.03253  0.67097  0.24429  Biso   1.000  N
  O9       1.0000 0.17645  0.54948  0.20943  Biso   1.000  O
  C39      1.0000 0.58610  0.45875  0.20517  Biso   1.000  C
  H38      1.0000 0.56317  0.13955  0.32153  Biso   1.000  H
  H39      1.0000 0.48414  0.21324  0.26826  Biso   1.000  H
  H40      1.0000 0.52948  0.25521  0.33906  Biso   1.000  H
  H41      1.0000 0.69593  0.25524  0.37349  Biso   1.000  H
  H42      1.0000 0.82860  0.23842  0.34058  Biso   1.000  H
  N20      1.0000 0.78662  0.39409  0.31041  Biso   1.000  N
  N21      1.0000 0.91700  0.79253  0.15855  Biso   1.000  N
  O10      1.0000 0.89861  0.86067  0.00769  Biso   1.000  O
  C40      1.0000 0.97864  0.84939  0.27937  Biso   1.000  C
  H43      1.0000 0.13673  0.98276  0.12116  Biso   1.000  H
  H44      1.0000 0.20135  0.89966  0.18258  Biso   1.000  H
  H45      1.0000 0.25343  0.93519  0.06976  Biso   1.000  H
  C41      1.0000 0.96183  0.59773  0.33242  Biso   1.000  C
  H46      1.0000 0.55269  0.51163  0.16259  Biso   1.000  H
  H47      1.0000 0.52377  0.42435  0.26205  Biso   1.000  H
  N22      1.0000 0.66122  0.51644  0.23412  Biso   1.000  N
  C42      1.0000 0.69650  0.47535  0.31979  Biso   1.000  C
  C43      1.0000 0.88545  0.43054  0.31698  Biso   1.000  C
  C44      1.0000 0.79606  0.77160  0.20849  Biso   1.000  C
  H48      1.0000 0.96263  0.92311  0.25028  Biso   1.000  H
  H49      1.0000 0.91264  0.81731  0.33235  Biso   1.000  H
  H50      1.0000 0.04295  0.84970  0.30233  Biso   1.000  H
  H51      1.0000 0.92545  0.64022  0.37826  Biso   1.000  H
  N23      1.0000 0.87352  0.53666  0.32124  Biso   1.000  N
  H52      1.0000 0.01143  0.54630  0.36007  Biso   1.000  H
  C45      1.0000 0.69616  0.62214  0.18749  Biso   1.000  C
  C46      1.0000 0.76054  0.57738  0.32239  Biso   1.000  C
  C47      1.0000 0.59404  0.43377  0.41038  Biso   1.000  C
  O11      1.0000 0.96914  0.37390  0.32167  Biso   1.000  O
  H53      1.0000 0.77627  0.79592  0.26703  Biso   1.000  H
  H54      1.0000 0.75336  0.81493  0.16807  Biso   1.000  H
  N24      1.0000 0.75949  0.65733  0.23368  Biso   1.000  N
  O12      1.0000 0.67033  0.67680  0.11805  Biso   1.000  O
  C48      1.0000 0.69506  0.62172  0.41074  Biso   1.000  C
  H55      1.0000 0.62083  0.40732  0.46516  Biso   1.000  H
  H56      1.0000 0.54227  0.49231  0.42048  Biso   1.000  H
  H57      1.0000 0.55486  0.37540  0.40237  Biso   1.000  H
  H58      1.0000 0.62104  0.64624  0.40626  Biso   1.000  H
  H59      1.0000 0.68543  0.56471  0.46906  Biso   1.000  H
  H60      1.0000 0.73818  0.68182  0.41175  Biso   1.000  H
