data_image0
_cell_length_a       11.528
_cell_length_b       15.398
_cell_length_c       20.265
_cell_angle_alpha    90
_cell_angle_beta     91.74
_cell_angle_gamma    90

_symmetry_space_group_name_H-M    "P 1"
_symmetry_int_tables_number       1

loop_
  _symmetry_equiv_pos_as_xyz
  'x, y, z'

loop_
  _atom_site_label
  _atom_site_occupancy
  _atom_site_fract_x
  _atom_site_fract_y
  _atom_site_fract_z
  _atom_site_thermal_displace_type
  _atom_site_B_iso_or_equiv
  _atom_site_type_symbol
  O1       1.0000 0.58997  0.41798  0.43909  Biso   1.000  O
  C1       1.0000 0.54851  0.34537  0.44570  Biso   1.000  C
  C2       1.0000 0.41999  0.33251  0.44797  Biso   1.000  C
  C3       1.0000 0.62386  0.26854  0.45153  Biso   1.000  C
  C4       1.0000 0.34496  0.41174  0.43672  Biso   1.000  C
  C5       1.0000 0.37906  0.25244  0.45632  Biso   1.000  C
  C6       1.0000 0.58292  0.18834  0.45982  Biso   1.000  C
  H1       1.0000 0.70537  0.27640  0.44941  Biso   1.000  H
  C7       1.0000 0.32085  0.42194  0.36360  Biso   1.000  C
  H2       1.0000 0.27108  0.40499  0.45987  Biso   1.000  H
  H3       1.0000 0.38520  0.46402  0.45439  Biso   1.000  H
  H4       1.0000 0.29743  0.24451  0.45800  Biso   1.000  H
  C8       1.0000 0.45489  0.17548  0.46313  Biso   1.000  C
  C9       1.0000 0.65887  0.10891  0.46555  Biso   1.000  C
  C10      1.0000 0.21866  0.37440  0.33428  Biso   1.000  C
  C11      1.0000 0.38836  0.46785  0.32347  Biso   1.000  C
  O2       1.0000 0.41366  0.10339  0.47073  Biso   1.000  O
  C12      1.0000 0.68202  0.06936  0.39875  Biso   1.000  C
  H5       1.0000 0.62063  0.06507  0.49339  Biso   1.000  H
  H6       1.0000 0.73361  0.12482  0.48757  Biso   1.000  H
  C13      1.0000 0.19258  0.38356  0.26328  Biso   1.000  C
  O3       1.0000 0.15951  0.32770  0.36864  Biso   1.000  O
  C14      1.0000 0.36330  0.47500  0.25208  Biso   1.000  C
  H7       1.0000 0.45466  0.49669  0.34188  Biso   1.000  H
  C15      1.0000 0.77166  0.10164  0.36034  Biso   1.000  C
  C16      1.0000 0.62014  0.99740  0.37540  Biso   1.000  C
  C17      1.0000 0.26034  0.42824  0.22305  Biso   1.000  C
  H8       1.0000 0.12472  0.35660  0.24512  Biso   1.000  H
  O4       1.0000 0.42469  0.51987  0.21752  Biso   1.000  O
  O5       1.0000 0.83173  0.17041  0.38700  Biso   1.000  O
  C18      1.0000 0.79657  0.06364  0.30051  Biso   1.000  C
  H9       1.0000 0.55921  0.97448  0.40068  Biso   1.000  H
  C19      1.0000 0.64628  0.95863  0.31586  Biso   1.000  C
  C20      1.0000 0.24079  0.43233  0.14929  Biso   1.000  C
  C21      1.0000 0.93031  0.20100  0.35368  Biso   1.000  C
  H10      1.0000 0.85662  0.08709  0.27479  Biso   1.000  H
  C22      1.0000 0.73471  0.99136  0.27750  Biso   1.000  C
  O6       1.0000 0.58608  0.88505  0.29463  Biso   1.000  O
  H11      1.0000 0.26344  0.49039  0.13310  Biso   1.000  H
  H12      1.0000 0.15745  0.42363  0.13818  Biso   1.000  H
  C23      1.0000 0.31160  0.36316  0.11552  Biso   1.000  C
  H13      1.0000 0.96743  0.24782  0.37950  Biso   1.000  H
  H14      1.0000 0.90604  0.22308  0.31009  Biso   1.000  H
  H15      1.0000 0.98556  0.15333  0.34859  Biso   1.000  H
  C24      1.0000 0.76005  0.95129  0.21095  Biso   1.000  C
  C25      1.0000 0.62134  0.80939  0.32969  Biso   1.000  C
  C26      1.0000 0.41945  0.38213  0.09010  Biso   1.000  C
  C27      1.0000 0.26893  0.27854  0.10925  Biso   1.000  C
  C28      1.0000 0.69420  0.99994  0.15724  Biso   1.000  C
  H16      1.0000 0.84430  0.95408  0.20320  Biso   1.000  H
  H17      1.0000 0.73634  0.88947  0.21051  Biso   1.000  H
  H18      1.0000 0.59900  0.81452  0.37580  Biso   1.000  H
  H19      1.0000 0.70574  0.80303  0.32791  Biso   1.000  H
  H20      1.0000 0.58349  0.75841  0.30959  Biso   1.000  H
  H21      1.0000 0.45014  0.43908  0.09469  Biso   1.000  H
  C29      1.0000 0.48314  0.31894  0.05796  Biso   1.000  C
  O7       1.0000 0.16250  0.26276  0.13547  Biso   1.000  O
  C30      1.0000 0.33145  0.21607  0.07623  Biso   1.000  C
  C31      1.0000 0.75088  0.07806  0.12870  Biso   1.000  C
  C32      1.0000 0.58615  0.97961  0.13675  Biso   1.000  C
  O8       1.0000 0.59046  0.33316  0.03214  Biso   1.000  O
  C33      1.0000 0.43845  0.23562  0.04952  Biso   1.000  C
  C34      1.0000 0.12879  0.17372  0.13927  Biso   1.000  C
  H22      1.0000 0.30093  0.15898  0.07168  Biso   1.000  H
  C35      1.0000 0.68337  0.13112  0.08106  Biso   1.000  C
  O9       1.0000 0.85078  0.09748  0.14435  Biso   1.000  O
  C36      1.0000 0.51921  0.03241  0.08847  Biso   1.000  C
  H23      1.0000 0.55116  0.92902  0.15408  Biso   1.000  H
  C37      1.0000 0.63792  0.41713  0.03895  Biso   1.000  C
  C38      1.0000 0.50452  0.16619  0.01308  Biso   1.000  C
  H24      1.0000 0.05960  0.16872  0.16588  Biso   1.000  H
  H25      1.0000 0.19217  0.13989  0.15981  Biso   1.000  H
  H26      1.0000 0.11158  0.15151  0.09469  Biso   1.000  H
  C39      1.0000 0.57507  0.11144  0.06082  Biso   1.000  C
  H27      1.0000 0.71836  0.18178  0.06378  Biso   1.000  H
  O10      1.0000 0.41947  0.01312  0.07247  Biso   1.000  O
  H28      1.0000 0.64355  0.43272  0.08580  Biso   1.000  H
  H29      1.0000 0.58791  0.45889  0.01530  Biso   1.000  H
  H30      1.0000 0.71553  0.41811  0.02049  Biso   1.000  H
  H31      1.0000 0.44904  0.12891  0.98786  Biso   1.000  H
  H32      1.0000 0.55651  0.19399  0.98124  Biso   1.000  H
  O11      1.0000 0.41006  0.58202  0.56088  Biso   1.000  O
  C40      1.0000 0.45152  0.65463  0.55431  Biso   1.000  C
  C41      1.0000 0.37626  0.73146  0.54844  Biso   1.000  C
  C42      1.0000 0.58004  0.66749  0.55204  Biso   1.000  C
  C43      1.0000 0.41711  0.81166  0.54019  Biso   1.000  C
  H33      1.0000 0.29474  0.72360  0.55061  Biso   1.000  H
  C44      1.0000 0.62106  0.74763  0.54365  Biso   1.000  C
  C45      1.0000 0.65515  0.58826  0.56330  Biso   1.000  C
  C46      1.0000 0.34125  0.89115  0.53447  Biso   1.000  C
  C47      1.0000 0.54514  0.82452  0.53684  Biso   1.000  C
  H34      1.0000 0.70268  0.75549  0.54197  Biso   1.000  H
  H35      1.0000 0.72895  0.59501  0.54010  Biso   1.000  H
  H36      1.0000 0.61483  0.53598  0.54558  Biso   1.000  H
  C48      1.0000 0.67918  0.57806  0.63641  Biso   1.000  C
  C49      1.0000 0.31809  0.93064  0.60121  Biso   1.000  C
  H37      1.0000 0.37940  0.93493  0.50657  Biso   1.000  H
  H38      1.0000 0.26642  0.87524  0.51240  Biso   1.000  H
  O12      1.0000 0.58637  0.89667  0.52923  Biso   1.000  O
  C50      1.0000 0.61166  0.53215  0.67650  Biso   1.000  C
  C51      1.0000 0.78146  0.62560  0.66569  Biso   1.000  C
  C52      1.0000 0.22836  0.89836  0.63962  Biso   1.000  C
  C53      1.0000 0.37988  0.00260  0.62457  Biso   1.000  C
  H39      1.0000 0.54545  0.50331  0.65809  Biso   1.000  H
  C54      1.0000 0.63673  0.52500  0.74794  Biso   1.000  C
  O13      1.0000 0.84052  0.67236  0.63133  Biso   1.000  O
  C55      1.0000 0.80745  0.61644  0.73673  Biso   1.000  C
  O14      1.0000 0.16839  0.82959  0.61296  Biso   1.000  O
  C56      1.0000 0.20345  0.93642  0.69951  Biso   1.000  C
  H40      1.0000 0.44082  0.02552  0.59929  Biso   1.000  H
  C57      1.0000 0.35374  0.04137  0.68411  Biso   1.000  C
  O15      1.0000 0.57534  0.48013  0.78245  Biso   1.000  O
  C58      1.0000 0.73977  0.57176  0.77697  Biso   1.000  C
  H41      1.0000 0.87539  0.64340  0.75490  Biso   1.000  H
  C59      1.0000 0.06972  0.79900  0.64629  Biso   1.000  C
  H42      1.0000 0.14341  0.91291  0.72518  Biso   1.000  H
  C60      1.0000 0.26532  0.00864  0.72246  Biso   1.000  C
  O16      1.0000 0.41395  0.11495  0.70538  Biso   1.000  O
  C61      1.0000 0.75924  0.56767  0.85073  Biso   1.000  C
  H43      1.0000 0.03260  0.75224  0.62047  Biso   1.000  H
  H44      1.0000 0.09399  0.77692  0.68988  Biso   1.000  H
  H45      1.0000 0.01456  0.84673  0.65137  Biso   1.000  H
  C62      1.0000 0.24007  0.04877  0.78901  Biso   1.000  C
  C63      1.0000 0.37877  0.19061  0.67028  Biso   1.000  C
  H46      1.0000 0.73668  0.50961  0.86687  Biso   1.000  H
  H47      1.0000 0.84267  0.57644  0.86178  Biso   1.000  H
  C64      1.0000 0.68843  0.63684  0.88444  Biso   1.000  C
  C65      1.0000 0.30583  0.00006  0.84278  Biso   1.000  C
  H48      1.0000 0.15573  0.04592  0.79677  Biso   1.000  H
  H49      1.0000 0.26369  0.11053  0.78951  Biso   1.000  H
  H50      1.0000 0.40103  0.18554  0.62417  Biso   1.000  H
  H51      1.0000 0.29429  0.19704  0.67211  Biso   1.000  H
  H52      1.0000 0.41653  0.24165  0.69038  Biso   1.000  H
  C66      1.0000 0.58066  0.61787  0.90987  Biso   1.000  C
  C67      1.0000 0.73118  0.72146  0.89071  Biso   1.000  C
  C68      1.0000 0.24923  0.92194  0.87126  Biso   1.000  C
  C69      1.0000 0.41388  0.02039  0.86327  Biso   1.000  C
  H53      1.0000 0.54997  0.56092  0.90528  Biso   1.000  H
  C70      1.0000 0.51688  0.68113  0.94201  Biso   1.000  C
  O17      1.0000 0.83752  0.73730  0.86455  Biso   1.000  O
  C71      1.0000 0.66867  0.78393  0.92374  Biso   1.000  C
  O18      1.0000 0.14933  0.90258  0.85561  Biso   1.000  O
  C72      1.0000 0.31666  0.86894  0.91890  Biso   1.000  C
  C73      1.0000 0.48091  0.96759  0.91155  Biso   1.000  C
  H54      1.0000 0.44895  0.07105  0.84589  Biso   1.000  H
  O19      1.0000 0.40966  0.66684  0.96783  Biso   1.000  O
  C74      1.0000 0.56158  0.76438  0.95045  Biso   1.000  C
  C75      1.0000 0.87124  0.82628  0.86070  Biso   1.000  C
  H55      1.0000 0.69918  0.84102  0.92828  Biso   1.000  H
  C76      1.0000 0.42496  0.88862  0.93915  Biso   1.000  C
  H56      1.0000 0.28175  0.81822  0.93618  Biso   1.000  H
  O20      1.0000 0.58065  0.98688  0.92754  Biso   1.000  O
  C77      1.0000 0.36210  0.58287  0.96102  Biso   1.000  C
  C78      1.0000 0.49560  0.83381  0.98688  Biso   1.000  C
  H57      1.0000 0.94043  0.83134  0.83409  Biso   1.000  H
  H58      1.0000 0.80786  0.86011  0.84016  Biso   1.000  H
  H59      1.0000 0.88845  0.84849  0.90528  Biso   1.000  H
  H60      1.0000 0.35657  0.56728  0.91416  Biso   1.000  H
  H61      1.0000 0.41212  0.54111  0.98466  Biso   1.000  H
  H62      1.0000 0.28450  0.58189  0.97948  Biso   1.000  H
  H63      1.0000 0.55107  0.87109  0.01211  Biso   1.000  H
  H64      1.0000 0.44352  0.80601  0.01873  Biso   1.000  H
  O21      1.0000 0.64927  0.59748  0.35560  Biso   1.000  O
  C79      1.0000 0.74917  0.57806  0.37130  Biso   1.000  C
  C80      1.0000 0.80586  0.49994  0.34277  Biso   1.000  C
  C81      1.0000 0.81669  0.63112  0.41890  Biso   1.000  C
  C82      1.0000 0.74001  0.45129  0.28906  Biso   1.000  C
  C83      1.0000 0.91391  0.47961  0.36326  Biso   1.000  C
  C84      1.0000 0.92498  0.61144  0.43914  Biso   1.000  C
  H65      1.0000 0.78170  0.68184  0.43617  Biso   1.000  H
  H66      1.0000 0.65576  0.45408  0.29681  Biso   1.000  H
  H67      1.0000 0.76372  0.38953  0.28950  Biso   1.000  H
  C85      1.0000 0.76535  0.49136  0.22251  Biso   1.000  C
  H68      1.0000 0.94898  0.42902  0.34588  Biso   1.000  H
  C86      1.0000 0.98094  0.53241  0.41154  Biso   1.000  C
  C87      1.0000 0.99554  0.66626  0.48688  Biso   1.000  C
  C88      1.0000 0.70348  0.56364  0.19950  Biso   1.000  C
  C89      1.0000 0.85377  0.45863  0.18415  Biso   1.000  C
  O22      1.0000 0.08059  0.51312  0.42753  Biso   1.000  O
  H69      1.0000 0.94354  0.69399  0.51867  Biso   1.000  H
  C90      1.0000 0.06160  0.73568  0.45044  Biso   1.000  C
  H70      1.0000 0.05102  0.62891  0.51210  Biso   1.000  H
  H71      1.0000 0.64344  0.58709  0.22517  Biso   1.000  H
  C91      1.0000 0.72839  0.60164  0.13962  Biso   1.000  C
  O23      1.0000 0.91398  0.38505  0.20537  Biso   1.000  O
  C92      1.0000 0.87991  0.49740  0.12456  Biso   1.000  C
  C93      1.0000 0.01692  0.81894  0.44205  Biso   1.000  C
  C94      1.0000 0.16861  0.71607  0.42373  Biso   1.000  C
  O24      1.0000 0.66833  0.67041  0.11296  Biso   1.000  O
  C95      1.0000 0.81803  0.56936  0.10126  Biso   1.000  C
  C96      1.0000 0.87871  0.30939  0.17032  Biso   1.000  C
  H72      1.0000 0.94085  0.47448  0.09928  Biso   1.000  H
  O25      1.0000 0.90960  0.83316  0.46787  Biso   1.000  O
  C97      1.0000 0.08061  0.88213  0.40991  Biso   1.000  C
  H73      1.0000 0.19913  0.65898  0.42828  Biso   1.000  H
  C98      1.0000 0.23113  0.77854  0.39076  Biso   1.000  C
  C99      1.0000 0.56974  0.70100  0.14628  Biso   1.000  C
  C100     1.0000 0.84119  0.60891  0.03446  Biso   1.000  C
  H74      1.0000 0.90106  0.31452  0.12421  Biso   1.000  H
  H75      1.0000 0.79432  0.30303  0.17210  Biso   1.000  H
  H76      1.0000 0.91657  0.25841  0.19042  Biso   1.000  H
  C101     1.0000 0.86214  0.91713  0.46106  Biso   1.000  C
  C102     1.0000 0.18846  0.86316  0.38449  Biso   1.000  C
  H77      1.0000 0.04991  0.93915  0.40527  Biso   1.000  H
  O26      1.0000 0.33755  0.76276  0.36454  Biso   1.000  O
  H78      1.0000 0.53263  0.74782  0.12051  Biso   1.000  H
  H79      1.0000 0.59402  0.72315  0.18987  Biso   1.000  H
  H80      1.0000 0.51450  0.65333  0.15141  Biso   1.000  H
  H81      1.0000 0.87943  0.56514  0.00662  Biso   1.000  H
  H82      1.0000 0.76645  0.62482  0.01239  Biso   1.000  H
  C103     1.0000 0.91713  0.68834  0.04019  Biso   1.000  C
  H83      1.0000 0.85651  0.93272  0.41421  Biso   1.000  H
  H84      1.0000 0.91215  0.95889  0.48470  Biso   1.000  H
  H85      1.0000 0.78453  0.91811  0.47947  Biso   1.000  H
  C104     1.0000 0.25926  0.93233  0.35072  Biso   1.000  C
  C105     1.0000 0.37126  0.67379  0.36069  Biso   1.000  C
  C106     1.0000 0.87620  0.76861  0.04843  Biso   1.000  C
  C107     1.0000 0.04516  0.67548  0.03683  Biso   1.000  C
  H86      1.0000 0.23662  0.99039  0.36691  Biso   1.000  H
  H87      1.0000 0.34270  0.92363  0.36178  Biso   1.000  H
  C108     1.0000 0.23971  0.92830  0.27696  Biso   1.000  C
  H88      1.0000 0.44046  0.66872  0.33408  Biso   1.000  H
  H89      1.0000 0.30789  0.63989  0.34020  Biso   1.000  H
  H90      1.0000 0.38848  0.65151  0.40527  Biso   1.000  H
  H91      1.0000 0.79469  0.77640  0.05060  Biso   1.000  H
  C109     1.0000 0.95155  0.84537  0.05431  Biso   1.000  C
  O27      1.0000 0.08640  0.60339  0.02923  Biso   1.000  O
  C110     1.0000 0.12100  0.75244  0.04369  Biso   1.000  C
  C111     1.0000 0.13676  0.97500  0.24793  Biso   1.000  C
  C112     1.0000 0.30748  0.88362  0.23672  Biso   1.000  C
  O28      1.0000 0.91008  0.91798  0.06087  Biso   1.000  O
  C113     1.0000 0.08007  0.83251  0.05203  Biso   1.000  C
  H92      1.0000 0.20262  0.74451  0.04201  Biso   1.000  H
  C114     1.0000 0.11169  0.96785  0.17649  Biso   1.000  C
  O29      1.0000 0.07537  0.01987  0.28249  Biso   1.000  O
  C115     1.0000 0.28140  0.87446  0.16568  Biso   1.000  C
  H93      1.0000 0.37533  0.85660  0.25489  Biso   1.000  H
  C116     1.0000 0.15518  0.91174  0.06329  Biso   1.000  C
  C117     1.0000 0.17921  0.92194  0.13641  Biso   1.000  C
  H94      1.0000 0.04548  0.99669  0.15808  Biso   1.000  H
  O30      1.0000 0.34055  0.82770  0.13137  Biso   1.000  O
  H95      1.0000 0.22898  0.90499  0.04009  Biso   1.000  H
  H96      1.0000 0.11486  0.96402  0.04562  Biso   1.000  H
  O31      1.0000 0.35075  0.40258  0.64436  Biso   1.000  O
  C118     1.0000 0.25086  0.42194  0.62871  Biso   1.000  C
  C119     1.0000 0.18334  0.36894  0.58107  Biso   1.000  C
  C120     1.0000 0.19426  0.50006  0.65720  Biso   1.000  C
  C121     1.0000 0.07504  0.38856  0.56083  Biso   1.000  C
  H97      1.0000 0.21833  0.31822  0.56379  Biso   1.000  H
  C122     1.0000 0.08612  0.52039  0.63671  Biso   1.000  C
  C123     1.0000 0.26002  0.54871  0.71096  Biso   1.000  C
  C124     1.0000 0.00449  0.33381  0.51309  Biso   1.000  C
  C125     1.0000 0.01918  0.46759  0.58843  Biso   1.000  C
  H98      1.0000 0.05113  0.57098  0.65409  Biso   1.000  H
  H99      1.0000 0.34435  0.54592  0.70321  Biso   1.000  H
  H100     1.0000 0.23631  0.61053  0.71047  Biso   1.000  H
  C126     1.0000 0.23477  0.50864  0.77746  Biso   1.000  C
  C127     1.0000 0.93842  0.26438  0.54953  Biso   1.000  C
  H101     1.0000 0.05648  0.30601  0.48130  Biso   1.000  H
  H102     1.0000 0.94901  0.37109  0.48791  Biso   1.000  H
  O32      1.0000 0.91943  0.48688  0.57243  Biso   1.000  O
  C128     1.0000 0.29663  0.43642  0.80047  Biso   1.000  C
  C129     1.0000 0.14625  0.54137  0.81582  Biso   1.000  C
  C130     1.0000 0.98311  0.18113  0.55797  Biso   1.000  C
  C131     1.0000 0.83142  0.28393  0.57623  Biso   1.000  C
  H103     1.0000 0.35668  0.41291  0.77480  Biso   1.000  H
  C132     1.0000 0.27172  0.39836  0.86035  Biso   1.000  C
  O33      1.0000 0.08605  0.61495  0.79459  Biso   1.000  O
  C133     1.0000 0.12020  0.50260  0.87541  Biso   1.000  C
  O34      1.0000 0.09043  0.16684  0.53215  Biso   1.000  O
  C134     1.0000 0.91942  0.11787  0.59006  Biso   1.000  C
  C135     1.0000 0.76890  0.22146  0.60926  Biso   1.000  C
  H104     1.0000 0.80090  0.34102  0.57169  Biso   1.000  H
  O35      1.0000 0.33170  0.32959  0.88701  Biso   1.000  O
  C136     1.0000 0.18199  0.43064  0.89871  Biso   1.000  C
  C137     1.0000 0.12132  0.69061  0.82969  Biso   1.000  C
  H105     1.0000 0.05927  0.52552  0.90069  Biso   1.000  H
  C138     1.0000 0.13789  0.08287  0.53896  Biso   1.000  C
  C139     1.0000 0.81165  0.13684  0.61553  Biso   1.000  C
  H106     1.0000 0.95012  0.06092  0.59470  Biso   1.000  H
  O36      1.0000 0.66256  0.23724  0.63543  Biso   1.000  O
  C140     1.0000 0.43037  0.29900  0.85369  Biso   1.000  C
  C141     1.0000 0.15884  0.39115  0.96551  Biso   1.000  C
  H107     1.0000 0.09906  0.68554  0.87580  Biso   1.000  H
  H108     1.0000 0.20571  0.69704  0.82787  Biso   1.000  H
  H109     1.0000 0.08355  0.74159  0.80960  Biso   1.000  H
  H110     1.0000 0.14352  0.06728  0.58581  Biso   1.000  H
  H111     1.0000 0.08788  0.04111  0.51531  Biso   1.000  H
  H112     1.0000 0.21550  0.08189  0.52050  Biso   1.000  H
  C142     1.0000 0.74085  0.06767  0.64925  Biso   1.000  C
  C143     1.0000 0.62876  0.32628  0.63928  Biso   1.000  C
  H113     1.0000 0.46740  0.25218  0.87951  Biso   1.000  H
  H114     1.0000 0.40601  0.27692  0.81009  Biso   1.000  H
  H115     1.0000 0.48553  0.34673  0.84860  Biso   1.000  H
  C144     1.0000 0.08289  0.31166  0.95978  Biso   1.000  C
  H116     1.0000 0.12060  0.43493  0.99340  Biso   1.000  H
  H117     1.0000 0.23366  0.37518  0.98758  Biso   1.000  H
  H118     1.0000 0.76341  0.00961  0.63311  Biso   1.000  H
  H119     1.0000 0.65742  0.07637  0.63819  Biso   1.000  H
  C145     1.0000 0.76031  0.07176  0.72301  Biso   1.000  C
  H120     1.0000 0.55957  0.33128  0.66589  Biso   1.000  H
  H121     1.0000 0.69223  0.36011  0.65977  Biso   1.000  H
  H122     1.0000 0.61164  0.34849  0.59470  Biso   1.000  H
  C146     1.0000 0.12383  0.23146  0.95154  Biso   1.000  C
  C147     1.0000 0.95495  0.32452  0.96314  Biso   1.000  C
  C148     1.0000 0.86327  0.02500  0.75204  Biso   1.000  C
  C149     1.0000 0.69254  0.11644  0.76324  Biso   1.000  C
  C150     1.0000 0.04848  0.15463  0.94566  Biso   1.000  C
  H123     1.0000 0.20534  0.22360  0.94936  Biso   1.000  H
  C151     1.0000 0.87903  0.24756  0.95633  Biso   1.000  C
  O37      1.0000 0.91363  0.39667  0.97074  Biso   1.000  O
  O38      1.0000 0.92466  0.98013  0.71753  Biso   1.000  O
  C152     1.0000 0.88833  0.03215  0.82347  Biso   1.000  C
  H124     1.0000 0.62469  0.14340  0.74508  Biso   1.000  H
  C153     1.0000 0.71863  0.12560  0.83429  Biso   1.000  C
  C154     1.0000 0.92005  0.16749  0.94793  Biso   1.000  C
  O39      1.0000 0.09003  0.08202  0.93910  Biso   1.000  O
  H125     1.0000 0.79741  0.25549  0.95800  Biso   1.000  H
  C155     1.0000 0.82082  0.07806  0.86356  Biso   1.000  C
  H126     1.0000 0.95464  0.00331  0.84189  Biso   1.000  H
  O40      1.0000 0.65948  0.17230  0.86865  Biso   1.000  O
  C156     1.0000 0.84493  0.08826  0.93668  Biso   1.000  C
  H127     1.0000 0.77113  0.09501  0.95988  Biso   1.000  H
  H128     1.0000 0.88526  0.03598  0.95440  Biso   1.000  H
