data_image0
_cell_length_a       16.291
_cell_length_b       18.913
_cell_length_c       19.263
_cell_angle_alpha    83.59
_cell_angle_beta     87.44
_cell_angle_gamma    66.62

_symmetry_space_group_name_H-M    "P 1"
_symmetry_int_tables_number       1

loop_
  _symmetry_equiv_pos_as_xyz
  'x, y, z'

loop_
  _atom_site_label
  _atom_site_occupancy
  _atom_site_fract_x
  _atom_site_fract_y
  _atom_site_fract_z
  _atom_site_thermal_displace_type
  _atom_site_B_iso_or_equiv
  _atom_site_type_symbol
  C1       1.0000 0.56034  0.49927  0.43871  Biso   1.000  C
  C2       1.0000 0.45981  0.53877  0.42262  Biso   1.000  C
  C3       1.0000 0.56537  0.55328  0.41149  Biso   1.000  C
  C4       1.0000 0.60124  0.48426  0.38218  Biso   1.000  C
  C5       1.0000 0.59999  0.52945  0.48332  Biso   1.000  C
  C6       1.0000 0.61313  0.43096  0.40919  Biso   1.000  C
  N1       1.0000 0.42649  0.59518  0.36970  Biso   1.000  N
  C7       1.0000 0.47442  0.61746  0.39060  Biso   1.000  C
  H1       1.0000 0.42938  0.55337  0.39953  Biso   1.000  H
  H2       1.0000 0.42986  0.56059  0.46582  Biso   1.000  H
  H3       1.0000 0.43973  0.49732  0.41478  Biso   1.000  H
  C8       1.0000 0.61301  0.56937  0.46049  Biso   1.000  C
  C9       1.0000 0.68619  0.42927  0.40271  Biso   1.000  C
  H4       1.0000 0.56828  0.47390  0.34807  Biso   1.000  H
  C10      1.0000 0.69701  0.51555  0.48201  Biso   1.000  C
  H5       1.0000 0.56469  0.57520  0.50406  Biso   1.000  H
  C11      1.0000 0.69203  0.49282  0.49800  Biso   1.000  C
  C12      1.0000 0.70613  0.39423  0.42272  Biso   1.000  C
  H6       1.0000 0.58625  0.40912  0.37983  Biso   1.000  H
  C13      1.0000 0.33139  0.64260  0.35742  Biso   1.000  C
  H7       1.0000 0.44954  0.57695  0.32833  Biso   1.000  H
  H8       1.0000 0.48373  0.65509  0.35439  Biso   1.000  H
  H9       1.0000 0.44716  0.64527  0.43176  Biso   1.000  H
  H10      1.0000 0.58819  0.61773  0.47951  Biso   1.000  H
  C14      1.0000 0.73002  0.44695  0.45302  Biso   1.000  C
  C15      1.0000 0.74302  0.42595  0.46801  Biso   1.000  C
  C16      1.0000 0.73283  0.35267  0.37273  Biso   1.000  C
  C17      1.0000 0.75105  0.52395  0.54199  Biso   1.000  C
  C18      1.0000 0.73007  0.52793  0.55003  Biso   1.000  C
  C19      1.0000 0.76604  0.32206  0.38861  Biso   1.000  C
  C20      1.0000 0.31635  0.70591  0.29803  Biso   1.000  C
  H11      1.0000 0.30107  0.60893  0.34651  Biso   1.000  H
  H12      1.0000 0.30424  0.66621  0.40057  Biso   1.000  H
  H13      1.0000 0.78607  0.40872  0.46906  Biso   1.000  H
  H14      1.0000 0.80503  0.40079  0.47804  Biso   1.000  H
  N2       1.0000 0.81111  0.35164  0.33360  Biso   1.000  N
  H15      1.0000 0.69126  0.34438  0.34175  Biso   1.000  H
  H16      1.0000 0.75080  0.31006  0.41113  Biso   1.000  H
  H17      1.0000 0.72976  0.29737  0.36918  Biso   1.000  H
  N3       1.0000 0.73824  0.60333  0.53028  Biso   1.000  N
  H18      1.0000 0.81471  0.48942  0.53859  Biso   1.000  H
  H19      1.0000 0.72711  0.51229  0.58780  Biso   1.000  H
  H20      1.0000 0.78991  0.48899  0.56319  Biso   1.000  H
  H21      1.0000 0.69195  0.53363  0.59214  Biso   1.000  H
  H22      1.0000 0.80921  0.28387  0.42262  Biso   1.000  H
  C21      1.0000 0.31874  0.68997  0.22782  Biso   1.000  C
  C22      1.0000 0.29768  0.78157  0.31349  Biso   1.000  C
  H23      1.0000 0.79366  0.39541  0.30320  Biso   1.000  H
  C23      1.0000 0.86232  0.28589  0.29322  Biso   1.000  C
  H24      1.0000 0.84974  0.35541  0.36427  Biso   1.000  H
  H25      1.0000 0.75938  0.61288  0.48724  Biso   1.000  H
  C24      1.0000 0.78572  0.62303  0.58451  Biso   1.000  C
  H26      1.0000 0.67876  0.63384  0.53149  Biso   1.000  H
  C25      1.0000 0.34116  0.60799  0.21173  Biso   1.000  C
  C26      1.0000 0.29985  0.75070  0.17438  Biso   1.000  C
  C27      1.0000 0.27821  0.84212  0.25958  Biso   1.000  C
  C28      1.0000 0.30236  0.79889  0.38871  Biso   1.000  C
  C29      1.0000 0.89973  0.31658  0.22839  Biso   1.000  C
  H27      1.0000 0.91167  0.24662  0.32200  Biso   1.000  H
  H28      1.0000 0.82275  0.26129  0.27953  Biso   1.000  H
  C30      1.0000 0.81343  0.68837  0.55802  Biso   1.000  C
  H29      1.0000 0.74604  0.63796  0.62557  Biso   1.000  H
  H30      1.0000 0.83952  0.57669  0.59997  Biso   1.000  H
  H31      1.0000 0.32876  0.57851  0.25368  Biso   1.000  H
  H32      1.0000 0.30139  0.60911  0.17391  Biso   1.000  H
  C31      1.0000 0.43926  0.56497  0.18932  Biso   1.000  C
  C32      1.0000 0.27903  0.82692  0.18958  Biso   1.000  C
  C33      1.0000 0.30455  0.73588  0.09842  Biso   1.000  C
  C34      1.0000 0.26335  0.92188  0.27650  Biso   1.000  C
  H33      1.0000 0.34585  0.75221  0.41530  Biso   1.000  H
  H34      1.0000 0.32429  0.84087  0.38830  Biso   1.000  H
  C35      1.0000 0.21005  0.82359  0.42638  Biso   1.000  C
  C36      1.0000 0.84958  0.33940  0.16539  Biso   1.000  C
  C37      1.0000 0.97911  0.32836  0.23121  Biso   1.000  C
  C38      1.0000 0.90019  0.67124  0.53133  Biso   1.000  C
  C39      1.0000 0.75148  0.76527  0.55802  Biso   1.000  C
  H35      1.0000 0.44890  0.51247  0.17981  Biso   1.000  H
  H36      1.0000 0.47929  0.56237  0.22693  Biso   1.000  H
  H37      1.0000 0.45188  0.59304  0.14705  Biso   1.000  H
  C40      1.0000 0.25495  0.89321  0.13232  Biso   1.000  C
  N4       1.0000 0.39324  0.72829  0.06943  Biso   1.000  N
  H38      1.0000 0.25674  0.77931  0.07162  Biso   1.000  H
  H39      1.0000 0.29543  0.68779  0.09434  Biso   1.000  H
  N5       1.0000 0.35107  0.92647  0.28283  Biso   1.000  N
  H40      1.0000 0.22984  0.93263  0.32086  Biso   1.000  H
  H41      1.0000 0.22784  0.96088  0.23900  Biso   1.000  H
  H42      1.0000 0.21657  0.83395  0.47418  Biso   1.000  H
  H43      1.0000 0.18864  0.78182  0.42795  Biso   1.000  H
  H44      1.0000 0.16708  0.87049  0.40089  Biso   1.000  H
  C41      1.0000 0.88152  0.37187  0.10720  Biso   1.000  C
  C42      1.0000 0.76367  0.32758  0.16090  Biso   1.000  C
  C43      1.0000 0.00880  0.36197  0.17312  Biso   1.000  C
  C44      1.0000 0.03524  0.30027  0.29792  Biso   1.000  C
  C45      1.0000 0.92320  0.73237  0.50631  Biso   1.000  C
  C46      1.0000 0.96363  0.58772  0.52819  Biso   1.000  C
  C47      1.0000 0.77570  0.82553  0.53159  Biso   1.000  C
  C48      1.0000 0.65903  0.78063  0.58911  Biso   1.000  C
  H45      1.0000 0.27572  0.93242  0.14570  Biso   1.000  H
  H46      1.0000 0.28646  0.87378  0.08886  Biso   1.000  H
  C49      1.0000 0.15334  0.93224  0.11780  Biso   1.000  C
  H47      1.0000 0.43661  0.69049  0.09638  Biso   1.000  H
  H48      1.0000 0.39984  0.77351  0.07193  Biso   1.000  H
  C50      1.0000 0.40621  0.70979  0.99796  Biso   1.000  C
  H49      1.0000 0.38590  0.90463  0.24636  Biso   1.000  H
  H50      1.0000 0.37770  0.89729  0.32268  Biso   1.000  H
  C51      1.0000 0.35003  0.00294  0.28403  Biso   1.000  C
  C52      1.0000 0.34106  0.00095  0.29803  Biso   1.000  C
  C53      1.0000 0.82939  0.39520  0.03871  Biso   1.000  C
  C54      1.0000 0.95876  0.38541  0.11070  Biso   1.000  C
  H51      1.0000 0.73256  0.33514  0.20650  Biso   1.000  H
  H52      1.0000 0.72428  0.36692  0.12543  Biso   1.000  H
  C55      1.0000 0.78007  0.24639  0.14141  Biso   1.000  C
  C56      1.0000 0.09202  0.37907  0.17772  Biso   1.000  C
  H53      1.0000 0.99511  0.30303  0.33862  Biso   1.000  H
  H54      1.0000 0.06617  0.33498  0.30325  Biso   1.000  H
  C57      1.0000 0.10481  0.21687  0.29740  Biso   1.000  C
  C58      1.0000 0.86279  0.80864  0.50479  Biso   1.000  C
  C59      1.0000 0.01627  0.71367  0.47622  Biso   1.000  C
  H55      1.0000 0.92840  0.55700  0.52072  Biso   1.000  H
  H56      1.0000 0.00371  0.58469  0.48745  Biso   1.000  H
  C60      1.0000 0.02186  0.55094  0.59490  Biso   1.000  C
  C61      1.0000 0.70889  0.90926  0.52929  Biso   1.000  C
  H57      1.0000 0.61525  0.82927  0.56513  Biso   1.000  H
  H58      1.0000 0.64132  0.73801  0.58049  Biso   1.000  H
  C62      1.0000 0.65564  0.78765  0.66882  Biso   1.000  C
  H59      1.0000 0.14126  0.97473  0.08045  Biso   1.000  H
  H60      1.0000 0.12178  0.95270  0.16038  Biso   1.000  H
  H61      1.0000 0.13254  0.89401  0.10349  Biso   1.000  H
  C63      1.0000 0.50282  0.68510  0.97649  Biso   1.000  C
  H62      1.0000 0.38613  0.66764  0.99274  Biso   1.000  H
  H63      1.0000 0.36909  0.75583  0.96688  Biso   1.000  H
  C64      1.0000 0.43695  0.99698  0.30001  Biso   1.000  C
  C65      1.0000 0.43702  0.01196  0.29698  Biso   1.000  C
  H64      1.0000 0.32644  0.03307  0.23884  Biso   1.000  H
  H65      1.0000 0.30739  0.02868  0.32065  Biso   1.000  H
  H66      1.0000 0.30596  0.04042  0.26036  Biso   1.000  H
  H67      1.0000 0.31003  0.01280  0.34280  Biso   1.000  H
  N6       1.0000 0.76796  0.47774  0.03218  Biso   1.000  N
  H68      1.0000 0.79446  0.36298  0.03636  Biso   1.000  H
  H69      1.0000 0.87205  0.38536  0.99901  Biso   1.000  H
  C66      1.0000 0.98987  0.42644  0.04822  Biso   1.000  C
  H70      1.0000 0.72269  0.24130  0.13906  Biso   1.000  H
  H71      1.0000 0.81809  0.20722  0.17688  Biso   1.000  H
  H72      1.0000 0.80982  0.23900  0.09586  Biso   1.000  H
  N7       1.0000 0.06701  0.46008  0.19329  Biso   1.000  N
  H73      1.0000 0.12501  0.37097  0.13290  Biso   1.000  H
  H74      1.0000 0.13179  0.34311  0.21491  Biso   1.000  H
  H75      1.0000 0.13914  0.20132  0.34097  Biso   1.000  H
  H76      1.0000 0.14549  0.21400  0.25770  Biso   1.000  H
  H77      1.0000 0.07449  0.18205  0.29306  Biso   1.000  H
  C67      1.0000 0.88928  0.87468  0.47669  Biso   1.000  C
  N8       1.0000 0.01701  0.69514  0.40303  Biso   1.000  N
  H78      1.0000 0.06034  0.66897  0.50463  Biso   1.000  H
  H79      1.0000 0.03278  0.75862  0.47705  Biso   1.000  H
  H80      1.0000 0.98284  0.55239  0.63544  Biso   1.000  H
  H81      1.0000 0.06106  0.49705  0.58916  Biso   1.000  H
  H82      1.0000 0.05819  0.58014  0.60211  Biso   1.000  H
  N9       1.0000 0.66958  0.93896  0.45892  Biso   1.000  N
  H83      1.0000 0.73921  0.94182  0.54282  Biso   1.000  H
  H84      1.0000 0.66052  0.91292  0.56351  Biso   1.000  H
  H85      1.0000 0.59501  0.79749  0.68622  Biso   1.000  H
  H86      1.0000 0.67184  0.83050  0.67755  Biso   1.000  H
  H87      1.0000 0.69785  0.73924  0.69291  Biso   1.000  H
  C68      1.0000 0.53664  0.73788  0.94739  Biso   1.000  C
  C69      1.0000 0.55835  0.60687  0.98511  Biso   1.000  C
  C70      1.0000 0.47498  0.99737  0.36453  Biso   1.000  C
  C71      1.0000 0.48304  0.95788  0.36228  Biso   1.000  C
  C72      1.0000 0.48006  0.03594  0.24098  Biso   1.000  C
  C73      1.0000 0.47501  0.03394  0.25300  Biso   1.000  C
  C74      1.0000 0.70632  0.49697  0.97388  Biso   1.000  C
  H88      1.0000 0.73622  0.48871  0.07256  Biso   1.000  H
  H89      1.0000 0.80047  0.50753  0.02602  Biso   1.000  H
  H90      1.0000 0.93683  0.46198  0.02079  Biso   1.000  H
  C75      1.0000 0.05613  0.37028  0.99948  Biso   1.000  C
  H91      1.0000 0.01884  0.45801  0.06587  Biso   1.000  H
  H92      1.0000 0.02503  0.47091  0.22782  Biso   1.000  H
  C76      1.0000 0.14340  0.47350  0.21512  Biso   1.000  C
  H93      1.0000 0.04216  0.49276  0.15458  Biso   1.000  H
  H94      1.0000 0.93251  0.85775  0.43808  Biso   1.000  H
  H95      1.0000 0.83565  0.91870  0.45731  Biso   1.000  H
  C77      1.0000 0.93169  0.90266  0.53258  Biso   1.000  C
  H96      1.0000 0.97197  0.73414  0.37858  Biso   1.000  H
  C78      1.0000 0.10070  0.68509  0.36923  Biso   1.000  C
  H97      1.0000 0.00726  0.65101  0.40308  Biso   1.000  H
  C79      1.0000 0.61695  0.91049  0.44033  Biso   1.000  C
  C80      1.0000 0.59117  0.00122  0.44733  Biso   1.000  C
  H98      1.0000 0.66314  0.89888  0.44111  Biso   1.000  H
  H99      1.0000 0.71146  0.94971  0.43223  Biso   1.000  H
  C81      1.0000 0.62561  0.71410  0.92650  Biso   1.000  C
  H100     1.0000 0.49858  0.79132  0.94144  Biso   1.000  H
  H101     1.0000 0.53495  0.57020  0.00418  Biso   1.000  H
  C82      1.0000 0.64722  0.58270  0.96610  Biso   1.000  C
  H102     1.0000 0.44884  0.97727  0.40256  Biso   1.000  H
  C83      1.0000 0.56776  0.95411  0.37168  Biso   1.000  C
  C84      1.0000 0.54945  0.01221  0.37539  Biso   1.000  C
  H103     1.0000 0.45618  0.93450  0.39728  Biso   1.000  H
  H104     1.0000 0.45740  0.04271  0.19501  Biso   1.000  H
  C85      1.0000 0.55304  0.05197  0.25253  Biso   1.000  C
  H105     1.0000 0.44067  0.06425  0.21335  Biso   1.000  H
  C86      1.0000 0.56104  0.02894  0.26000  Biso   1.000  C
  H106     1.0000 0.74066  0.48286  0.93026  Biso   1.000  H
  H107     1.0000 0.66856  0.46676  0.98172  Biso   1.000  H
  H108     1.0000 0.07318  0.40018  0.96087  Biso   1.000  H
  H109     1.0000 0.02762  0.33957  0.98072  Biso   1.000  H
  H110     1.0000 0.10949  0.33577  0.02591  Biso   1.000  H
  C87      1.0000 0.12139  0.55678  0.22390  Biso   1.000  C
  H111     1.0000 0.16635  0.44175  0.25984  Biso   1.000  H
  H112     1.0000 0.19146  0.45625  0.17981  Biso   1.000  H
  H113     1.0000 0.94733  0.94522  0.51132  Biso   1.000  H
  H114     1.0000 0.98574  0.85980  0.55139  Biso   1.000  H
  H115     1.0000 0.88872  0.92081  0.57056  Biso   1.000  H
  C88      1.0000 0.10306  0.65911  0.29672  Biso   1.000  C
  H116     1.0000 0.10893  0.73446  0.36510  Biso   1.000  H
  H117     1.0000 0.15035  0.64574  0.39775  Biso   1.000  H
  H118     1.0000 0.65125  0.85521  0.43348  Biso   1.000  H
  H119     1.0000 0.57243  0.91304  0.47773  Biso   1.000  H
  H120     1.0000 0.54747  0.99669  0.48316  Biso   1.000  H
  H121     1.0000 0.60113  0.04841  0.45386  Biso   1.000  H
  C89      1.0000 0.67955  0.63656  0.93721  Biso   1.000  C
  C90      1.0000 0.65828  0.77307  0.89061  Biso   1.000  C
  C91      1.0000 0.60663  0.98900  0.32059  Biso   1.000  C
  C92      1.0000 0.58546  0.04117  0.31971  Biso   1.000  C
  C93      1.0000 0.59498  0.08099  0.19073  Biso   1.000  C
  C94      1.0000 0.60304  0.06898  0.20572  Biso   1.000  C
  C95      1.0000 0.11798  0.58296  0.28909  Biso   1.000  C
  C96      1.0000 0.10818  0.61038  0.16581  Biso   1.000  C
  C97      1.0000 0.09546  0.70928  0.23790  Biso   1.000  C
  H122     1.0000 0.74076  0.61977  0.92425  Biso   1.000  H
  N10      1.0000 0.69505  0.80702  0.93611  Biso   1.000  N
  H123     1.0000 0.60772  0.81476  0.86486  Biso   1.000  H
  H124     1.0000 0.70426  0.74787  0.85582  Biso   1.000  H
  H125     1.0000 0.66565  0.98535  0.32733  Biso   1.000  H
  H126     1.0000 0.63449  0.05459  0.32739  Biso   1.000  H
  N11      1.0000 0.64030  0.01989  0.14690  Biso   1.000  N
  H127     1.0000 0.63748  0.10078  0.20718  Biso   1.000  H
  H128     1.0000 0.54742  0.12448  0.16335  Biso   1.000  H
  H129     1.0000 0.65076  0.07844  0.22740  Biso   1.000  H
  H130     1.0000 0.55670  0.11955  0.18749  Biso   1.000  H
  H131     1.0000 0.12623  0.54747  0.32974  Biso   1.000  H
  C98      1.0000 0.09657  0.68581  0.17161  Biso   1.000  C
  H132     1.0000 0.10714  0.59475  0.12078  Biso   1.000  H
  H133     1.0000 0.08953  0.76067  0.24239  Biso   1.000  H
  H134     1.0000 0.65656  0.82302  0.97226  Biso   1.000  H
  C99      1.0000 0.71359  0.87350  0.90257  Biso   1.000  C
  H135     1.0000 0.74704  0.77005  0.95424  Biso   1.000  H
  H136     1.0000 0.68456  0.98030  0.17140  Biso   1.000  H
  C100     1.0000 0.67838  0.05297  0.08693  Biso   1.000  C
  H137     1.0000 0.60137  0.00141  0.13159  Biso   1.000  H
  C101     1.0000 0.08695  0.74474  0.10819  Biso   1.000  C
  C102     1.0000 0.75491  0.90389  0.95450  Biso   1.000  C
  H138     1.0000 0.75488  0.85706  0.86271  Biso   1.000  H
  H139     1.0000 0.65718  0.91513  0.88445  Biso   1.000  H
  C103     1.0000 0.73759  0.98902  0.04440  Biso   1.000  C
  H140     1.0000 0.62943  0.09149  0.05715  Biso   1.000  H
  H141     1.0000 0.71371  0.07972  0.10401  Biso   1.000  H
  N12      1.0000 0.99393  0.78934  0.09032  Biso   1.000  N
  H142     1.0000 0.11861  0.71729  0.06786  Biso   1.000  H
  H143     1.0000 0.11515  0.78016  0.11843  Biso   1.000  H
  C104     1.0000 0.69988  0.96269  0.99321  Biso   1.000  C
  C105     1.0000 0.84799  0.87019  0.96568  Biso   1.000  C
  C106     1.0000 0.82942  0.95273  0.05861  Biso   1.000  C
  C107     1.0000 0.98335  0.85351  0.03552  Biso   1.000  C
  H144     1.0000 0.97014  0.75772  0.07502  Biso   1.000  H
  H145     1.0000 0.96333  0.80895  0.12914  Biso   1.000  H
  C108     1.0000 0.59921  0.99600  0.98391  Biso   1.000  C
  C109     1.0000 0.88363  0.89461  0.01802  Biso   1.000  C
  C110     1.0000 0.90859  0.81199  0.91866  Biso   1.000  C
  C111     1.0000 0.86831  0.97860  0.11592  Biso   1.000  C
  H146     1.0000 0.01795  0.83306  0.99337  Biso   1.000  H
  H147     1.0000 0.00555  0.89023  0.05250  Biso   1.000  H
  H148     1.0000 0.58148  0.95461  0.97153  Biso   1.000  H
  C112     1.0000 0.56274  0.06577  0.92749  Biso   1.000  C
  H149     1.0000 0.57053  0.01242  0.02910  Biso   1.000  H
  H150     1.0000 0.96072  0.77408  0.94567  Biso   1.000  H
  H151     1.0000 0.87573  0.78342  0.90095  Biso   1.000  H
  C113     1.0000 0.94091  0.85270  0.85697  Biso   1.000  C
  H152     1.0000 0.82275  0.99652  0.15285  Biso   1.000  H
  H153     1.0000 0.91990  0.93364  0.13697  Biso   1.000  H
  C114     1.0000 0.89932  0.04360  0.09032  Biso   1.000  C
  H154     1.0000 0.49759  0.08371  0.92472  Biso   1.000  H
  H155     1.0000 0.58918  0.04996  0.88210  Biso   1.000  H
  H156     1.0000 0.57835  0.10775  0.93977  Biso   1.000  H
  H157     1.0000 0.97995  0.81415  0.82714  Biso   1.000  H
  H158     1.0000 0.97410  0.88031  0.87452  Biso   1.000  H
  H159     1.0000 0.88923  0.88965  0.82986  Biso   1.000  H
  H160     1.0000 0.92375  0.05762  0.12966  Biso   1.000  H
  H161     1.0000 0.84832  0.08878  0.07037  Biso   1.000  H
  H162     1.0000 0.94555  0.02583  0.05454  Biso   1.000  H
  C115     1.0000 0.43974  0.50061  0.56131  Biso   1.000  C
  C116     1.0000 0.40003  0.47042  0.51670  Biso   1.000  C
  C117     1.0000 0.43465  0.44660  0.58853  Biso   1.000  C
  C118     1.0000 0.39884  0.51563  0.61779  Biso   1.000  C
  C119     1.0000 0.38695  0.56892  0.59083  Biso   1.000  C
  C120     1.0000 0.54027  0.46111  0.57740  Biso   1.000  C
  C121     1.0000 0.30307  0.48433  0.51801  Biso   1.000  C
  C122     1.0000 0.30805  0.50705  0.50202  Biso   1.000  C
  H163     1.0000 0.43533  0.42468  0.49596  Biso   1.000  H
  C123     1.0000 0.38704  0.43056  0.53953  Biso   1.000  C
  C124     1.0000 0.52566  0.38242  0.60943  Biso   1.000  C
  C125     1.0000 0.31380  0.57066  0.59731  Biso   1.000  C
  H164     1.0000 0.43180  0.52598  0.65190  Biso   1.000  H
  C126     1.0000 0.29395  0.60565  0.57730  Biso   1.000  C
  H165     1.0000 0.41383  0.59076  0.62014  Biso   1.000  H
  N13      1.0000 0.57359  0.40470  0.63032  Biso   1.000  N
  H166     1.0000 0.57016  0.43929  0.53420  Biso   1.000  H
  H167     1.0000 0.56035  0.50256  0.58524  Biso   1.000  H
  H168     1.0000 0.57070  0.44651  0.60049  Biso   1.000  H
  C127     1.0000 0.24903  0.47594  0.45798  Biso   1.000  C
  C128     1.0000 0.27001  0.47195  0.44999  Biso   1.000  C
  C129     1.0000 0.27006  0.55293  0.54700  Biso   1.000  C
  C130     1.0000 0.25706  0.57393  0.53201  Biso   1.000  C
  H169     1.0000 0.41189  0.38215  0.52046  Biso   1.000  H
  H170     1.0000 0.51635  0.34479  0.64558  Biso   1.000  H
  H171     1.0000 0.55290  0.35467  0.56821  Biso   1.000  H
  C131     1.0000 0.26725  0.64721  0.62729  Biso   1.000  C
  C132     1.0000 0.23404  0.67781  0.61141  Biso   1.000  C
  H172     1.0000 0.55054  0.42293  0.67170  Biso   1.000  H
  C133     1.0000 0.66866  0.35734  0.64260  Biso   1.000  C
  N14      1.0000 0.26184  0.39656  0.46969  Biso   1.000  N
  H173     1.0000 0.18531  0.51046  0.46138  Biso   1.000  H
  H174     1.0000 0.27297  0.48758  0.41222  Biso   1.000  H
  H175     1.0000 0.21017  0.51089  0.43683  Biso   1.000  H
  H176     1.0000 0.30811  0.46630  0.40789  Biso   1.000  H
  H177     1.0000 0.21401  0.59115  0.53096  Biso   1.000  H
  H178     1.0000 0.19505  0.59909  0.52198  Biso   1.000  H
  N15      1.0000 0.18891  0.64824  0.66642  Biso   1.000  N
  H179     1.0000 0.30876  0.65550  0.65827  Biso   1.000  H
  H180     1.0000 0.24929  0.68982  0.58890  Biso   1.000  H
  H181     1.0000 0.27032  0.70251  0.63085  Biso   1.000  H
  H182     1.0000 0.19087  0.71601  0.57735  Biso   1.000  H
  C134     1.0000 0.68371  0.29403  0.70200  Biso   1.000  C
  H183     1.0000 0.69898  0.39101  0.65346  Biso   1.000  H
  H184     1.0000 0.69584  0.33367  0.59945  Biso   1.000  H
  C135     1.0000 0.21430  0.37684  0.41551  Biso   1.000  C
  H185     1.0000 0.24070  0.38700  0.51278  Biso   1.000  H
  H186     1.0000 0.32132  0.36604  0.46854  Biso   1.000  H
  H187     1.0000 0.20642  0.60447  0.69677  Biso   1.000  H
  C136     1.0000 0.13773  0.71405  0.70680  Biso   1.000  C
  H188     1.0000 0.15034  0.64446  0.63576  Biso   1.000  H
  C137     1.0000 0.70240  0.21831  0.68653  Biso   1.000  C
  C138     1.0000 0.68128  0.30991  0.77221  Biso   1.000  C
  C139     1.0000 0.18663  0.31157  0.44200  Biso   1.000  C
  H189     1.0000 0.25404  0.36192  0.37445  Biso   1.000  H
  H190     1.0000 0.16056  0.42319  0.40000  Biso   1.000  H
  C140     1.0000 0.10035  0.68330  0.77163  Biso   1.000  C
  H191     1.0000 0.08838  0.75332  0.67802  Biso   1.000  H
  H192     1.0000 0.17727  0.73859  0.72049  Biso   1.000  H
  C141     1.0000 0.72178  0.15782  0.74039  Biso   1.000  C
  C142     1.0000 0.69770  0.20104  0.61131  Biso   1.000  C
  C143     1.0000 0.70023  0.24918  0.82559  Biso   1.000  C
  C144     1.0000 0.65892  0.39189  0.78830  Biso   1.000  C
  C145     1.0000 0.24851  0.23467  0.44200  Biso   1.000  C
  C146     1.0000 0.09982  0.32864  0.46869  Biso   1.000  C
  C147     1.0000 0.15050  0.66048  0.83463  Biso   1.000  C
  C148     1.0000 0.02097  0.67152  0.76881  Biso   1.000  C
  C149     1.0000 0.73673  0.07799  0.72352  Biso   1.000  C
  C150     1.0000 0.72105  0.17297  0.81039  Biso   1.000  C
  H193     1.0000 0.65421  0.24773  0.58467  Biso   1.000  H
  H194     1.0000 0.67577  0.15906  0.61173  Biso   1.000  H
  C151     1.0000 0.78994  0.17635  0.57359  Biso   1.000  C
  C152     1.0000 0.69553  0.26399  0.90160  Biso   1.000  C
  H195     1.0000 0.67132  0.42137  0.74635  Biso   1.000  H
  H196     1.0000 0.69869  0.39077  0.82612  Biso   1.000  H
  C153     1.0000 0.56076  0.43491  0.81071  Biso   1.000  C
  C154     1.0000 0.34105  0.21924  0.41092  Biso   1.000  C
  C155     1.0000 0.22438  0.17436  0.46838  Biso   1.000  C
  C156     1.0000 0.07686  0.26756  0.49372  Biso   1.000  C
  C157     1.0000 0.03645  0.41215  0.47183  Biso   1.000  C
  C158     1.0000 0.11856  0.62801  0.89283  Biso   1.000  C
  C159     1.0000 0.23635  0.67229  0.83912  Biso   1.000  C
  C160     1.0000 0.99128  0.63791  0.82690  Biso   1.000  C
  C161     1.0000 0.96484  0.69960  0.70210  Biso   1.000  C
  N16      1.0000 0.64901  0.07341  0.71720  Biso   1.000  N
  H197     1.0000 0.77024  0.06725  0.67917  Biso   1.000  H
  H198     1.0000 0.77224  0.03900  0.76103  Biso   1.000  H
  C162     1.0000 0.74513  0.10667  0.86770  Biso   1.000  C
  H199     1.0000 0.78351  0.16593  0.52584  Biso   1.000  H
  H200     1.0000 0.81144  0.21805  0.57208  Biso   1.000  H
  H201     1.0000 0.83300  0.12939  0.59908  Biso   1.000  H
  N17      1.0000 0.60684  0.27159  0.93060  Biso   1.000  N
  H202     1.0000 0.74331  0.22064  0.92835  Biso   1.000  H
  H203     1.0000 0.70465  0.31209  0.90568  Biso   1.000  H
  H204     1.0000 0.55118  0.48740  0.82021  Biso   1.000  H
  H205     1.0000 0.52070  0.43758  0.77304  Biso   1.000  H
  H206     1.0000 0.54817  0.40690  0.85297  Biso   1.000  H
  C163     1.0000 0.34441  0.21228  0.33120  Biso   1.000  C
  H207     1.0000 0.38483  0.17062  0.43484  Biso   1.000  H
  H208     1.0000 0.35877  0.26187  0.41954  Biso   1.000  H
  C164     1.0000 0.13723  0.19124  0.49518  Biso   1.000  C
  C165     1.0000 0.29119  0.09063  0.47068  Biso   1.000  C
  C166     1.0000 0.98375  0.28621  0.52381  Biso   1.000  C
  H209     1.0000 0.07166  0.44293  0.47930  Biso   1.000  H
  H210     1.0000 0.99637  0.41519  0.51257  Biso   1.000  H
  C167     1.0000 0.97822  0.44893  0.40512  Biso   1.000  C
  C168     1.0000 0.04132  0.61446  0.88933  Biso   1.000  C
  C169     1.0000 0.17069  0.60468  0.96131  Biso   1.000  C
  H211     1.0000 0.26752  0.66474  0.79352  Biso   1.000  H
  H212     1.0000 0.27580  0.63296  0.87459  Biso   1.000  H
  C170     1.0000 0.21995  0.75349  0.85861  Biso   1.000  C
  C171     1.0000 0.90806  0.62081  0.82230  Biso   1.000  C
  H213     1.0000 0.00497  0.69685  0.66141  Biso   1.000  H
  H214     1.0000 0.93391  0.66490  0.69677  Biso   1.000  H
  C172     1.0000 0.89527  0.78301  0.70262  Biso   1.000  C
  C173     1.0000 0.65005  0.99694  0.71600  Biso   1.000  C
  C174     1.0000 0.65902  0.99893  0.70200  Biso   1.000  C
  H215     1.0000 0.61418  0.09526  0.75361  Biso   1.000  H
  H216     1.0000 0.62232  0.10259  0.67734  Biso   1.000  H
  H217     1.0000 0.72430  0.06746  0.85433  Biso   1.000  H
  H218     1.0000 0.71360  0.12616  0.91116  Biso   1.000  H
  C175     1.0000 0.84672  0.06769  0.88222  Biso   1.000  C
  H219     1.0000 0.56347  0.30938  0.90364  Biso   1.000  H
  H220     1.0000 0.60024  0.22637  0.92809  Biso   1.000  H
  C176     1.0000 0.59387  0.29009  0.00201  Biso   1.000  C
  H221     1.0000 0.40507  0.20239  0.31380  Biso   1.000  H
  H222     1.0000 0.32824  0.16938  0.32242  Biso   1.000  H
  H223     1.0000 0.30217  0.26064  0.30712  Biso   1.000  H
  C177     1.0000 0.11080  0.12521  0.52328  Biso   1.000  C
  N18      1.0000 0.33050  0.06092  0.54110  Biso   1.000  N
  H224     1.0000 0.26081  0.05806  0.45720  Biso   1.000  H
  H225     1.0000 0.33956  0.08697  0.43646  Biso   1.000  H
  N19      1.0000 0.98307  0.30474  0.59699  Biso   1.000  N
  H226     1.0000 0.93971  0.33097  0.49539  Biso   1.000  H
  H227     1.0000 0.96724  0.24126  0.52292  Biso   1.000  H
  H228     1.0000 0.01721  0.44754  0.36458  Biso   1.000  H
  H229     1.0000 0.93902  0.50283  0.41086  Biso   1.000  H
  H230     1.0000 0.94189  0.41974  0.39791  Biso   1.000  H
  C178     1.0000 0.01018  0.57350  0.95181  Biso   1.000  C
  N20      1.0000 0.23210  0.52220  0.96779  Biso   1.000  N
  H231     1.0000 0.20556  0.63690  0.96366  Biso   1.000  H
  H232     1.0000 0.12803  0.61451  0.00101  Biso   1.000  H
  H233     1.0000 0.27733  0.75858  0.86096  Biso   1.000  H
  H234     1.0000 0.18199  0.79266  0.82314  Biso   1.000  H
  H235     1.0000 0.19023  0.76094  0.90416  Biso   1.000  H
  N21      1.0000 0.93307  0.53980  0.80668  Biso   1.000  N
  H236     1.0000 0.87508  0.62891  0.86707  Biso   1.000  H
  H237     1.0000 0.86823  0.65677  0.78506  Biso   1.000  H
  H238     1.0000 0.86094  0.79856  0.65905  Biso   1.000  H
  H239     1.0000 0.85459  0.78588  0.74232  Biso   1.000  H
  H240     1.0000 0.92559  0.81783  0.70696  Biso   1.000  H
  C179     1.0000 0.56313  0.00290  0.70001  Biso   1.000  C
  C180     1.0000 0.56306  0.98793  0.70299  Biso   1.000  C
  H241     1.0000 0.67364  0.96681  0.76118  Biso   1.000  H
  H242     1.0000 0.69267  0.97125  0.67938  Biso   1.000  H
  H243     1.0000 0.69412  0.95946  0.73966  Biso   1.000  H
  H244     1.0000 0.69005  0.98708  0.65723  Biso   1.000  H
  H245     1.0000 0.85880  0.02520  0.91957  Biso   1.000  H
  H246     1.0000 0.87824  0.04718  0.83965  Biso   1.000  H
  H247     1.0000 0.86754  0.10588  0.89648  Biso   1.000  H
  C181     1.0000 0.49726  0.31478  0.02353  Biso   1.000  C
  H248     1.0000 0.61389  0.33224  0.00728  Biso   1.000  H
  H249     1.0000 0.63096  0.24411  0.03309  Biso   1.000  H
  H250     1.0000 0.06754  0.14220  0.56189  Biso   1.000  H
  H251     1.0000 0.16443  0.08118  0.54272  Biso   1.000  H
  C182     1.0000 0.06839  0.09722  0.46739  Biso   1.000  C
  H252     1.0000 0.33694  0.10100  0.55891  Biso   1.000  H
  C183     1.0000 0.38310  0.08945  0.55969  Biso   1.000  C
  H253     1.0000 0.28856  0.05017  0.56779  Biso   1.000  H
  C184     1.0000 0.40891  0.99866  0.55269  Biso   1.000  C
  H254     1.0000 0.02811  0.26574  0.62139  Biso   1.000  H
  C185     1.0000 0.89935  0.31484  0.63079  Biso   1.000  C
  H255     1.0000 0.99279  0.34893  0.59694  Biso   1.000  H
  H256     1.0000 0.06325  0.53790  0.97923  Biso   1.000  H
  H257     1.0000 0.98125  0.54187  0.93410  Biso   1.000  H
  C186     1.0000 0.94389  0.62960  0.00054  Biso   1.000  C
  H258     1.0000 0.26386  0.51117  0.92746  Biso   1.000  H
  H259     1.0000 0.19961  0.49235  0.97401  Biso   1.000  H
  C187     1.0000 0.29370  0.50291  0.02614  Biso   1.000  C
  C188     1.0000 0.85668  0.52638  0.78490  Biso   1.000  C
  H260     1.0000 0.97496  0.52903  0.77221  Biso   1.000  H
  H261     1.0000 0.95792  0.50712  0.84545  Biso   1.000  H
  C189     1.0000 0.52510  0.00250  0.63549  Biso   1.000  C
  C190     1.0000 0.51698  0.04200  0.63769  Biso   1.000  C
  C191     1.0000 0.52002  0.96394  0.75899  Biso   1.000  C
  C192     1.0000 0.52501  0.96594  0.74703  Biso   1.000  C
  C193     1.0000 0.46345  0.26200  0.05263  Biso   1.000  C
  C194     1.0000 0.44173  0.39301  0.01491  Biso   1.000  C
  H262     1.0000 0.05275  0.05465  0.48870  Biso   1.000  H
  H263     1.0000 0.01432  0.14013  0.44863  Biso   1.000  H
  H264     1.0000 0.11130  0.07907  0.42941  Biso   1.000  H
  C195     1.0000 0.43229  0.04583  0.62829  Biso   1.000  C
  H265     1.0000 0.34883  0.14467  0.56649  Biso   1.000  H
  H266     1.0000 0.42759  0.08684  0.52229  Biso   1.000  H
  H267     1.0000 0.45261  0.00318  0.51686  Biso   1.000  H
  C196     1.0000 0.45063  0.98767  0.62463  Biso   1.000  C
  H268     1.0000 0.39895  0.95147  0.54616  Biso   1.000  H
  C197     1.0000 0.89699  0.34083  0.70330  Biso   1.000  C
  H269     1.0000 0.89115  0.26541  0.63492  Biso   1.000  H
  H270     1.0000 0.84973  0.35415  0.60222  Biso   1.000  H
  H271     1.0000 0.89053  0.66411  0.97411  Biso   1.000  H
  H272     1.0000 0.92690  0.59970  0.03915  Biso   1.000  H
  H273     1.0000 0.97246  0.66031  0.01930  Biso   1.000  H
  C198     1.0000 0.35283  0.41723  0.03393  Biso   1.000  C
  H274     1.0000 0.25942  0.51702  0.06976  Biso   1.000  H
  H275     1.0000 0.33145  0.53312  0.01825  Biso   1.000  H
  C199     1.0000 0.87869  0.44310  0.77612  Biso   1.000  C
  H276     1.0000 0.83367  0.55813  0.74013  Biso   1.000  H
  H277     1.0000 0.80862  0.54362  0.82021  Biso   1.000  H
  H278     1.0000 0.55124  0.02261  0.59741  Biso   1.000  H
  H279     1.0000 0.54390  0.06538  0.60274  Biso   1.000  H
  C200     1.0000 0.44704  0.94791  0.74750  Biso   1.000  C
  C201     1.0000 0.43904  0.97094  0.74003  Biso   1.000  C
  H280     1.0000 0.54260  0.95723  0.80496  Biso   1.000  H
  H281     1.0000 0.55941  0.93563  0.78668  Biso   1.000  H
  C202     1.0000 0.37447  0.28578  0.07352  Biso   1.000  C
  H282     1.0000 0.50150  0.20856  0.05858  Biso   1.000  H
  H283     1.0000 0.46513  0.42968  0.99579  Biso   1.000  H
  C203     1.0000 0.39339  0.01088  0.67943  Biso   1.000  C
  C204     1.0000 0.41459  0.95876  0.68032  Biso   1.000  C
  C205     1.0000 0.88210  0.41692  0.71093  Biso   1.000  C
  C206     1.0000 0.90463  0.29060  0.76212  Biso   1.000  C
  C207     1.0000 0.32053  0.36332  0.06281  Biso   1.000  C
  C208     1.0000 0.89190  0.38950  0.83421  Biso   1.000  C
  C209     1.0000 0.40501  0.91895  0.80930  Biso   1.000  C
  C210     1.0000 0.39704  0.93090  0.79430  Biso   1.000  C
  C211     1.0000 0.34174  0.22681  0.10941  Biso   1.000  C
  H284     1.0000 0.33443  0.01452  0.67269  Biso   1.000  H
  H285     1.0000 0.36559  0.94530  0.67258  Biso   1.000  H
  H286     1.0000 0.87385  0.45242  0.67023  Biso   1.000  H
  C212     1.0000 0.90351  0.31407  0.82842  Biso   1.000  C
  H287     1.0000 0.91055  0.23922  0.75758  Biso   1.000  H
  H288     1.0000 0.25926  0.38011  0.07577  Biso   1.000  H
  H289     1.0000 0.89294  0.40513  0.87924  Biso   1.000  H
  N22      1.0000 0.35976  0.98004  0.85312  Biso   1.000  N
  H290     1.0000 0.36260  0.89910  0.79284  Biso   1.000  H
  H291     1.0000 0.45266  0.87540  0.83667  Biso   1.000  H
  H292     1.0000 0.34926  0.92144  0.77262  Biso   1.000  H
  H293     1.0000 0.44338  0.88034  0.81248  Biso   1.000  H
  N23      1.0000 0.30494  0.19292  0.06391  Biso   1.000  N
  H294     1.0000 0.39236  0.18512  0.13511  Biso   1.000  H
  H295     1.0000 0.29576  0.25200  0.14420  Biso   1.000  H
  C213     1.0000 0.91310  0.25520  0.89183  Biso   1.000  C
  H296     1.0000 0.31552  0.01957  0.82862  Biso   1.000  H
  C214     1.0000 0.32164  0.94691  0.91310  Biso   1.000  C
  H297     1.0000 0.39871  0.99847  0.86838  Biso   1.000  H
  C215     1.0000 0.28649  0.12638  0.09745  Biso   1.000  C
  H298     1.0000 0.34346  0.17686  0.02776  Biso   1.000  H
  H299     1.0000 0.25298  0.22983  0.04578  Biso   1.000  H
  N24      1.0000 0.00612  0.21060  0.90970  Biso   1.000  N
  H300     1.0000 0.88147  0.28259  0.93216  Biso   1.000  H
  H301     1.0000 0.88491  0.21979  0.88154  Biso   1.000  H
  C216     1.0000 0.26243  0.01086  0.95562  Biso   1.000  C
  H302     1.0000 0.37065  0.90839  0.94287  Biso   1.000  H
  H303     1.0000 0.28635  0.92022  0.89601  Biso   1.000  H
  C217     1.0000 0.24517  0.09598  0.04552  Biso   1.000  C
  H304     1.0000 0.24514  0.14282  0.13731  Biso   1.000  H
  H305     1.0000 0.34290  0.08475  0.11558  Biso   1.000  H
  H306     1.0000 0.02994  0.24216  0.92495  Biso   1.000  H
  C218     1.0000 0.01673  0.14637  0.96450  Biso   1.000  C
  H307     1.0000 0.03675  0.19093  0.87089  Biso   1.000  H
  C219     1.0000 0.17066  0.04715  0.94141  Biso   1.000  C
  C220     1.0000 0.30020  0.03719  0.00681  Biso   1.000  C
  C221     1.0000 0.15209  0.12968  0.03434  Biso   1.000  C
  C222     1.0000 0.11645  0.10527  0.98200  Biso   1.000  C
  H308     1.0000 0.99450  0.10970  0.94752  Biso   1.000  H
  H309     1.0000 0.98207  0.16682  0.00660  Biso   1.000  H
  C223     1.0000 0.13177  0.02128  0.88410  Biso   1.000  C
  C224     1.0000 0.40088  0.00388  0.01611  Biso   1.000  C
  C225     1.0000 0.09149  0.18789  0.08131  Biso   1.000  C
  H310     1.0000 0.17731  0.00341  0.84717  Biso   1.000  H
  H311     1.0000 0.08016  0.06630  0.86300  Biso   1.000  H
  C226     1.0000 0.10073  0.95634  0.90970  Biso   1.000  C
  H312     1.0000 0.42948  0.98746  0.97092  Biso   1.000  H
  C227     1.0000 0.43728  0.93411  0.07253  Biso   1.000  C
  H313     1.0000 0.41860  0.04527  0.02849  Biso   1.000  H
  H314     1.0000 0.03936  0.22581  0.05430  Biso   1.000  H
  H315     1.0000 0.12435  0.21646  0.09907  Biso   1.000  H
  C228     1.0000 0.05917  0.14719  0.14300  Biso   1.000  C
  H316     1.0000 0.07633  0.94225  0.87036  Biso   1.000  H
  H317     1.0000 0.15176  0.91111  0.92960  Biso   1.000  H
  H318     1.0000 0.05453  0.97405  0.94548  Biso   1.000  H
  H319     1.0000 0.50249  0.91617  0.07530  Biso   1.000  H
  H320     1.0000 0.41084  0.94992  0.11793  Biso   1.000  H
  H321     1.0000 0.42173  0.89212  0.06025  Biso   1.000  H
  H322     1.0000 0.02007  0.18573  0.17288  Biso   1.000  H
  H323     1.0000 0.02598  0.11957  0.12550  Biso   1.000  H
  H324     1.0000 0.11085  0.11023  0.17017  Biso   1.000  H
  Ne1      1.0000 0.30137  0.29562  0.74392  Biso   1.000  Ne
  He1      1.0000 0.07607  0.38478  0.05158  Biso   1.000  He
  He2      1.0000 0.54279  0.07206  0.90165  Biso   1.000  He
  He3      1.0000 0.36547  0.53063  0.77323  Biso   1.000  He
  He4      1.0000 0.13514  0.11804  0.71079  Biso   1.000  He
  He5      1.0000 0.01725  0.55408  0.58556  Biso   1.000  He
  He6      1.0000 0.52499  0.22348  0.49663  Biso   1.000  He
  Ar1      1.0000 0.26693  0.30209  0.78479  Biso   1.000  Ar
  Ne2      1.0000 0.69870  0.70427  0.25609  Biso   1.000  Ne
  He7      1.0000 0.51648  0.77282  0.42409  Biso   1.000  He
  He8      1.0000 0.96581  0.42993  0.43095  Biso   1.000  He
  He9      1.0000 0.87710  0.90980  0.29369  Biso   1.000  He
  He10     1.0000 0.64309  0.49647  0.17700  Biso   1.000  He
  He11     1.0000 0.44275  0.94453  0.09084  Biso   1.000  He
  He12     1.0000 0.92259  0.61592  0.95029  Biso   1.000  He
  Ar2      1.0000 0.73100  0.69847  0.21717  Biso   1.000  Ar
