data_image0
_cell_length_a       12.631
_cell_length_b       12.636
_cell_length_c       16.384
_cell_angle_alpha    72.19
_cell_angle_beta     73.9
_cell_angle_gamma    72.08

_symmetry_space_group_name_H-M    "P 1"
_symmetry_int_tables_number       1

loop_
  _symmetry_equiv_pos_as_xyz
  'x, y, z'

loop_
  _atom_site_label
  _atom_site_occupancy
  _atom_site_fract_x
  _atom_site_fract_y
  _atom_site_fract_z
  _atom_site_thermal_displace_type
  _atom_site_B_iso_or_equiv
  _atom_site_type_symbol
  C1       1.0000 0.57892  0.48428  0.65715  Biso   1.000  C
  C2       1.0000 0.67580  0.49090  0.59038  Biso   1.000  C
  C3       1.0000 0.48621  0.58077  0.65977  Biso   1.000  C
  C4       1.0000 0.57469  0.37503  0.72916  Biso   1.000  C
  C5       1.0000 0.77343  0.38488  0.58423  Biso   1.000  C
  C6       1.0000 0.68090  0.59464  0.52682  Biso   1.000  C
  C7       1.0000 0.49027  0.68252  0.59464  Biso   1.000  C
  C8       1.0000 0.38124  0.57168  0.73224  Biso   1.000  C
  H1       1.0000 0.49597  0.36542  0.74670  Biso   1.000  H
  H2       1.0000 0.62393  0.30870  0.70559  Biso   1.000  H
  C9       1.0000 0.61322  0.37410  0.81059  Biso   1.000  C
  C10      1.0000 0.75751  0.31298  0.53088  Biso   1.000  C
  H3       1.0000 0.84537  0.40914  0.55693  Biso   1.000  H
  H4       1.0000 0.77971  0.33731  0.64400  Biso   1.000  H
  C11      1.0000 0.58801  0.68959  0.52774  Biso   1.000  C
  C12      1.0000 0.79139  0.60270  0.46104  Biso   1.000  C
  C13      1.0000 0.39150  0.78885  0.59556  Biso   1.000  C
  H5       1.0000 0.40521  0.51996  0.78644  Biso   1.000  H
  H6       1.0000 0.34329  0.64833  0.74395  Biso   1.000  H
  C14      1.0000 0.29559  0.52665  0.70998  Biso   1.000  C
  C15      1.0000 0.74050  0.35102  0.80071  Biso   1.000  C
  H7       1.0000 0.58516  0.31495  0.86041  Biso   1.000  H
  H8       1.0000 0.57718  0.44930  0.82532  Biso   1.000  H
  H9       1.0000 0.82346  0.24760  0.52695  Biso   1.000  H
  H10      1.0000 0.68871  0.28513  0.55955  Biso   1.000  H
  H11      1.0000 0.75002  0.36012  0.47197  Biso   1.000  H
  C16      1.0000 0.59137  0.79808  0.45416  Biso   1.000  C
  H12      1.0000 0.82344  0.53111  0.44068  Biso   1.000  H
  H13      1.0000 0.77567  0.66675  0.40965  Biso   1.000  H
  C17      1.0000 0.87982  0.62227  0.50018  Biso   1.000  C
  H14      1.0000 0.37883  0.82424  0.53514  Biso   1.000  H
  H15      1.0000 0.32189  0.76484  0.63156  Biso   1.000  H
  C18      1.0000 0.40998  0.88012  0.63182  Biso   1.000  C
  H16      1.0000 0.23973  0.50539  0.76307  Biso   1.000  H
  H17      1.0000 0.25671  0.58643  0.66632  Biso   1.000  H
  H18      1.0000 0.33579  0.45917  0.68635  Biso   1.000  H
  C19      1.0000 0.79682  0.43860  0.77256  Biso   1.000  C
  C20      1.0000 0.80494  0.23868  0.81694  Biso   1.000  C
  H19      1.0000 0.53567  0.86395  0.47472  Biso   1.000  H
  H20      1.0000 0.66783  0.81288  0.44022  Biso   1.000  H
  C21      1.0000 0.56488  0.79001  0.37096  Biso   1.000  C
  C22      1.0000 0.86899  0.74520  0.49861  Biso   1.000  C
  H21      1.0000 0.95661  0.59200  0.46778  Biso   1.000  H
  H22      1.0000 0.87390  0.57705  0.56171  Biso   1.000  H
  C23      1.0000 0.37579  0.85980  0.73040  Biso   1.000  C
  H23      1.0000 0.36568  0.95641  0.60518  Biso   1.000  H
  H24      1.0000 0.49126  0.88125  0.61375  Biso   1.000  H
  H25      1.0000 0.75414  0.51599  0.76006  Biso   1.000  H
  C24      1.0000 0.91461  0.41550  0.76222  Biso   1.000  C
  C25      1.0000 0.92196  0.21440  0.80536  Biso   1.000  C
  H26      1.0000 0.76817  0.17759  0.83632  Biso   1.000  H
  H27      1.0000 0.56548  0.86260  0.32678  Biso   1.000  H
  H28      1.0000 0.62234  0.72780  0.34831  Biso   1.000  H
  H29      1.0000 0.48965  0.77450  0.38451  Biso   1.000  H
  C26      1.0000 0.79450  0.80031  0.56191  Biso   1.000  C
  C27      1.0000 0.93610  0.80787  0.43053  Biso   1.000  C
  C28      1.0000 0.44403  0.77920  0.78572  Biso   1.000  C
  C29      1.0000 0.27023  0.91898  0.76765  Biso   1.000  C
  C30      1.0000 0.97568  0.30247  0.77852  Biso   1.000  C
  C31      1.0000 0.97504  0.51006  0.73800  Biso   1.000  C
  H30      1.0000 0.96504  0.13706  0.81583  Biso   1.000  H
  H31      1.0000 0.74859  0.75869  0.60917  Biso   1.000  H
  C32      1.0000 0.78508  0.91415  0.55805  Biso   1.000  C
  C33      1.0000 0.92885  0.92023  0.42608  Biso   1.000  C
  H32      1.0000 0.98762  0.77257  0.38641  Biso   1.000  H
  H33      1.0000 0.51730  0.73973  0.76084  Biso   1.000  H
  C34      1.0000 0.40872  0.75418  0.87625  Biso   1.000  C
  C35      1.0000 0.23373  0.89600  0.85753  Biso   1.000  C
  H34      1.0000 0.22282  0.97576  0.73112  Biso   1.000  H
  H35      1.0000 0.05593  0.28541  0.77119  Biso   1.000  H
  C36      1.0000 0.96434  0.56221  0.81491  Biso   1.000  C
  H36      1.0000 0.94398  0.57178  0.69034  Biso   1.000  H
  H37      1.0000 0.05659  0.47956  0.71502  Biso   1.000  H
  C37      1.0000 0.85405  0.97352  0.48938  Biso   1.000  C
  C38      1.0000 0.70513  0.97478  0.62652  Biso   1.000  C
  H38      1.0000 0.97558  0.96147  0.37928  Biso   1.000  H
  C39      1.0000 0.30161  0.81431  0.91127  Biso   1.000  C
  C40      1.0000 0.48321  0.66866  0.93582  Biso   1.000  C
  H39      1.0000 0.16119  0.93686  0.88247  Biso   1.000  H
  C41      1.0000 0.85995  0.66043  0.82519  Biso   1.000  C
  H40      1.0000 0.96150  0.50126  0.86990  Biso   1.000  H
  H41      1.0000 0.03290  0.59011  0.80555  Biso   1.000  H
  H42      1.0000 0.84990  0.05107  0.48584  Biso   1.000  H
  C42      1.0000 0.75909  0.97143  0.70167  Biso   1.000  C
  H43      1.0000 0.63950  0.93952  0.65205  Biso   1.000  H
  H44      1.0000 0.67577  0.05585  0.59739  Biso   1.000  H
  H45      1.0000 0.27513  0.79877  0.97287  Biso   1.000  H
  C43      1.0000 0.56062  0.71834  0.96442  Biso   1.000  C
  H46      1.0000 0.43438  0.63226  0.98891  Biso   1.000  H
  H47      1.0000 0.53161  0.60782  0.90590  Biso   1.000  H
  C44      1.0000 0.86143  0.76785  0.76634  Biso   1.000  C
  C45      1.0000 0.76148  0.64443  0.88901  Biso   1.000  C
  C46      1.0000 0.76490  0.85862  0.76994  Biso   1.000  C
  H48      1.0000 0.83677  0.98309  0.67712  Biso   1.000  H
  H49      1.0000 0.71380  0.03483  0.72975  Biso   1.000  H
  C47      1.0000 0.66561  0.73743  0.89504  Biso   1.000  C
  H50      1.0000 0.51653  0.79221  0.97889  Biso   1.000  H
  H51      1.0000 0.58463  0.66517  0.01823  Biso   1.000  H
  C48      1.0000 0.97182  0.78599  0.70232  Biso   1.000  C
  C49      1.0000 0.76090  0.52842  0.95402  Biso   1.000  C
  C50      1.0000 0.66654  0.84443  0.83566  Biso   1.000  C
  H52      1.0000 0.95378  0.84670  0.64969  Biso   1.000  H
  H53      1.0000 0.01396  0.71434  0.68347  Biso   1.000  H
  C51      1.0000 0.04651  0.82023  0.74402  Biso   1.000  C
  H54      1.0000 0.81099  0.46721  0.92502  Biso   1.000  H
  H55      1.0000 0.68294  0.51703  0.97031  Biso   1.000  H
  C52      1.0000 0.80032  0.51601  0.03728  Biso   1.000  C
  C53      1.0000 0.56567  0.94733  0.84247  Biso   1.000  C
  H56      1.0000 0.11551  0.83331  0.70101  Biso   1.000  H
  H57      1.0000 0.00463  0.89069  0.76320  Biso   1.000  H
  H58      1.0000 0.06723  0.75869  0.79455  Biso   1.000  H
  H59      1.0000 0.79561  0.44089  0.07682  Biso   1.000  H
  H60      1.0000 0.87914  0.52268  0.02222  Biso   1.000  H
  H61      1.0000 0.75161  0.57653  0.06634  Biso   1.000  H
  H62      1.0000 0.55429  0.99143  0.78290  Biso   1.000  H
  H63      1.0000 0.49635  0.91992  0.87422  Biso   1.000  H
  C54      1.0000 0.58231  0.02620  0.89006  Biso   1.000  C
  H64      1.0000 0.58901  0.98422  0.95028  Biso   1.000  H
  H65      1.0000 0.51677  0.09256  0.89091  Biso   1.000  H
  H66      1.0000 0.65153  0.05258  0.85949  Biso   1.000  H
  C55      1.0000 0.42106  0.51569  0.34281  Biso   1.000  C
  C56      1.0000 0.42527  0.62502  0.27081  Biso   1.000  C
  C57      1.0000 0.32420  0.50910  0.40952  Biso   1.000  C
  C58      1.0000 0.51377  0.41921  0.34020  Biso   1.000  C
  C59      1.0000 0.38678  0.62589  0.18931  Biso   1.000  C
  H67      1.0000 0.50409  0.63455  0.25327  Biso   1.000  H
  H68      1.0000 0.37615  0.69129  0.29431  Biso   1.000  H
  C60      1.0000 0.31914  0.40541  0.47315  Biso   1.000  C
  C61      1.0000 0.22657  0.61511  0.41567  Biso   1.000  C
  C62      1.0000 0.50973  0.31748  0.40526  Biso   1.000  C
  C63      1.0000 0.61876  0.42831  0.26767  Biso   1.000  C
  C64      1.0000 0.25946  0.64903  0.19926  Biso   1.000  C
  H69      1.0000 0.41491  0.68504  0.13950  Biso   1.000  H
  H70      1.0000 0.42280  0.55078  0.17458  Biso   1.000  H
  C65      1.0000 0.20861  0.39729  0.53887  Biso   1.000  C
  C66      1.0000 0.41198  0.31038  0.47223  Biso   1.000  C
  H71      1.0000 0.15467  0.59092  0.44303  Biso   1.000  H
  H72      1.0000 0.22029  0.66269  0.35591  Biso   1.000  H
  C67      1.0000 0.24248  0.68699  0.46909  Biso   1.000  C
  C68      1.0000 0.60855  0.21122  0.40435  Biso   1.000  C
  H73      1.0000 0.59484  0.48011  0.21347  Biso   1.000  H
  H74      1.0000 0.65666  0.35173  0.25601  Biso   1.000  H
  C69      1.0000 0.70438  0.47343  0.28992  Biso   1.000  C
  C70      1.0000 0.20316  0.56138  0.22741  Biso   1.000  C
  C71      1.0000 0.19512  0.76129  0.18303  Biso   1.000  C
  C72      1.0000 0.12026  0.37772  0.49972  Biso   1.000  C
  H75      1.0000 0.17652  0.46894  0.55929  Biso   1.000  H
  H76      1.0000 0.22441  0.33324  0.59025  Biso   1.000  H
  C73      1.0000 0.40863  0.20191  0.54574  Biso   1.000  C
  H77      1.0000 0.17660  0.75237  0.47301  Biso   1.000  H
  H78      1.0000 0.31134  0.71495  0.44035  Biso   1.000  H
  H79      1.0000 0.25002  0.63993  0.52800  Biso   1.000  H
  C74      1.0000 0.58998  0.11993  0.36815  Biso   1.000  C
  H80      1.0000 0.62121  0.17581  0.46483  Biso   1.000  H
  H81      1.0000 0.67814  0.23521  0.36841  Biso   1.000  H
  H82      1.0000 0.76027  0.49460  0.23683  Biso   1.000  H
  H83      1.0000 0.74329  0.41356  0.33358  Biso   1.000  H
  H84      1.0000 0.66427  0.54080  0.31362  Biso   1.000  H
  C75      1.0000 0.08537  0.58448  0.23775  Biso   1.000  C
  H85      1.0000 0.24590  0.48407  0.23991  Biso   1.000  H
  C76      1.0000 0.07810  0.78558  0.19461  Biso   1.000  C
  H86      1.0000 0.23181  0.82239  0.16365  Biso   1.000  H
  C77      1.0000 0.13107  0.25477  0.50136  Biso   1.000  C
  H87      1.0000 0.04345  0.40797  0.53219  Biso   1.000  H
  H88      1.0000 0.12616  0.42292  0.43826  Biso   1.000  H
  H89      1.0000 0.46431  0.13602  0.52525  Biso   1.000  H
  H90      1.0000 0.33220  0.18717  0.55975  Biso   1.000  H
  C78      1.0000 0.43510  0.20996  0.62901  Biso   1.000  C
  C79      1.0000 0.62420  0.14018  0.26956  Biso   1.000  C
  H91      1.0000 0.63438  0.04357  0.39479  Biso   1.000  H
  H92      1.0000 0.50870  0.11880  0.38621  Biso   1.000  H
  C80      1.0000 0.02502  0.48991  0.26197  Biso   1.000  C
  C81      1.0000 0.02438  0.69750  0.22145  Biso   1.000  C
  H93      1.0000 0.03500  0.86299  0.18414  Biso   1.000  H
  C82      1.0000 0.20553  0.19974  0.43806  Biso   1.000  C
  C83      1.0000 0.06396  0.19210  0.56944  Biso   1.000  C
  H94      1.0000 0.43451  0.13737  0.67319  Biso   1.000  H
  H95      1.0000 0.37766  0.27220  0.65159  Biso   1.000  H
  H96      1.0000 0.51031  0.22555  0.61546  Biso   1.000  H
  C84      1.0000 0.55604  0.22080  0.21419  Biso   1.000  C
  C85      1.0000 0.72984  0.08099  0.23232  Biso   1.000  C
  C86      1.0000 0.03572  0.43777  0.18506  Biso   1.000  C
  H97      1.0000 0.05602  0.42822  0.30956  Biso   1.000  H
  H98      1.0000 0.94339  0.52041  0.28495  Biso   1.000  H
  H99      1.0000 0.94411  0.71465  0.22878  Biso   1.000  H
  C87      1.0000 0.21488  0.08590  0.44192  Biso   1.000  C
  H100     1.0000 0.25138  0.24139  0.39073  Biso   1.000  H
  C88      1.0000 0.07113  0.07984  0.57382  Biso   1.000  C
  H101     1.0000 0.01236  0.22750  0.61349  Biso   1.000  H
  C89      1.0000 0.59128  0.24581  0.12365  Biso   1.000  C
  H102     1.0000 0.48276  0.26025  0.23913  Biso   1.000  H
  C90      1.0000 0.76627  0.10400  0.14238  Biso   1.000  C
  H103     1.0000 0.77726  0.02423  0.26878  Biso   1.000  H
  C91      1.0000 0.14011  0.33964  0.17471  Biso   1.000  C
  H104     1.0000 0.03845  0.49880  0.13007  Biso   1.000  H
  H105     1.0000 0.96705  0.40994  0.19442  Biso   1.000  H
  C92      1.0000 0.29493  0.02519  0.37345  Biso   1.000  C
  C93      1.0000 0.14591  0.02654  0.51059  Biso   1.000  C
  H106     1.0000 0.02448  0.03850  0.62069  Biso   1.000  H
  C94      1.0000 0.51677  0.33142  0.06409  Biso   1.000  C
  C95      1.0000 0.69835  0.18574  0.08870  Biso   1.000  C
  H107     1.0000 0.83887  0.06311  0.11750  Biso   1.000  H
  C96      1.0000 0.13860  0.23221  0.23363  Biso   1.000  C
  C97      1.0000 0.23848  0.35562  0.11095  Biso   1.000  C
  C98      1.0000 0.24094  0.02863  0.29830  Biso   1.000  C
  H108     1.0000 0.36045  0.06053  0.34792  Biso   1.000  H
  H109     1.0000 0.32431  0.94415  0.40251  Biso   1.000  H
  H110     1.0000 0.15017  0.94890  0.51412  Biso   1.000  H
  C99      1.0000 0.43935  0.28173  0.03548  Biso   1.000  C
  H111     1.0000 0.56568  0.36771  0.01106  Biso   1.000  H
  H112     1.0000 0.46837  0.39215  0.09407  Biso   1.000  H
  H113     1.0000 0.72495  0.20123  0.02704  Biso   1.000  H
  C100     1.0000 0.23508  0.14135  0.23003  Biso   1.000  C
  C101     1.0000 0.02824  0.21398  0.29765  Biso   1.000  C
  C102     1.0000 0.33437  0.26264  0.10487  Biso   1.000  C
  C103     1.0000 0.23910  0.47158  0.04589  Biso   1.000  C
  H114     1.0000 0.16326  0.01697  0.32285  Biso   1.000  H
  H115     1.0000 0.28618  0.96524  0.27015  Biso   1.000  H
  H116     1.0000 0.48350  0.20785  0.02108  Biso   1.000  H
  H117     1.0000 0.41542  0.33491  0.98167  Biso   1.000  H
  C104     1.0000 0.33350  0.15562  0.16430  Biso   1.000  C
  H118     1.0000 0.04622  0.15330  0.35021  Biso   1.000  H
  H119     1.0000 0.98604  0.28565  0.31643  Biso   1.000  H
  C105     1.0000 0.95352  0.17983  0.25595  Biso   1.000  C
  H120     1.0000 0.18906  0.53286  0.07489  Biso   1.000  H
  H121     1.0000 0.31713  0.48294  0.02965  Biso   1.000  H
  C106     1.0000 0.19968  0.48398  0.96262  Biso   1.000  C
  C107     1.0000 0.43430  0.05275  0.15743  Biso   1.000  C
  H122     1.0000 0.88446  0.16676  0.29889  Biso   1.000  H
  H123     1.0000 0.99536  0.10928  0.23677  Biso   1.000  H
  H124     1.0000 0.93285  0.24130  0.20535  Biso   1.000  H
  H125     1.0000 0.20438  0.55908  0.92315  Biso   1.000  H
  H126     1.0000 0.12093  0.47730  0.97774  Biso   1.000  H
  H127     1.0000 0.24843  0.42353  0.93362  Biso   1.000  H
  H128     1.0000 0.44567  0.00863  0.21707  Biso   1.000  H
  H129     1.0000 0.50364  0.08005  0.12575  Biso   1.000  H
  C108     1.0000 0.41775  0.97377  0.10991  Biso   1.000  C
  H130     1.0000 0.41098  0.01575  0.04968  Biso   1.000  H
  H131     1.0000 0.48328  0.90752  0.10899  Biso   1.000  H
  H132     1.0000 0.34853  0.94740  0.14048  Biso   1.000  H
  Ne1      1.0000 0.32166  0.32907  0.29186  Biso   1.000  Ne
  He1      1.0000 0.47018  0.09261  0.31591  Biso   1.000  He
  He2      1.0000 0.15635  0.37077  0.35805  Biso   1.000  He
  He3      1.0000 0.36022  0.36892  0.19937  Biso   1.000  He
  Ar1      1.0000 0.32948  0.33198  0.28783  Biso   1.000  Ar
  Ne2      1.0000 0.67835  0.67094  0.70808  Biso   1.000  Ne
  He4      1.0000 0.48361  0.58018  0.82717  Biso   1.000  He
  He5      1.0000 0.53420  0.89995  0.70156  Biso   1.000  He
  He6      1.0000 0.89076  0.52343  0.64673  Biso   1.000  He
  Ar2      1.0000 0.67056  0.66804  0.71209  Biso   1.000  Ar
