data_image0
_cell_length_a       12.176
_cell_length_b       17.219
_cell_length_c       17.036
_cell_angle_alpha    90
_cell_angle_beta     99.05
_cell_angle_gamma    90

_symmetry_space_group_name_H-M    "P 1"
_symmetry_int_tables_number       1

loop_
  _symmetry_equiv_pos_as_xyz
  'x, y, z'

loop_
  _atom_site_label
  _atom_site_occupancy
  _atom_site_fract_x
  _atom_site_fract_y
  _atom_site_fract_z
  _atom_site_thermal_displace_type
  _atom_site_B_iso_or_equiv
  _atom_site_type_symbol
  O1       1.0000 0.69190  0.36646  0.64842  Biso   1.000  O
  C1       1.0000 0.72823  0.33841  0.71351  Biso   1.000  C
  N1       1.0000 0.69524  0.35798  0.78376  Biso   1.000  N
  N2       1.0000 0.80212  0.27905  0.72605  Biso   1.000  N
  C2       1.0000 0.60775  0.41472  0.78590  Biso   1.000  C
  C3       1.0000 0.74327  0.30768  0.84939  Biso   1.000  C
  C4       1.0000 0.82694  0.25681  0.81045  Biso   1.000  C
  C5       1.0000 0.84634  0.24142  0.66168  Biso   1.000  C
  H1       1.0000 0.56925  0.42296  0.73223  Biso   1.000  H
  H2       1.0000 0.55431  0.39398  0.81699  Biso   1.000  H
  N3       1.0000 0.64770  0.48882  0.81925  Biso   1.000  N
  C6       1.0000 0.65474  0.25919  0.88148  Biso   1.000  C
  N4       1.0000 0.81610  0.34915  0.91162  Biso   1.000  N
  C7       1.0000 0.81061  0.17057  0.82323  Biso   1.000  C
  N5       1.0000 0.93508  0.28492  0.84956  Biso   1.000  N
  H3       1.0000 0.79348  0.24798  0.61329  Biso   1.000  H
  H4       1.0000 0.85243  0.18619  0.67291  Biso   1.000  H
  N6       1.0000 0.95409  0.26970  0.64783  Biso   1.000  N
  C8       1.0000 0.65766  0.50566  0.90336  Biso   1.000  C
  C9       1.0000 0.63800  0.55508  0.77372  Biso   1.000  C
  H5       1.0000 0.68819  0.23178  0.92897  Biso   1.000  H
  H6       1.0000 0.59722  0.29311  0.89551  Biso   1.000  H
  C10      1.0000 0.60348  0.20117  0.81913  Biso   1.000  C
  C11      1.0000 0.77870  0.39689  0.97302  Biso   1.000  C
  C12      1.0000 0.92673  0.33509  0.91049  Biso   1.000  C
  C13      1.0000 0.68992  0.14559  0.79393  Biso   1.000  C
  H7       1.0000 0.82971  0.15878  0.87940  Biso   1.000  H
  H8       1.0000 0.86016  0.14141  0.79500  Biso   1.000  H
  C14      1.0000 0.04127  0.25141  0.84059  Biso   1.000  C
  C15      1.0000 0.96702  0.32023  0.58756  Biso   1.000  C
  C16      1.0000 0.05904  0.24647  0.69330  Biso   1.000  C
  C17      1.0000 0.67169  0.59539  0.90740  Biso   1.000  C
  H9       1.0000 0.59113  0.48929  0.92458  Biso   1.000  H
  N7       1.0000 0.75707  0.47744  0.95162  Biso   1.000  N
  N8       1.0000 0.65715  0.61810  0.82490  Biso   1.000  N
  O2       1.0000 0.61433  0.55880  0.70198  Biso   1.000  O
  H10      1.0000 0.56723  0.22911  0.77271  Biso   1.000  H
  H11      1.0000 0.54724  0.17121  0.84011  Biso   1.000  H
  H12      1.0000 0.71114  0.37430  0.98663  Biso   1.000  H
  H13      1.0000 0.83477  0.39497  0.02033  Biso   1.000  H
  O3       1.0000 0.00293  0.36187  0.95780  Biso   1.000  O
  H14      1.0000 0.67849  0.14217  0.73639  Biso   1.000  H
  H15      1.0000 0.67843  0.09420  0.81449  Biso   1.000  H
  H16      1.0000 0.09427  0.26227  0.88808  Biso   1.000  H
  H17      1.0000 0.03324  0.19537  0.83619  Biso   1.000  H
  N9       1.0000 0.08546  0.27998  0.77229  Biso   1.000  N
  O4       1.0000 0.89169  0.34427  0.53745  Biso   1.000  O
  N10      1.0000 0.07824  0.33678  0.59249  Biso   1.000  N
  H18      1.0000 0.06729  0.18979  0.69461  Biso   1.000  H
  C18      1.0000 0.14627  0.28561  0.64783  Biso   1.000  C
  H19      1.0000 0.61674  0.61990  0.93569  Biso   1.000  H
  N11      1.0000 0.78417  0.60404  0.95013  Biso   1.000  N
  C19      1.0000 0.82825  0.53557  0.98027  Biso   1.000  C
  C20      1.0000 0.64464  0.69690  0.79791  Biso   1.000  C
  C21      1.0000 0.18529  0.31901  0.78222  Biso   1.000  C
  C22      1.0000 0.12197  0.37459  0.52883  Biso   1.000  C
  H20      1.0000 0.18540  0.24717  0.62001  Biso   1.000  H
  N12      1.0000 0.22024  0.32389  0.70964  Biso   1.000  N
  C23      1.0000 0.83173  0.67768  0.97813  Biso   1.000  C
  O5       1.0000 0.91597  0.52785  0.02729  Biso   1.000  O
  H21      1.0000 0.60321  0.72530  0.83280  Biso   1.000  H
  H22      1.0000 0.60091  0.69725  0.74513  Biso   1.000  H
  N13      1.0000 0.74904  0.73744  0.79500  Biso   1.000  N
  O6       1.0000 0.23528  0.34247  0.84517  Biso   1.000  O
  H23      1.0000 0.06157  0.38359  0.48538  Biso   1.000  H
  H24      1.0000 0.17474  0.33997  0.50963  Biso   1.000  H
  N14      1.0000 0.17673  0.44817  0.55112  Biso   1.000  N
  C24      1.0000 0.32633  0.35699  0.69912  Biso   1.000  C
  H25      1.0000 0.77421  0.70910  0.99590  Biso   1.000  H
  N15      1.0000 0.87957  0.72077  0.91863  Biso   1.000  N
  H26      1.0000 0.88904  0.66856  0.02360  Biso   1.000  H
  C25      1.0000 0.81866  0.77478  0.86205  Biso   1.000  C
  C26      1.0000 0.78442  0.75190  0.72439  Biso   1.000  C
  C27      1.0000 0.29385  0.45752  0.58512  Biso   1.000  C
  C28      1.0000 0.12696  0.51670  0.52835  Biso   1.000  C
  H27      1.0000 0.35954  0.32441  0.66269  Biso   1.000  H
  H28      1.0000 0.37537  0.35629  0.74988  Biso   1.000  H
  N16      1.0000 0.31976  0.43586  0.66887  Biso   1.000  N
  C29      1.0000 0.99225  0.72368  0.91976  Biso   1.000  C
  C30      1.0000 0.91310  0.81317  0.82246  Biso   1.000  C
  C31      1.0000 0.75221  0.83507  0.90229  Biso   1.000  C
  N17      1.0000 0.88262  0.79145  0.73919  Biso   1.000  N
  O7       1.0000 0.73460  0.73587  0.65811  Biso   1.000  O
  C32      1.0000 0.30766  0.54887  0.58815  Biso   1.000  C
  C33      1.0000 0.37186  0.41849  0.53430  Biso   1.000  C
  N18      1.0000 0.19845  0.57628  0.55017  Biso   1.000  N
  O8       1.0000 0.03166  0.52384  0.49055  Biso   1.000  O
  C34      1.0000 0.34388  0.49939  0.71838  Biso   1.000  C
  N19      1.0000 0.01288  0.77420  0.86199  Biso   1.000  N
  O9       1.0000 0.06142  0.68988  0.96648  Biso   1.000  O
  C35      1.0000 0.91833  0.90110  0.83429  Biso   1.000  C
  C36      1.0000 0.71083  0.90046  0.84528  Biso   1.000  C
  H29      1.0000 0.68917  0.80980  0.92000  Biso   1.000  H
  H30      1.0000 0.79911  0.85626  0.94859  Biso   1.000  H
  C37      1.0000 0.93485  0.82095  0.67386  Biso   1.000  C
  C38      1.0000 0.40095  0.57559  0.54298  Biso   1.000  C
  N20      1.0000 0.33175  0.56502  0.67297  Biso   1.000  N
  H31      1.0000 0.35384  0.36367  0.52818  Biso   1.000  H
  H32      1.0000 0.44820  0.42296  0.56063  Biso   1.000  H
  C39      1.0000 0.35949  0.45711  0.45198  Biso   1.000  C
  C40      1.0000 0.16986  0.65631  0.53370  Biso   1.000  C
  O10      1.0000 0.37401  0.49625  0.79001  Biso   1.000  O
  C41      1.0000 0.12554  0.79296  0.85069  Biso   1.000  C
  H33      1.0000 0.97186  0.92288  0.80397  Biso   1.000  H
  H34      1.0000 0.94332  0.91260  0.88998  Biso   1.000  H
  C42      1.0000 0.80389  0.93885  0.80760  Biso   1.000  C
  H35      1.0000 0.67539  0.93966  0.87382  Biso   1.000  H
  H36      1.0000 0.65513  0.88019  0.80338  Biso   1.000  H
  H37      1.0000 0.88032  0.82026  0.62572  Biso   1.000  H
  H38      1.0000 0.95593  0.87467  0.68492  Biso   1.000  H
  N21      1.0000 0.03239  0.77804  0.65954  Biso   1.000  N
  C43      1.0000 0.38210  0.54556  0.45732  Biso   1.000  C
  H39      1.0000 0.40383  0.63180  0.54262  Biso   1.000  H
  H40      1.0000 0.47183  0.55659  0.57020  Biso   1.000  H
  C44      1.0000 0.36718  0.63941  0.70709  Biso   1.000  C
  H41      1.0000 0.28480  0.44828  0.42422  Biso   1.000  H
  H42      1.0000 0.41108  0.43307  0.42142  Biso   1.000  H
  H43      1.0000 0.10941  0.65840  0.48930  Biso   1.000  H
  H44      1.0000 0.23329  0.68227  0.51742  Biso   1.000  H
  N22      1.0000 0.13710  0.69894  0.59980  Biso   1.000  N
  H45      1.0000 0.13125  0.84877  0.84493  Biso   1.000  H
  H46      1.0000 0.17603  0.77798  0.89801  Biso   1.000  H
  N23      1.0000 0.16078  0.75632  0.78317  Biso   1.000  N
  H47      1.0000 0.80819  0.99350  0.82192  Biso   1.000  H
  H48      1.0000 0.78553  0.93548  0.75030  Biso   1.000  H
  C45      1.0000 0.14219  0.78988  0.70394  Biso   1.000  C
  C46      1.0000 0.03056  0.72658  0.59748  Biso   1.000  C
  H49      1.0000 0.44714  0.55706  0.43301  Biso   1.000  H
  H50      1.0000 0.31924  0.57280  0.42731  Biso   1.000  H
  H51      1.0000 0.41168  0.66508  0.67232  Biso   1.000  H
  H52      1.0000 0.41454  0.63070  0.75773  Biso   1.000  H
  N24      1.0000 0.27675  0.69092  0.71975  Biso   1.000  N
  C47      1.0000 0.21711  0.73930  0.65775  Biso   1.000  C
  C48      1.0000 0.24563  0.70231  0.79179  Biso   1.000  C
  H53      1.0000 0.16374  0.84476  0.70483  Biso   1.000  H
  O11      1.0000 0.95029  0.71015  0.54809  Biso   1.000  O
  H54      1.0000 0.26799  0.77136  0.63219  Biso   1.000  H
  O12      1.0000 0.28643  0.67153  0.85402  Biso   1.000  O
  O13      1.0000 0.26529  0.23590  0.34189  Biso   1.000  O
  C49      1.0000 0.21547  0.25187  0.27562  Biso   1.000  C
  N25      1.0000 0.11727  0.29148  0.26082  Biso   1.000  N
  N26      1.0000 0.25085  0.23747  0.20501  Biso   1.000  N
  C50      1.0000 0.06504  0.32098  0.32614  Biso   1.000  C
  C51      1.0000 0.08679  0.31314  0.17754  Biso   1.000  C
  C52      1.0000 0.18115  0.27481  0.13796  Biso   1.000  C
  C53      1.0000 0.35525  0.19688  0.20209  Biso   1.000  C
  H55      1.0000 0.11958  0.32029  0.37429  Biso   1.000  H
  H56      1.0000 0.04397  0.37470  0.31509  Biso   1.000  H
  N27      1.0000 0.96751  0.27806  0.34047  Biso   1.000  N
  C54      1.0000 0.08156  0.40107  0.16572  Biso   1.000  C
  N28      1.0000 0.98701  0.27417  0.13802  Biso   1.000  N
  C55      1.0000 0.24769  0.33509  0.09772  Biso   1.000  C
  N29      1.0000 0.12032  0.22074  0.08137  Biso   1.000  N
  H57      1.0000 0.39669  0.22527  0.16720  Biso   1.000  H
  H58      1.0000 0.39898  0.19728  0.25488  Biso   1.000  H
  N30      1.0000 0.34274  0.11813  0.17511  Biso   1.000  N
  C56      1.0000 0.85770  0.28991  0.29607  Biso   1.000  C
  C57      1.0000 0.96934  0.22661  0.40252  Biso   1.000  C
  H59      1.0000 0.02803  0.42290  0.19603  Biso   1.000  H
  H60      1.0000 0.05657  0.41257  0.11002  Biso   1.000  H
  C58      1.0000 0.19601  0.43888  0.19240  Biso   1.000  C
  C59      1.0000 0.00756  0.22371  0.08024  Biso   1.000  C
  C60      1.0000 0.87435  0.29299  0.14931  Biso   1.000  C
  C61      1.0000 0.28906  0.40049  0.15472  Biso   1.000  C
  H61      1.0000 0.31064  0.30977  0.08001  Biso   1.000  H
  H62      1.0000 0.20079  0.35629  0.05141  Biso   1.000  H
  C62      1.0000 0.16817  0.17771  0.02187  Biso   1.000  C
  C63      1.0000 0.32820  0.09542  0.09261  Biso   1.000  C
  C64      1.0000 0.36189  0.05511  0.22628  Biso   1.000  C
  C65      1.0000 0.78270  0.23933  0.34225  Biso   1.000  C
  H63      1.0000 0.83615  0.34479  0.29517  Biso   1.000  H
  N31      1.0000 0.83911  0.25634  0.21683  Biso   1.000  N
  O14      1.0000 0.04952  0.21012  0.45192  Biso   1.000  O
  N32      1.0000 0.86280  0.19897  0.40020  Biso   1.000  N
  H64      1.0000 0.19171  0.49347  0.17808  Biso   1.000  H
  H65      1.0000 0.21437  0.43551  0.24970  Biso   1.000  H
  O15      1.0000 0.93847  0.18991  0.03352  Biso   1.000  O
  H66      1.0000 0.86864  0.34880  0.15508  Biso   1.000  H
  H67      1.0000 0.82386  0.27801  0.10200  Biso   1.000  H
  H68      1.0000 0.32450  0.43969  0.12619  Biso   1.000  H
  H69      1.0000 0.34477  0.38016  0.19662  Biso   1.000  H
  H70      1.0000 0.22569  0.20907  0.00410  Biso   1.000  H
  N33      1.0000 0.21572  0.10407  0.04987  Biso   1.000  N
  H71      1.0000 0.11085  0.16859  0.97640  Biso   1.000  H
  H72      1.0000 0.38316  0.11987  0.06431  Biso   1.000  H
  C66      1.0000 0.34215  0.00569  0.09665  Biso   1.000  C
  O16      1.0000 0.38556  0.05877  0.29803  Biso   1.000  O
  N34      1.0000 0.35220  0.98885  0.18075  Biso   1.000  N
  H73      1.0000 0.73190  0.27139  0.36781  Biso   1.000  H
  N35      1.0000 0.72314  0.19095  0.28026  Biso   1.000  N
  C67      1.0000 0.75427  0.20228  0.20822  Biso   1.000  C
  C68      1.0000 0.83004  0.15634  0.46630  Biso   1.000  C
  C69      1.0000 0.17156  0.03560  0.01973  Biso   1.000  C
  H74      1.0000 0.40877  0.98931  0.07543  Biso   1.000  H
  N36      1.0000 0.24274  0.97752  0.04838  Biso   1.000  N
  C70      1.0000 0.39214  0.91475  0.21410  Biso   1.000  C
  C71      1.0000 0.63271  0.13938  0.29292  Biso   1.000  C
  O17      1.0000 0.71347  0.17155  0.14598  Biso   1.000  O
  H75      1.0000 0.89048  0.15837  0.51070  Biso   1.000  H
  H76      1.0000 0.76661  0.18230  0.48259  Biso   1.000  H
  N37      1.0000 0.80145  0.07631  0.44984  Biso   1.000  N
  O18      1.0000 0.08393  0.02788  0.97272  Biso   1.000  O
  C72      1.0000 0.22120  0.89692  0.02699  Biso   1.000  C
  H77      1.0000 0.43065  0.92305  0.26777  Biso   1.000  H
  H78      1.0000 0.44558  0.89401  0.18301  Biso   1.000  H
  N38      1.0000 0.30465  0.85801  0.21624  Biso   1.000  N
  H79      1.0000 0.58821  0.16511  0.32769  Biso   1.000  H
  H80      1.0000 0.58535  0.13067  0.24227  Biso   1.000  H
  N39      1.0000 0.66815  0.06504  0.32703  Biso   1.000  N
  C73      1.0000 0.69223  0.04890  0.41185  Biso   1.000  C
  C74      1.0000 0.87294  0.01673  0.47165  Biso   1.000  C
  H81      1.0000 0.16512  0.89506  0.97967  Biso   1.000  H
  H82      1.0000 0.28875  0.87432  0.01337  Biso   1.000  H
  N40      1.0000 0.18379  0.84918  0.08839  Biso   1.000  N
  C75      1.0000 0.25662  0.80771  0.15062  Biso   1.000  C
  C76      1.0000 0.27166  0.83843  0.28650  Biso   1.000  C
  C77      1.0000 0.65602  0.99942  0.28162  Biso   1.000  C
  C78      1.0000 0.70604  0.95755  0.41489  Biso   1.000  C
  C79      1.0000 0.59894  0.07561  0.45703  Biso   1.000  C
  N41      1.0000 0.82308  0.94820  0.44888  Biso   1.000  N
  O19      1.0000 0.96823  0.02381  0.50945  Biso   1.000  O
  C80      1.0000 0.07317  0.83512  0.08952  Biso   1.000  C
  C81      1.0000 0.17296  0.75684  0.18955  Biso   1.000  C
  C82      1.0000 0.34515  0.75922  0.11852  Biso   1.000  C
  N42      1.0000 0.19778  0.77908  0.27396  Biso   1.000  N
  O20      1.0000 0.30799  0.86648  0.35158  Biso   1.000  O
  N43      1.0000 0.68014  0.93588  0.33114  Biso   1.000  N
  O21      1.0000 0.62588  0.99628  0.21000  Biso   1.000  O
  C83      1.0000 0.62803  0.91852  0.46571  Biso   1.000  C
  C84      1.0000 0.61779  0.04559  0.54268  Biso   1.000  C
  H83      1.0000 0.59598  0.13177  0.45738  Biso   1.000  H
  H84      1.0000 0.52807  0.05662  0.42980  Biso   1.000  H
  C85      1.0000 0.87792  0.87462  0.47117  Biso   1.000  C
  O22      1.0000 0.99697  0.86195  0.04220  Biso   1.000  O
  N44      1.0000 0.06480  0.78495  0.15038  Biso   1.000  N
  C86      1.0000 0.18928  0.67065  0.17677  Biso   1.000  C
  H85      1.0000 0.31171  0.73181  0.07103  Biso   1.000  H
  H86      1.0000 0.40268  0.79314  0.10449  Biso   1.000  H
  C87      1.0000 0.39633  0.70126  0.18087  Biso   1.000  C
  C88      1.0000 0.15355  0.74145  0.33833  Biso   1.000  C
  C89      1.0000 0.67356  0.85702  0.30088  Biso   1.000  C
  H87      1.0000 0.64605  0.86376  0.47183  Biso   1.000  H
  H88      1.0000 0.55169  0.92305  0.43937  Biso   1.000  H
  C90      1.0000 0.64040  0.95714  0.54803  Biso   1.000  C
  H89      1.0000 0.55267  0.05709  0.56699  Biso   1.000  H
  H90      1.0000 0.68057  0.07283  0.57270  Biso   1.000  H
  H91      1.0000 0.93832  0.88362  0.51462  Biso   1.000  H
  H92      1.0000 0.82507  0.84006  0.49037  Biso   1.000  H
  N45      1.0000 0.92165  0.83687  0.40751  Biso   1.000  N
  C91      1.0000 0.95862  0.75144  0.15942  Biso   1.000  C
  C92      1.0000 0.30997  0.64562  0.20608  Biso   1.000  C
  H93      1.0000 0.17019  0.65887  0.12060  Biso   1.000  H
  H94      1.0000 0.13965  0.64144  0.20501  Biso   1.000  H
  H95      1.0000 0.43266  0.72914  0.22730  Biso   1.000  H
  H96      1.0000 0.45265  0.67124  0.15989  Biso   1.000  H
  H97      1.0000 0.20633  0.74801  0.38671  Biso   1.000  H
  H98      1.0000 0.14746  0.68622  0.32709  Biso   1.000  H
  N46      1.0000 0.04581  0.76979  0.35218  Biso   1.000  N
  H99      1.0000 0.64035  0.82444  0.33732  Biso   1.000  H
  H100     1.0000 0.62453  0.85632  0.25012  Biso   1.000  H
  N47      1.0000 0.77965  0.82392  0.29036  Biso   1.000  N
  H101     1.0000 0.71509  0.94831  0.57579  Biso   1.000  H
  H102     1.0000 0.58882  0.93316  0.57858  Biso   1.000  H
  C93      1.0000 0.85362  0.78570  0.35218  Biso   1.000  C
  C94      1.0000 0.03287  0.82026  0.41245  Biso   1.000  C
  H103     1.0000 0.90563  0.76236  0.11192  Biso   1.000  H
  H104     1.0000 0.96665  0.69545  0.16381  Biso   1.000  H
  N48      1.0000 0.91444  0.78001  0.22771  Biso   1.000  N
  H105     1.0000 0.32140  0.64226  0.26361  Biso   1.000  H
  H106     1.0000 0.32146  0.59423  0.18551  Biso   1.000  H
  C95      1.0000 0.94086  0.74656  0.30671  Biso   1.000  C
  C96      1.0000 0.81460  0.81904  0.21779  Biso   1.000  C
  H107     1.0000 0.81449  0.74726  0.37999  Biso   1.000  H
  O23      1.0000 0.10812  0.84430  0.46256  Biso   1.000  O
  H108     1.0000 0.93260  0.68982  0.30540  Biso   1.000  H
  O24      1.0000 0.76461  0.84256  0.15484  Biso   1.000  O
  Ne1      1.0000 0.02104  0.02727  0.25165  Biso   1.000  Ne
  He1      1.0000 0.18024  0.02668  0.40479  Biso   1.000  He
  He2      1.0000 0.84908  0.01475  0.09169  Biso   1.000  He
  Ar1      1.0000 0.01496  0.02845  0.25254  Biso   1.000  Ar
  Ne2      1.0000 0.97884  0.52724  0.74835  Biso   1.000  Ne
  He3      1.0000 0.15589  0.51426  0.91317  Biso   1.000  He
  He4      1.0000 0.81849  0.54244  0.59197  Biso   1.000  He
  Ar2      1.0000 0.98495  0.52844  0.74746  Biso   1.000  Ar
