data_image0
_cell_length_a       11.174
_cell_length_b       11.73
_cell_length_c       17.822
_cell_angle_alpha    100.46
_cell_angle_beta     99.69
_cell_angle_gamma    107.09

_symmetry_space_group_name_H-M    "P 1"
_symmetry_int_tables_number       1

loop_
  _symmetry_equiv_pos_as_xyz
  'x, y, z'

loop_
  _atom_site_label
  _atom_site_occupancy
  _atom_site_fract_x
  _atom_site_fract_y
  _atom_site_fract_z
  _atom_site_thermal_displace_type
  _atom_site_B_iso_or_equiv
  _atom_site_type_symbol
  C1       1.0000 0.93775  0.26927  0.18342  Biso   1.000  C
  C2       1.0000 0.01833  0.42682  0.11784  Biso   1.000  C
  H1       1.0000 0.07744  0.43222  0.23380  Biso   1.000  H
  C3       1.0000 0.01836  0.42691  0.11784  Biso   1.000  C
  C4       1.0000 0.01840  0.42680  0.11778  Biso   1.000  C
  C5       1.0000 0.84859  0.19313  0.11314  Biso   1.000  C
  C6       1.0000 0.84848  0.19310  0.11308  Biso   1.000  C
  H2       1.0000 0.94073  0.24042  0.22999  Biso   1.000  H
  H3       1.0000 0.94084  0.24044  0.23004  Biso   1.000  H
  C7       1.0000 0.01945  0.38264  0.18577  Biso   1.000  C
  C8       1.0000 0.01956  0.38273  0.18577  Biso   1.000  C
  C9       1.0000 0.93706  0.35848  0.05067  Biso   1.000  C
  C10      1.0000 0.93711  0.35859  0.05073  Biso   1.000  C
  H4       1.0000 0.07575  0.50590  0.11984  Biso   1.000  H
  C11      1.0000 0.76232  0.07534  0.10950  Biso   1.000  C
  C12      1.0000 0.76229  0.07525  0.10950  Biso   1.000  C
  C13      1.0000 0.84660  0.23926  0.04239  Biso   1.000  C
  C14      1.0000 0.84654  0.23935  0.04239  Biso   1.000  C
  H5       1.0000 0.93924  0.39063  0.00552  Biso   1.000  H
  C15      1.0000 0.74809  0.03584  0.18290  Biso   1.000  C
  C16      1.0000 0.74806  0.03575  0.18290  Biso   1.000  C
  C17      1.0000 0.74797  0.03575  0.18290  Biso   1.000  C
  C18      1.0000 0.68454  0.00098  0.03623  Biso   1.000  C
  C19      1.0000 0.68463  0.00098  0.03623  Biso   1.000  C
  C20      1.0000 0.68466  0.00107  0.03623  Biso   1.000  C
  C21      1.0000 0.68457  0.00107  0.03623  Biso   1.000  C
  C22      1.0000 0.75995  0.16780  0.97176  Biso   1.000  C
  C23      1.0000 0.75986  0.16780  0.97176  Biso   1.000  C
  C24      1.0000 0.75992  0.16771  0.97176  Biso   1.000  C
  C25      1.0000 0.75983  0.16771  0.97176  Biso   1.000  C
  N1       1.0000 0.84218  0.97792  0.21090  Biso   1.000  N
  H6       1.0000 0.66011  0.97693  0.17421  Biso   1.000  H
  N2       1.0000 0.84224  0.97783  0.21090  Biso   1.000  N
  H7       1.0000 0.66017  0.97684  0.17421  Biso   1.000  H
  N3       1.0000 0.84215  0.97783  0.21090  Biso   1.000  N
  H8       1.0000 0.66008  0.97684  0.17421  Biso   1.000  H
  N4       1.0000 0.84227  0.97792  0.21090  Biso   1.000  N
  H9       1.0000 0.66020  0.97693  0.17421  Biso   1.000  H
  H10      1.0000 0.75724  0.10840  0.22458  Biso   1.000  H
  H11      1.0000 0.75735  0.10842  0.22464  Biso   1.000  H
  C26      1.0000 0.60234  0.87777  0.03030  Biso   1.000  C
  C27      1.0000 0.68282  0.04700  0.96794  Biso   1.000  C
  C28      1.0000 0.68273  0.04700  0.96794  Biso   1.000  C
  C29      1.0000 0.68279  0.04691  0.96794  Biso   1.000  C
  C30      1.0000 0.68270  0.04691  0.96794  Biso   1.000  C
  C31      1.0000 0.74283  0.22418  0.90353  Biso   1.000  C
  C32      1.0000 0.74274  0.22418  0.90353  Biso   1.000  C
  C33      1.0000 0.74283  0.22411  0.90359  Biso   1.000  C
  C34      1.0000 0.74274  0.22411  0.90359  Biso   1.000  C
  H12      1.0000 0.89189  0.95890  0.18090  Biso   1.000  H
  H13      1.0000 0.89198  0.95890  0.18090  Biso   1.000  H
  C35      1.0000 0.85174  0.95446  0.28148  Biso   1.000  C
  H14      1.0000 0.89186  0.95881  0.18090  Biso   1.000  H
  C36      1.0000 0.85168  0.95448  0.28154  Biso   1.000  C
  H15      1.0000 0.89195  0.95881  0.18090  Biso   1.000  H
  C37      1.0000 0.52553  0.80624  0.95972  Biso   1.000  C
  C38      1.0000 0.52558  0.80635  0.95978  Biso   1.000  C
  C39      1.0000 0.52556  0.80633  0.95972  Biso   1.000  C
  H16      1.0000 0.60192  0.84637  0.07580  Biso   1.000  H
  C40      1.0000 0.60023  0.96940  0.89713  Biso   1.000  C
  C41      1.0000 0.60034  0.96942  0.89719  Biso   1.000  C
  H17      1.0000 0.76866  0.31446  0.92332  Biso   1.000  H
  H18      1.0000 0.76868  0.31448  0.92338  Biso   1.000  H
  H19      1.0000 0.65042  0.19340  0.87635  Biso   1.000  H
  N5       1.0000 0.81860  0.19701  0.84628  Biso   1.000  N
  N6       1.0000 0.81867  0.19699  0.84623  Biso   1.000  N
  H20      1.0000 0.65033  0.19340  0.87635  Biso   1.000  H
  O1       1.0000 0.78036  0.97857  0.32358  Biso   1.000  O
  O2       1.0000 0.78027  0.97851  0.32364  Biso   1.000  O
  O3       1.0000 0.78030  0.97859  0.32364  Biso   1.000  O
  C42      1.0000 0.95717  0.90521  0.31207  Biso   1.000  C
  O4       1.0000 0.78036  0.97851  0.32364  Biso   1.000  O
  C43      1.0000 0.52177  0.84915  0.89173  Biso   1.000  C
  C44      1.0000 0.52191  0.84926  0.89179  Biso   1.000  C
  H21      1.0000 0.47283  0.72495  0.95684  Biso   1.000  H
  C45      1.0000 0.52188  0.84924  0.89173  Biso   1.000  C
  C46      1.0000 0.52186  0.84915  0.89173  Biso   1.000  C
  H22      1.0000 0.47292  0.72495  0.95684  Biso   1.000  H
  C47      1.0000 0.52179  0.84924  0.89173  Biso   1.000  C
  H23      1.0000 0.59750  0.99950  0.85104  Biso   1.000  H
  H24      1.0000 0.59759  0.99950  0.85104  Biso   1.000  H
  C48      1.0000 0.79748  0.21853  0.77624  Biso   1.000  C
  C49      1.0000 0.79739  0.21853  0.77624  Biso   1.000  C
  H25      1.0000 0.87926  0.16556  0.85938  Biso   1.000  H
  C50      1.0000 0.89602  0.79160  0.34254  Biso   1.000  C
  C51      1.0000 0.89600  0.79151  0.34254  Biso   1.000  C
  C52      1.0000 0.02438  0.86453  0.24983  Biso   1.000  C
  C53      1.0000 0.02430  0.86460  0.24977  Biso   1.000  C
  C54      1.0000 0.02436  0.86451  0.24977  Biso   1.000  C
  C55      1.0000 0.05498  0.00631  0.38024  Biso   1.000  C
  C56      1.0000 0.05487  0.00629  0.38018  Biso   1.000  C
  H26      1.0000 0.46748  0.79803  0.84294  Biso   1.000  H
  H27      1.0000 0.46760  0.79812  0.84294  Biso   1.000  H
  H28      1.0000 0.46757  0.79803  0.84294  Biso   1.000  H
  H29      1.0000 0.46751  0.79812  0.84294  Biso   1.000  H
  O5       1.0000 0.70758  0.26092  0.75633  Biso   1.000  O
  C57      1.0000 0.86728  0.18177  0.71676  Biso   1.000  C
  O6       1.0000 0.70760  0.26094  0.75639  Biso   1.000  O
  H30      1.0000 0.82886  0.72789  0.29927  Biso   1.000  H
  C58      1.0000 0.99690  0.74072  0.37307  Biso   1.000  C
  H31      1.0000 0.85446  0.81527  0.38487  Biso   1.000  H
  H32      1.0000 0.82893  0.72780  0.29927  Biso   1.000  H
  C59      1.0000 0.99683  0.74074  0.37313  Biso   1.000  C
  H33      1.0000 0.85437  0.81520  0.38493  Biso   1.000  H
  C60      1.0000 0.99693  0.74081  0.37307  Biso   1.000  C
  H34      1.0000 0.82895  0.72789  0.29927  Biso   1.000  H
  H35      1.0000 0.82884  0.72780  0.29927  Biso   1.000  H
  H36      1.0000 0.96002  0.79778  0.20679  Biso   1.000  H
  H37      1.0000 0.06116  0.93462  0.22728  Biso   1.000  H
  C61      1.0000 0.13261  0.81821  0.28318  Biso   1.000  C
  H38      1.0000 0.06114  0.93453  0.22728  Biso   1.000  H
  C62      1.0000 0.15776  0.95149  0.41770  Biso   1.000  C
  H39      1.0000 0.01089  0.03389  0.41999  Biso   1.000  H
  H40      1.0000 0.01091  0.03392  0.42004  Biso   1.000  H
  H41      1.0000 0.01080  0.03389  0.41999  Biso   1.000  H
  H42      1.0000 0.09818  0.07796  0.36080  Biso   1.000  H
  H43      1.0000 0.09824  0.07787  0.36080  Biso   1.000  H
  C63      1.0000 0.77249  0.07935  0.64842  Biso   1.000  C
  C64      1.0000 0.93091  0.29232  0.68576  Biso   1.000  C
  C65      1.0000 0.93079  0.29223  0.68576  Biso   1.000  C
  C66      1.0000 0.77252  0.07937  0.64848  Biso   1.000  C
  C67      1.0000 0.97553  0.13547  0.75017  Biso   1.000  C
  H44      1.0000 0.95498  0.66579  0.39069  Biso   1.000  H
  H45      1.0000 0.95497  0.66572  0.39075  Biso   1.000  H
  H46      1.0000 0.95495  0.66570  0.39069  Biso   1.000  H
  C68      1.0000 0.06918  0.70775  0.31418  Biso   1.000  C
  C69      1.0000 0.06912  0.70777  0.31424  Biso   1.000  C
  C70      1.0000 0.06909  0.70775  0.31418  Biso   1.000  C
  C71      1.0000 0.09291  0.83608  0.44277  Biso   1.000  C
  C72      1.0000 0.06921  0.70777  0.31424  Biso   1.000  C
  C73      1.0000 0.09290  0.83601  0.44283  Biso   1.000  C
  C74      1.0000 0.20249  0.78145  0.22370  Biso   1.000  C
  C75      1.0000 0.22748  0.92063  0.35152  Biso   1.000  C
  C76      1.0000 0.22742  0.92072  0.35152  Biso   1.000  C
  H47      1.0000 0.22116  0.01451  0.46379  Biso   1.000  H
  H48      1.0000 0.22107  0.01451  0.46379  Biso   1.000  H
  H49      1.0000 0.93875  0.06544  0.77266  Biso   1.000  H
  C77      1.0000 0.04272  0.09477  0.68787  Biso   1.000  C
  C78      1.0000 0.04281  0.09477  0.68787  Biso   1.000  C
  H50      1.0000 0.03987  0.20220  0.79315  Biso   1.000  H
  H51      1.0000 0.03993  0.20211  0.79315  Biso   1.000  H
  H52      1.0000 0.86369  0.32253  0.66133  Biso   1.000  H
  H53      1.0000 0.86375  0.32244  0.66133  Biso   1.000  H
  H54      1.0000 0.99064  0.35940  0.73015  Biso   1.000  H
  H55      1.0000 0.86369  0.32247  0.66139  Biso   1.000  H
  C79      1.0000 0.00299  0.25926  0.62687  Biso   1.000  C
  H56      1.0000 0.73689  0.00498  0.66726  Biso   1.000  H
  H57      1.0000 0.73677  0.00489  0.66726  Biso   1.000  H
  C80      1.0000 0.84210  0.04839  0.58224  Biso   1.000  C
  H58      1.0000 0.70016  0.10587  0.62716  Biso   1.000  H
  C81      1.0000 0.84201  0.04839  0.58224  Biso   1.000  C
  H59      1.0000 0.00922  0.64048  0.26979  Biso   1.000  H
  H60      1.0000 0.13613  0.67753  0.33861  Biso   1.000  H
  H61      1.0000 0.15881  0.80204  0.46467  Biso   1.000  H
  H62      1.0000 0.15883  0.80206  0.46473  Biso   1.000  H
  H63      1.0000 0.04828  0.85611  0.48422  Biso   1.000  H
  N7       1.0000 0.18143  0.80308  0.15372  Biso   1.000  N
  O7       1.0000 0.29231  0.73906  0.24361  Biso   1.000  O
  N8       1.0000 0.18131  0.80299  0.15372  Biso   1.000  N
  H64      1.0000 0.26320  0.99509  0.33268  Biso   1.000  H
  H65      1.0000 0.26311  0.99509  0.33268  Biso   1.000  H
  H66      1.0000 0.26320  0.99502  0.33274  Biso   1.000  H
  H67      1.0000 0.29978  0.89421  0.37284  Biso   1.000  H
  H68      1.0000 0.26311  0.99502  0.33274  Biso   1.000  H
  H69      1.0000 0.29967  0.89413  0.37284  Biso   1.000  H
  C82      1.0000 0.94504  0.99378  0.61976  Biso   1.000  C
  C83      1.0000 0.94502  0.99369  0.61976  Biso   1.000  C
  C84      1.0000 0.10400  0.20849  0.65746  Biso   1.000  C
  C85      1.0000 0.14823  0.04552  0.71846  Biso   1.000  C
  C86      1.0000 0.14817  0.04561  0.71846  Biso   1.000  C
  C87      1.0000 0.10398  0.20840  0.65746  Biso   1.000  C
  C88      1.0000 0.90710  0.16399  0.55717  Biso   1.000  C
  H70      1.0000 0.04503  0.33428  0.60925  Biso   1.000  H
  H71      1.0000 0.77884  0.98556  0.53615  Biso   1.000  H
  H72      1.0000 0.77882  0.98547  0.53615  Biso   1.000  H
  H73      1.0000 0.12067  0.83453  0.14062  Biso   1.000  H
  H74      1.0000 0.12065  0.83444  0.14062  Biso   1.000  H
  C89      1.0000 0.25715  0.77580  0.09641  Biso   1.000  C
  C90      1.0000 0.25706  0.77580  0.09641  Biso   1.000  C
  H75      1.0000 0.90174  0.92211  0.63914  Biso   1.000  H
  H76      1.0000 0.98909  0.96608  0.57996  Biso   1.000  H
  H77      1.0000 0.90183  0.92211  0.63914  Biso   1.000  H
  H78      1.0000 0.98903  0.96617  0.57996  Biso   1.000  H
  H79      1.0000 0.17105  0.27218  0.70067  Biso   1.000  H
  H80      1.0000 0.14552  0.18471  0.61507  Biso   1.000  H
  H81      1.0000 0.14563  0.18480  0.61507  Biso   1.000  H
  O8       1.0000 0.21964  0.02149  0.67636  Biso   1.000  O
  O9       1.0000 0.21961  0.02141  0.67636  Biso   1.000  O
  N9       1.0000 0.15764  0.02215  0.78904  Biso   1.000  N
  H82      1.0000 0.84120  0.19803  0.53527  Biso   1.000  H
  H83      1.0000 0.84117  0.19794  0.53527  Biso   1.000  H
  H84      1.0000 0.84108  0.19794  0.53527  Biso   1.000  H
  H85      1.0000 0.84111  0.19803  0.53527  Biso   1.000  H
  H86      1.0000 0.95163  0.14389  0.51578  Biso   1.000  H
  C91      1.0000 0.24005  0.83227  0.02818  Biso   1.000  C
  H87      1.0000 0.23123  0.68552  0.07662  Biso   1.000  H
  H88      1.0000 0.34947  0.80658  0.12359  Biso   1.000  H
  C92      1.0000 0.24008  0.83229  0.02824  Biso   1.000  C
  H89      1.0000 0.34953  0.80649  0.12359  Biso   1.000  H
  C93      1.0000 0.24005  0.83220  0.02824  Biso   1.000  C
  C94      1.0000 0.25182  0.96423  0.81704  Biso   1.000  C
  C95      1.0000 0.25180  0.96414  0.81704  Biso   1.000  C
  H90      1.0000 0.10803  0.04117  0.81904  Biso   1.000  H
  C96      1.0000 0.15338  0.76072  0.95755  Biso   1.000  C
  C97      1.0000 0.15326  0.76063  0.95755  Biso   1.000  C
  C98      1.0000 0.31718  0.95307  0.03200  Biso   1.000  C
  C99      1.0000 0.31710  0.95307  0.03200  Biso   1.000  C
  C100     1.0000 0.23766  0.92464  0.89044  Biso   1.000  C
  C101     1.0000 0.23759  0.92473  0.89044  Biso   1.000  C
  H91      1.0000 0.24268  0.89167  0.77536  Biso   1.000  H
  H92      1.0000 0.24274  0.89158  0.77536  Biso   1.000  H
  H93      1.0000 0.33972  0.02313  0.82573  Biso   1.000  H
  C102     1.0000 0.06292  0.64150  0.94927  Biso   1.000  C
  C103     1.0000 0.15144  0.80696  0.88686  Biso   1.000  C
  C104     1.0000 0.06283  0.64150  0.94927  Biso   1.000  C
  C105     1.0000 0.15132  0.80687  0.88686  Biso   1.000  C
  C106     1.0000 0.31535  0.99899  0.96371  Biso   1.000  C
  C107     1.0000 0.31537  0.99902  0.96377  Biso   1.000  C
  C108     1.0000 0.39969  0.03067  0.10281  Biso   1.000  C
  C109     1.0000 0.39975  0.03058  0.10281  Biso   1.000  C
  C110     1.0000 0.06219  0.73082  0.81658  Biso   1.000  C
  C111     1.0000 0.98161  0.57327  0.88216  Biso   1.000  C
  C112     1.0000 0.98170  0.57327  0.88216  Biso   1.000  C
  H94      1.0000 0.06076  0.60944  0.99442  Biso   1.000  H
  H95      1.0000 0.06067  0.60937  0.99448  Biso   1.000  H
  C113     1.0000 0.39758  0.12230  0.96964  Biso   1.000  C
  C114     1.0000 0.39764  0.12221  0.96964  Biso   1.000  C
  C115     1.0000 0.39755  0.12221  0.96964  Biso   1.000  C
  C116     1.0000 0.39767  0.12230  0.96964  Biso   1.000  C
  C117     1.0000 0.47812  0.15083  0.10821  Biso   1.000  C
  H96      1.0000 0.40230  0.00048  0.14890  Biso   1.000  H
  C118     1.0000 0.47803  0.15083  0.10821  Biso   1.000  C
  H97      1.0000 0.40242  0.00057  0.14890  Biso   1.000  H
  C119     1.0000 0.98044  0.61734  0.81417  Biso   1.000  C
  H98      1.0000 0.05916  0.75956  0.76996  Biso   1.000  H
  H99      1.0000 0.05919  0.75965  0.76996  Biso   1.000  H
  H100     1.0000 0.05928  0.75965  0.76996  Biso   1.000  H
  H101     1.0000 0.92428  0.49419  0.88016  Biso   1.000  H
  H102     1.0000 0.39818  0.15370  0.92414  Biso   1.000  H
  H103     1.0000 0.39806  0.15361  0.92414  Biso   1.000  H
  C120     1.0000 0.47433  0.19365  0.04022  Biso   1.000  C
  C121     1.0000 0.47445  0.19374  0.04022  Biso   1.000  C
  H104     1.0000 0.53229  0.20186  0.15700  Biso   1.000  H
  H105     1.0000 0.53232  0.20195  0.15700  Biso   1.000  H
  H106     1.0000 0.92245  0.56776  0.76614  Biso   1.000  H
  H107     1.0000 0.92239  0.56785  0.76614  Biso   1.000  H
  H108     1.0000 0.52717  0.27512  0.04310  Biso   1.000  H
  Ne1      1.0000 0.96877  0.00096  0.01707  Biso   1.000  Ne
  He1      1.0000 0.12784  0.21607  0.96080  Biso   1.000  He
  He2      1.0000 0.85370  0.83636  0.92371  Biso   1.000  He
  Ar1      1.0000 0.00147  0.99980  0.00280  Biso   1.000  Ar
