data_image0
_cell_length_a       17.758
_cell_length_b       17.908
_cell_length_c       18.914
_cell_angle_alpha    88.29
_cell_angle_beta     83.07
_cell_angle_gamma    63.6

_symmetry_space_group_name_H-M    "P 1"
_symmetry_int_tables_number       1

loop_
  _symmetry_equiv_pos_as_xyz
  'x, y, z'

loop_
  _atom_site_label
  _atom_site_occupancy
  _atom_site_fract_x
  _atom_site_fract_y
  _atom_site_fract_z
  _atom_site_thermal_displace_type
  _atom_site_B_iso_or_equiv
  _atom_site_type_symbol
  C1       1.0000 0.45676  0.39611  0.26810  Biso   1.000  C
  N1       1.0000 0.37857  0.42494  0.23699  Biso   1.000  N
  H1       1.0000 0.45335  0.44022  0.29890  Biso   1.000  H
  H2       1.0000 0.46323  0.34885  0.29762  Biso   1.000  H
  N2       1.0000 0.53137  0.37172  0.21605  Biso   1.000  N
  C2       1.0000 0.34360  0.37310  0.20837  Biso   1.000  C
  C3       1.0000 0.33377  0.50750  0.22388  Biso   1.000  C
  C4       1.0000 0.58106  0.28644  0.19010  Biso   1.000  C
  C5       1.0000 0.57657  0.41834  0.20342  Biso   1.000  C
  C6       1.0000 0.32778  0.31799  0.26608  Biso   1.000  C
  C7       1.0000 0.26157  0.44053  0.17758  Biso   1.000  C
  N3       1.0000 0.39445  0.32312  0.14524  Biso   1.000  N
  N4       1.0000 0.26761  0.51828  0.18797  Biso   1.000  N
  O1       1.0000 0.34831  0.56331  0.24418  Biso   1.000  O
  N5       1.0000 0.54769  0.26192  0.13389  Biso   1.000  N
  H3       1.0000 0.59288  0.24714  0.22910  Biso   1.000  H
  C8       1.0000 0.66399  0.28571  0.15110  Biso   1.000  C
  N6       1.0000 0.65099  0.37063  0.16325  Biso   1.000  N
  O2       1.0000 0.55245  0.48967  0.22590  Biso   1.000  O
  H4       1.0000 0.29408  0.35201  0.30710  Biso   1.000  H
  H5       1.0000 0.38096  0.27720  0.27940  Biso   1.000  H
  H6       1.0000 0.29831  0.29018  0.24801  Biso   1.000  H
  C9       1.0000 0.17785  0.44551  0.21312  Biso   1.000  C
  N7       1.0000 0.27706  0.41263  0.10310  Biso   1.000  N
  C10      1.0000 0.35229  0.34522  0.08642  Biso   1.000  C
  C11      1.0000 0.47348  0.24718  0.14492  Biso   1.000  C
  C12      1.0000 0.20809  0.60120  0.16991  Biso   1.000  C
  C13      1.0000 0.59790  0.24571  0.07012  Biso   1.000  C
  N8       1.0000 0.66369  0.26360  0.07811  Biso   1.000  N
  H7       1.0000 0.71417  0.24489  0.17129  Biso   1.000  H
  C14      1.0000 0.71917  0.39521  0.14987  Biso   1.000  C
  H8       1.0000 0.16926  0.46350  0.26192  Biso   1.000  H
  H9       1.0000 0.17896  0.39152  0.21099  Biso   1.000  H
  H10      1.0000 0.13247  0.48464  0.18871  Biso   1.000  H
  C15      1.0000 0.22078  0.45139  0.04870  Biso   1.000  C
  O3       1.0000 0.37732  0.30794  0.02877  Biso   1.000  O
  H11      1.0000 0.47691  0.20960  0.10741  Biso   1.000  H
  H12      1.0000 0.47317  0.22004  0.18989  Biso   1.000  H
  H13      1.0000 0.15138  0.60542  0.17753  Biso   1.000  H
  H14      1.0000 0.21010  0.64159  0.20171  Biso   1.000  H
  N9       1.0000 0.22455  0.62241  0.09702  Biso   1.000  N
  O4       1.0000 0.58658  0.21858  0.01625  Biso   1.000  O
  C16      1.0000 0.73661  0.23773  0.02430  Biso   1.000  C
  H15      1.0000 0.70479  0.44462  0.17880  Biso   1.000  H
  H16      1.0000 0.77036  0.35091  0.16469  Biso   1.000  H
  N10      1.0000 0.73609  0.41258  0.07550  Biso   1.000  N
  H17      1.0000 0.22958  0.40890  0.01369  Biso   1.000  H
  H18      1.0000 0.16267  0.47303  0.07091  Biso   1.000  H
  N11      1.0000 0.23240  0.51809  0.01257  Biso   1.000  N
  C17      1.0000 0.25526  0.67911  0.08003  Biso   1.000  C
  C18      1.0000 0.18958  0.60349  0.03820  Biso   1.000  C
  H19      1.0000 0.78698  0.20231  0.04598  Biso   1.000  H
  H20      1.0000 0.73045  0.20484  0.98759  Biso   1.000  H
  N12      1.0000 0.74776  0.30652  0.99148  Biso   1.000  N
  C19      1.0000 0.78969  0.34793  0.02382  Biso   1.000  C
  C20      1.0000 0.72885  0.49032  0.05562  Biso   1.000  C
  C21      1.0000 0.27102  0.50978  0.94443  Biso   1.000  C
  N13      1.0000 0.25219  0.69352  0.00852  Biso   1.000  N
  O5       1.0000 0.27979  0.71250  0.12100  Biso   1.000  O
  H21      1.0000 0.12838  0.62234  0.04902  Biso   1.000  H
  C22      1.0000 0.21024  0.65217  0.97618  Biso   1.000  C
  C23      1.0000 0.74463  0.32093  0.92003  Biso   1.000  C
  H22      1.0000 0.84108  0.30763  0.04278  Biso   1.000  H
  C24      1.0000 0.81032  0.39655  0.96180  Biso   1.000  C
  O6       1.0000 0.69540  0.55370  0.09255  Biso   1.000  O
  N14      1.0000 0.76755  0.48195  0.98743  Biso   1.000  N
  N15      1.0000 0.26381  0.58746  0.92450  Biso   1.000  N
  O7       1.0000 0.30449  0.44634  0.90745  Biso   1.000  O
  C25      1.0000 0.26332  0.76237  0.97570  Biso   1.000  C
  H23      1.0000 0.15879  0.69247  0.95722  Biso   1.000  H
  N16      1.0000 0.77534  0.37762  0.90303  Biso   1.000  N
  O8       1.0000 0.72016  0.28753  0.87900  Biso   1.000  O
  H24      1.0000 0.87155  0.37776  0.95098  Biso   1.000  H
  C26      1.0000 0.77911  0.54865  0.95130  Biso   1.000  C
  C27      1.0000 0.28072  0.60483  0.85013  Biso   1.000  C
  H25      1.0000 0.26945  0.79519  0.01241  Biso   1.000  H
  H26      1.0000 0.21292  0.79773  0.95402  Biso   1.000  H
  N17      1.0000 0.33621  0.73644  0.92189  Biso   1.000  N
  C28      1.0000 0.79187  0.39884  0.83009  Biso   1.000  C
  H27      1.0000 0.77032  0.59114  0.98631  Biso   1.000  H
  H28      1.0000 0.83720  0.52707  0.92909  Biso   1.000  H
  N18      1.0000 0.72280  0.58746  0.89690  Biso   1.000  N
  H29      1.0000 0.29516  0.55542  0.82120  Biso   1.000  H
  H30      1.0000 0.22954  0.64912  0.83531  Biso   1.000  H
  N19      1.0000 0.34893  0.62947  0.83675  Biso   1.000  N
  C29      1.0000 0.40205  0.75433  0.92988  Biso   1.000  C
  C30      1.0000 0.33596  0.71432  0.84890  Biso   1.000  C
  H31      1.0000 0.84854  0.39468  0.82253  Biso   1.000  H
  H32      1.0000 0.78985  0.35844  0.79829  Biso   1.000  H
  N20      1.0000 0.73235  0.48175  0.81203  Biso   1.000  N
  C31      1.0000 0.73830  0.55957  0.82242  Biso   1.000  C
  C32      1.0000 0.64763  0.65488  0.91363  Biso   1.000  C
  C33      1.0000 0.42335  0.58177  0.79663  Biso   1.000  C
  N21      1.0000 0.45223  0.73818  0.86611  Biso   1.000  N
  O9       1.0000 0.41332  0.78145  0.98375  Biso   1.000  O
  C34      1.0000 0.41881  0.71366  0.80990  Biso   1.000  C
  H33      1.0000 0.28573  0.75515  0.82871  Biso   1.000  H
  C35      1.0000 0.66613  0.49253  0.77612  Biso   1.000  C
  C36      1.0000 0.65636  0.62693  0.79163  Biso   1.000  C
  C37      1.0000 0.82205  0.55453  0.78688  Biso   1.000  C
  N22      1.0000 0.60542  0.67698  0.85476  Biso   1.000  N
  O10      1.0000 0.62258  0.69210  0.97123  Biso   1.000  O
  N23      1.0000 0.46850  0.62837  0.78395  Biso   1.000  N
  O11      1.0000 0.44750  0.51036  0.77410  Biso   1.000  O
  C38      1.0000 0.52641  0.75286  0.85513  Biso   1.000  C
  H34      1.0000 0.40705  0.75296  0.77090  Biso   1.000  H
  N24      1.0000 0.62136  0.57516  0.76301  Biso   1.000  N
  O12      1.0000 0.65158  0.43672  0.75582  Biso   1.000  O
  C39      1.0000 0.67212  0.68204  0.73392  Biso   1.000  C
  H35      1.0000 0.83063  0.53654  0.73813  Biso   1.000  H
  H36      1.0000 0.82093  0.60852  0.78901  Biso   1.000  H
  H37      1.0000 0.86746  0.51546  0.81129  Biso   1.000  H
  C40      1.0000 0.54314  0.60393  0.73190  Biso   1.000  C
  H38      1.0000 0.52304  0.79044  0.89259  Biso   1.000  H
  H39      1.0000 0.52670  0.78006  0.81011  Biso   1.000  H
  H40      1.0000 0.70587  0.64803  0.69290  Biso   1.000  H
  H41      1.0000 0.61893  0.72283  0.72060  Biso   1.000  H
  H42      1.0000 0.70164  0.70985  0.75199  Biso   1.000  H
  H43      1.0000 0.54654  0.55982  0.70110  Biso   1.000  H
  H44      1.0000 0.53663  0.65125  0.70238  Biso   1.000  H
  O13      1.0000 0.41033  0.28514  0.53849  Biso   1.000  O
  C41      1.0000 0.38773  0.26114  0.59433  Biso   1.000  C
  N25      1.0000 0.30848  0.26561  0.61351  Biso   1.000  N
  N26      1.0000 0.43523  0.22793  0.64862  Biso   1.000  N
  C42      1.0000 0.23952  0.30535  0.57062  Biso   1.000  C
  C43      1.0000 0.29728  0.24290  0.68661  Biso   1.000  C
  C44      1.0000 0.38546  0.21785  0.71090  Biso   1.000  C
  C45      1.0000 0.51648  0.22743  0.65048  Biso   1.000  C
  N27      1.0000 0.22869  0.24759  0.52602  Biso   1.000  N
  H45      1.0000 0.24973  0.34555  0.54062  Biso   1.000  H
  H46      1.0000 0.18748  0.33550  0.60179  Biso   1.000  H
  N28      1.0000 0.28689  0.16800  0.69572  Biso   1.000  N
  H47      1.0000 0.25257  0.28962  0.71548  Biso   1.000  H
  H48      1.0000 0.38169  0.25369  0.75060  Biso   1.000  H
  N29      1.0000 0.41115  0.13244  0.73280  Biso   1.000  N
  H49      1.0000 0.52397  0.26305  0.61340  Biso   1.000  H
  H50      1.0000 0.51647  0.25123  0.69588  Biso   1.000  H
  N30      1.0000 0.58768  0.14552  0.64079  Biso   1.000  N
  C46      1.0000 0.26798  0.22570  0.45799  Biso   1.000  C
  C47      1.0000 0.18309  0.19972  0.55011  Biso   1.000  C
  C48      1.0000 0.21445  0.15791  0.67632  Biso   1.000  C
  C49      1.0000 0.35115  0.10581  0.72641  Biso   1.000  C
  C50      1.0000 0.48603  0.08363  0.76690  Biso   1.000  C
  C51      1.0000 0.61847  0.08632  0.69753  Biso   1.000  C
  C52      1.0000 0.63915  0.12054  0.57802  Biso   1.000  C
  N31      1.0000 0.25237  0.16351  0.43311  Biso   1.000  N
  O14      1.0000 0.30895  0.25812  0.42431  Biso   1.000  O
  C53      1.0000 0.19365  0.14613  0.48319  Biso   1.000  C
  H51      1.0000 0.12315  0.23612  0.56572  Biso   1.000  H
  N32      1.0000 0.22070  0.13770  0.60227  Biso   1.000  N
  H52      1.0000 0.16343  0.20935  0.68831  Biso   1.000  H
  H53      1.0000 0.20878  0.11423  0.70462  Biso   1.000  H
  O15      1.0000 0.35374  0.03953  0.74601  Biso   1.000  O
  H54      1.0000 0.47787  0.03994  0.79311  Biso   1.000  H
  H55      1.0000 0.49195  0.11925  0.80121  Biso   1.000  H
  N33      1.0000 0.56423  0.04554  0.71900  Biso   1.000  N
  C54      1.0000 0.70014  0.01232  0.65762  Biso   1.000  C
  C55      1.0000 0.63388  0.12423  0.76130  Biso   1.000  C
  N34      1.0000 0.70471  0.04418  0.58628  Biso   1.000  N
  O16      1.0000 0.62945  0.16060  0.52336  Biso   1.000  O
  C56      1.0000 0.26498  0.14290  0.35830  Biso   1.000  C
  H56      1.0000 0.13958  0.16243  0.46449  Biso   1.000  H
  N35      1.0000 0.22714  0.06212  0.50818  Biso   1.000  N
  C57      1.0000 0.23966  0.05883  0.57829  Biso   1.000  C
  C58      1.0000 0.59980  0.96383  0.69790  Biso   1.000  C
  C59      1.0000 0.78080  0.98859  0.69210  Biso   1.000  C
  N36      1.0000 0.67647  0.94345  0.66013  Biso   1.000  N
  H57      1.0000 0.65465  0.08263  0.79652  Biso   1.000  H
  H58      1.0000 0.58173  0.16955  0.78112  Biso   1.000  H
  H59      1.0000 0.67487  0.14460  0.74681  Biso   1.000  H
  C60      1.0000 0.77380  0.00620  0.53002  Biso   1.000  C
  H60      1.0000 0.21065  0.15482  0.34290  Biso   1.000  H
  H61      1.0000 0.28620  0.17849  0.33230  Biso   1.000  H
  N37      1.0000 0.32338  0.05660  0.33992  Biso   1.000  N
  C61      1.0000 0.22611  0.99385  0.47003  Biso   1.000  C
  O17      1.0000 0.26328  0.99624  0.61415  Biso   1.000  O
  O18      1.0000 0.56806  0.91579  0.71250  Biso   1.000  O
  H62      1.0000 0.79108  0.03664  0.69551  Biso   1.000  H
  H63      1.0000 0.77450  0.96823  0.73893  Biso   1.000  H
  H64      1.0000 0.82778  0.94574  0.66359  Biso   1.000  H
  C62      1.0000 0.73488  0.85715  0.64169  Biso   1.000  C
  N38      1.0000 0.77269  0.93798  0.49182  Biso   1.000  N
  H65      1.0000 0.77218  0.04860  0.49629  Biso   1.000  H
  H66      1.0000 0.82671  0.98595  0.55043  Biso   1.000  H
  C63      1.0000 0.40006  0.03621  0.30209  Biso   1.000  C
  C64      1.0000 0.29971  0.98773  0.34242  Biso   1.000  C
  N39      1.0000 0.29521  0.95586  0.41371  Biso   1.000  N
  H67      1.0000 0.17320  0.01409  0.44962  Biso   1.000  H
  H68      1.0000 0.22768  0.95145  0.50370  Biso   1.000  H
  N40      1.0000 0.74749  0.83654  0.56689  Biso   1.000  N
  H69      1.0000 0.78919  0.84529  0.65709  Biso   1.000  H
  H70      1.0000 0.71371  0.82155  0.66769  Biso   1.000  H
  C65      1.0000 0.76018  0.94127  0.42170  Biso   1.000  C
  C66      1.0000 0.80619  0.85398  0.51681  Biso   1.000  C
  O19      1.0000 0.43178  0.08432  0.28749  Biso   1.000  O
  N41      1.0000 0.43561  0.95457  0.28099  Biso   1.000  N
  C67      1.0000 0.21909  0.01152  0.30790  Biso   1.000  C
  C68      1.0000 0.38144  0.91372  0.30252  Biso   1.000  C
  C69      1.0000 0.36068  0.87956  0.42202  Biso   1.000  C
  C70      1.0000 0.73189  0.77435  0.54201  Biso   1.000  C
  N42      1.0000 0.77922  0.86234  0.39773  Biso   1.000  N
  O20      1.0000 0.73658  0.00380  0.38585  Biso   1.000  O
  C71      1.0000 0.81683  0.80033  0.44989  Biso   1.000  C
  H71      1.0000 0.86031  0.83767  0.53551  Biso   1.000  H
  C72      1.0000 0.51380  0.91647  0.23310  Biso   1.000  C
  H72      1.0000 0.22541  0.03181  0.26112  Biso   1.000  H
  H73      1.0000 0.17208  0.05431  0.33640  Biso   1.000  H
  H74      1.0000 0.20881  0.96347  0.30449  Biso   1.000  H
  C73      1.0000 0.36601  0.87588  0.23869  Biso   1.000  C
  N43      1.0000 0.41224  0.85453  0.35921  Biso   1.000  N
  O21      1.0000 0.37041  0.83944  0.47663  Biso   1.000  O
  N44      1.0000 0.77122  0.75246  0.47402  Biso   1.000  N
  O22      1.0000 0.69091  0.74193  0.57568  Biso   1.000  O
  C74      1.0000 0.78541  0.84213  0.32372  Biso   1.000  C
  H75      1.0000 0.87671  0.76393  0.43428  Biso   1.000  H
  H76      1.0000 0.52202  0.96016  0.20688  Biso   1.000  H
  H77      1.0000 0.50794  0.88086  0.19878  Biso   1.000  H
  N45      1.0000 0.58869  0.86767  0.26719  Biso   1.000  N
  H78      1.0000 0.34517  0.91748  0.20353  Biso   1.000  H
  H79      1.0000 0.41810  0.83056  0.21892  Biso   1.000  H
  H80      1.0000 0.32499  0.85545  0.25318  Biso   1.000  H
  C75      1.0000 0.48344  0.77262  0.34951  Biso   1.000  C
  C76      1.0000 0.76031  0.69476  0.42938  Biso   1.000  C
  N46      1.0000 0.71303  0.83205  0.30428  Biso   1.000  N
  H81      1.0000 0.83640  0.79076  0.31168  Biso   1.000  H
  H82      1.0000 0.79114  0.88582  0.29538  Biso   1.000  H
  C77      1.0000 0.61443  0.78226  0.28909  Biso   1.000  C
  C78      1.0000 0.64871  0.89424  0.27359  Biso   1.000  C
  H83      1.0000 0.47592  0.73706  0.38659  Biso   1.000  H
  H84      1.0000 0.48342  0.74888  0.30412  Biso   1.000  H
  N47      1.0000 0.56460  0.77218  0.35138  Biso   1.000  N
  N48      1.0000 0.69144  0.73444  0.38649  Biso   1.000  N
  H85      1.0000 0.75009  0.65456  0.45943  Biso   1.000  H
  H86      1.0000 0.81244  0.66455  0.39821  Biso   1.000  H
  C79      1.0000 0.70264  0.75715  0.31339  Biso   1.000  C
  H87      1.0000 0.61823  0.74635  0.24940  Biso   1.000  H
  O23      1.0000 0.64612  0.96052  0.25398  Biso   1.000  O
  C80      1.0000 0.61209  0.73897  0.40572  Biso   1.000  C
  H88      1.0000 0.74735  0.71042  0.28451  Biso   1.000  H
  O24      1.0000 0.58949  0.71497  0.46156  Biso   1.000  O
