data_image0
_cell_length_a       13.974
_cell_length_b       16.894
_cell_length_c       26.483
_cell_angle_alpha    89.87
_cell_angle_beta     81.08
_cell_angle_gamma    85.43

_symmetry_space_group_name_H-M    "P 1"
_symmetry_int_tables_number       1

loop_
  _symmetry_equiv_pos_as_xyz
  'x, y, z'

loop_
  _atom_site_label
  _atom_site_occupancy
  _atom_site_fract_x
  _atom_site_fract_y
  _atom_site_fract_z
  _atom_site_thermal_displace_type
  _atom_site_B_iso_or_equiv
  _atom_site_type_symbol
  C1       1.0000 0.25092  0.41424  0.55964  Biso   1.000  C
  C2       1.0000 0.23537  0.33212  0.56740  Biso   1.000  C
  O1       1.0000 0.23840  0.45842  0.60796  Biso   1.000  O
  H1       1.0000 0.31752  0.41882  0.54118  Biso   1.000  H
  H2       1.0000 0.20447  0.43795  0.53801  Biso   1.000  H
  O2       1.0000 0.29871  0.29173  0.59641  Biso   1.000  O
  H3       1.0000 0.24235  0.30546  0.53361  Biso   1.000  H
  H4       1.0000 0.16777  0.32794  0.58449  Biso   1.000  H
  C3       1.0000 0.14249  0.49175  0.62413  Biso   1.000  C
  C4       1.0000 0.38266  0.25305  0.57279  Biso   1.000  C
  C5       1.0000 0.32877  0.21671  0.58789  Biso   1.000  C
  C6       1.0000 0.13277  0.52313  0.67787  Biso   1.000  C
  H5       1.0000 0.12677  0.53533  0.60100  Biso   1.000  H
  H6       1.0000 0.09615  0.45075  0.62260  Biso   1.000  H
  H7       1.0000 0.37046  0.22991  0.54030  Biso   1.000  H
  H8       1.0000 0.43150  0.29234  0.56419  Biso   1.000  H
  C7       1.0000 0.42668  0.18533  0.60471  Biso   1.000  C
  C8       1.0000 0.43229  0.22416  0.59699  Biso   1.000  C
  H9       1.0000 0.46695  0.24813  0.56591  Biso   1.000  H
  H10      1.0000 0.29364  0.18106  0.61270  Biso   1.000  H
  H11      1.0000 0.32548  0.19953  0.55261  Biso   1.000  H
  O3       1.0000 0.19269  0.58780  0.67825  Biso   1.000  O
  H12      1.0000 0.15320  0.48056  0.70069  Biso   1.000  H
  H13      1.0000 0.06412  0.54132  0.69048  Biso   1.000  H
  O4       1.0000 0.43735  0.20686  0.65509  Biso   1.000  O
  H14      1.0000 0.49131  0.16592  0.58621  Biso   1.000  H
  H15      1.0000 0.38460  0.14065  0.60670  Biso   1.000  H
  H16      1.0000 0.46286  0.16956  0.59901  Biso   1.000  H
  O5       1.0000 0.45320  0.26893  0.64121  Biso   1.000  O
  C9       1.0000 0.19328  0.62191  0.72473  Biso   1.000  C
  C10      1.0000 0.50844  0.26134  0.65711  Biso   1.000  C
  C11      1.0000 0.51465  0.22163  0.66919  Biso   1.000  C
  H17      1.0000 0.49028  0.16891  0.67760  Biso   1.000  H
  H18      1.0000 0.49169  0.31196  0.64030  Biso   1.000  H
  C12      1.0000 0.25453  0.68446  0.72569  Biso   1.000  C
  C13      1.0000 0.13887  0.60013  0.77041  Biso   1.000  C
  H19      1.0000 0.57346  0.23893  0.64068  Biso   1.000  H
  C14      1.0000 0.50498  0.27324  0.71464  Biso   1.000  C
  H20      1.0000 0.58247  0.21481  0.65130  Biso   1.000  H
  O6       1.0000 0.30485  0.70415  0.67948  Biso   1.000  O
  C15      1.0000 0.25818  0.72313  0.77144  Biso   1.000  C
  C16      1.0000 0.14266  0.63934  0.81601  Biso   1.000  C
  H21      1.0000 0.09839  0.55756  0.77041  Biso   1.000  H
  O7       1.0000 0.56596  0.33758  0.71667  Biso   1.000  O
  H22      1.0000 0.53129  0.22486  0.73058  Biso   1.000  H
  H23      1.0000 0.43790  0.28783  0.73188  Biso   1.000  H
  C17      1.0000 0.36005  0.77245  0.68039  Biso   1.000  C
  H24      1.0000 0.29944  0.76512  0.77190  Biso   1.000  H
  C18      1.0000 0.20169  0.70082  0.81708  Biso   1.000  C
  H25      1.0000 0.10446  0.62362  0.84671  Biso   1.000  H
  C19      1.0000 0.56741  0.36673  0.76475  Biso   1.000  C
  H26      1.0000 0.31732  0.81801  0.69641  Biso   1.000  H
  H27      1.0000 0.41282  0.76084  0.70088  Biso   1.000  H
  C20      1.0000 0.40233  0.79274  0.62703  Biso   1.000  C
  C21      1.0000 0.19930  0.74913  0.86418  Biso   1.000  C
  C22      1.0000 0.62797  0.42876  0.76701  Biso   1.000  C
  C23      1.0000 0.51560  0.33935  0.80906  Biso   1.000  C
  O8       1.0000 0.46914  0.73259  0.60471  Biso   1.000  O
  H28      1.0000 0.43471  0.84263  0.62761  Biso   1.000  H
  H29      1.0000 0.34939  0.80150  0.60631  Biso   1.000  H
  O9       1.0000 0.28502  0.72529  0.88860  Biso   1.000  O
  H30      1.0000 0.13930  0.74126  0.88830  Biso   1.000  H
  H31      1.0000 0.19904  0.80611  0.85538  Biso   1.000  H
  O10      1.0000 0.67745  0.45357  0.72152  Biso   1.000  O
  C24      1.0000 0.63470  0.46105  0.81414  Biso   1.000  C
  C25      1.0000 0.52355  0.37316  0.85542  Biso   1.000  C
  H32      1.0000 0.47470  0.29735  0.80760  Biso   1.000  H
  C26      1.0000 0.53324  0.75791  0.56140  Biso   1.000  C
  C27      1.0000 0.29553  0.77416  0.92595  Biso   1.000  C
  C28      1.0000 0.75128  0.50553  0.72527  Biso   1.000  C
  H33      1.0000 0.67586  0.50276  0.81601  Biso   1.000  H
  C29      1.0000 0.58266  0.43385  0.85867  Biso   1.000  C
  H34      1.0000 0.48755  0.35405  0.88581  Biso   1.000  H
  H35      1.0000 0.54290  0.71651  0.53430  Biso   1.000  H
  H36      1.0000 0.50400  0.80710  0.54760  Biso   1.000  H
  C30      1.0000 0.62992  0.77329  0.57658  Biso   1.000  C
  O11      1.0000 0.24060  0.83069  0.94043  Biso   1.000  O
  C31      1.0000 0.38418  0.75234  0.95018  Biso   1.000  C
  C32      1.0000 0.80539  0.52372  0.67397  Biso   1.000  C
  H37      1.0000 0.72149  0.55563  0.74228  Biso   1.000  H
  H38      1.0000 0.79742  0.48075  0.74660  Biso   1.000  H
  C33      1.0000 0.59574  0.46505  0.90936  Biso   1.000  C
  O12      1.0000 0.67902  0.69820  0.58533  Biso   1.000  O
  H39      1.0000 0.61985  0.80651  0.60800  Biso   1.000  H
  H40      1.0000 0.66907  0.80171  0.54898  Biso   1.000  H
  N1       1.0000 0.42967  0.68034  0.94124  Biso   1.000  N
  C34      1.0000 0.41221  0.80796  0.98244  Biso   1.000  C
  O13      1.0000 0.75674  0.59122  0.65425  Biso   1.000  O
  H41      1.0000 0.80789  0.47774  0.65058  Biso   1.000  H
  H42      1.0000 0.87278  0.53475  0.67699  Biso   1.000  H
  O14      1.0000 0.54373  0.54433  0.91670  Biso   1.000  O
  H43      1.0000 0.66564  0.46858  0.91070  Biso   1.000  H
  H44      1.0000 0.56934  0.42915  0.93669  Biso   1.000  H
  C35      1.0000 0.76913  0.70410  0.60161  Biso   1.000  C
  C36      1.0000 0.50480  0.66228  0.96643  Biso   1.000  C
  H45      1.0000 0.37742  0.85875  0.98749  Biso   1.000  H
  C37      1.0000 0.49045  0.78905  0.00683  Biso   1.000  C
  C38      1.0000 0.81349  0.62492  0.61151  Biso   1.000  C
  C39      1.0000 0.55561  0.58005  0.95978  Biso   1.000  C
  H46      1.0000 0.81289  0.73063  0.57501  Biso   1.000  H
  H47      1.0000 0.75991  0.73690  0.63319  Biso   1.000  H
  C40      1.0000 0.53748  0.71416  0.99918  Biso   1.000  C
  H48      1.0000 0.51167  0.82656  0.02850  Biso   1.000  H
  H49      1.0000 0.88052  0.62913  0.61851  Biso   1.000  H
  H50      1.0000 0.81691  0.59035  0.58101  Biso   1.000  H
  O15      1.0000 0.60247  0.55162  0.99081  Biso   1.000  O
  H51      1.0000 0.59116  0.69840  0.01600  Biso   1.000  H
  C41      1.0000 0.74911  0.58580  0.44038  Biso   1.000  C
  C42      1.0000 0.76461  0.66792  0.43258  Biso   1.000  C
  O16      1.0000 0.76164  0.54162  0.39203  Biso   1.000  O
  H52      1.0000 0.68253  0.58122  0.45881  Biso   1.000  H
  H53      1.0000 0.79550  0.56209  0.46198  Biso   1.000  H
  O17      1.0000 0.70133  0.70831  0.40357  Biso   1.000  O
  H54      1.0000 0.75760  0.69464  0.46641  Biso   1.000  H
  H55      1.0000 0.83220  0.67210  0.41550  Biso   1.000  H
  C43      1.0000 0.85755  0.50829  0.37586  Biso   1.000  C
  C44      1.0000 0.61731  0.74699  0.42720  Biso   1.000  C
  C45      1.0000 0.67127  0.78332  0.41210  Biso   1.000  C
  C46      1.0000 0.86721  0.47691  0.32212  Biso   1.000  C
  H56      1.0000 0.87320  0.46471  0.39899  Biso   1.000  H
  H57      1.0000 0.90382  0.54929  0.37739  Biso   1.000  H
  C47      1.0000 0.57335  0.81471  0.39532  Biso   1.000  C
  C48      1.0000 0.56775  0.77588  0.40300  Biso   1.000  C
  H58      1.0000 0.53301  0.75191  0.43411  Biso   1.000  H
  H59      1.0000 0.62951  0.77013  0.45969  Biso   1.000  H
  H60      1.0000 0.56855  0.70769  0.43580  Biso   1.000  H
  H61      1.0000 0.70633  0.81897  0.38729  Biso   1.000  H
  H62      1.0000 0.67455  0.80051  0.44742  Biso   1.000  H
  O18      1.0000 0.80728  0.41224  0.32173  Biso   1.000  O
  H63      1.0000 0.84684  0.51948  0.29930  Biso   1.000  H
  H64      1.0000 0.93593  0.45872  0.30950  Biso   1.000  H
  O19      1.0000 0.56262  0.79318  0.34490  Biso   1.000  O
  H65      1.0000 0.50873  0.83412  0.41382  Biso   1.000  H
  H66      1.0000 0.61544  0.85939  0.39329  Biso   1.000  H
  H67      1.0000 0.53717  0.83048  0.40101  Biso   1.000  H
  O20      1.0000 0.54684  0.73111  0.35881  Biso   1.000  O
  C49      1.0000 0.80669  0.37813  0.27525  Biso   1.000  C
  C50      1.0000 0.49152  0.73870  0.34291  Biso   1.000  C
  C51      1.0000 0.48532  0.77841  0.33079  Biso   1.000  C
  H68      1.0000 0.50976  0.83112  0.32238  Biso   1.000  H
  H69      1.0000 0.50835  0.68813  0.35969  Biso   1.000  H
  C52      1.0000 0.74552  0.31558  0.27430  Biso   1.000  C
  C53      1.0000 0.86110  0.39990  0.22958  Biso   1.000  C
  C54      1.0000 0.49506  0.72680  0.28534  Biso   1.000  C
  H70      1.0000 0.42651  0.76111  0.35931  Biso   1.000  H
  H71      1.0000 0.41758  0.78523  0.34868  Biso   1.000  H
  O21      1.0000 0.69512  0.29589  0.32051  Biso   1.000  O
  C55      1.0000 0.74179  0.27691  0.22854  Biso   1.000  C
  C56      1.0000 0.85730  0.36070  0.18401  Biso   1.000  C
  H72      1.0000 0.90164  0.44248  0.22961  Biso   1.000  H
  O22      1.0000 0.43408  0.66245  0.28332  Biso   1.000  O
  H73      1.0000 0.46875  0.77518  0.26941  Biso   1.000  H
  H74      1.0000 0.56214  0.71221  0.26811  Biso   1.000  H
  C57      1.0000 0.64000  0.22759  0.31959  Biso   1.000  C
  H75      1.0000 0.70060  0.23492  0.22808  Biso   1.000  H
  C58      1.0000 0.79834  0.29922  0.18294  Biso   1.000  C
  H76      1.0000 0.89550  0.37642  0.15332  Biso   1.000  H
  C59      1.0000 0.43263  0.63330  0.23523  Biso   1.000  C
  C60      1.0000 0.59772  0.20730  0.37295  Biso   1.000  C
  H77      1.0000 0.68271  0.18202  0.30362  Biso   1.000  H
  H78      1.0000 0.58722  0.23920  0.29911  Biso   1.000  H
  C61      1.0000 0.80074  0.25091  0.13581  Biso   1.000  C
  C62      1.0000 0.37206  0.57127  0.23302  Biso   1.000  C
  C63      1.0000 0.48445  0.66069  0.19093  Biso   1.000  C
  O23      1.0000 0.53090  0.26745  0.39528  Biso   1.000  O
  H79      1.0000 0.56526  0.15741  0.37238  Biso   1.000  H
  H80      1.0000 0.65057  0.19854  0.39371  Biso   1.000  H
  O24      1.0000 0.71494  0.27475  0.11142  Biso   1.000  O
  H81      1.0000 0.86074  0.25878  0.11169  Biso   1.000  H
  H82      1.0000 0.80100  0.19392  0.14460  Biso   1.000  H
  O25      1.0000 0.32252  0.54646  0.27846  Biso   1.000  O
  C64      1.0000 0.36535  0.53899  0.18585  Biso   1.000  C
  C65      1.0000 0.47641  0.62687  0.14460  Biso   1.000  C
  H83      1.0000 0.52534  0.70269  0.19238  Biso   1.000  H
  C66      1.0000 0.46680  0.24213  0.43859  Biso   1.000  C
  C67      1.0000 0.70452  0.22588  0.07404  Biso   1.000  C
  C68      1.0000 0.24868  0.49451  0.27476  Biso   1.000  C
  H84      1.0000 0.32410  0.49728  0.18401  Biso   1.000  H
  C69      1.0000 0.41732  0.56619  0.14132  Biso   1.000  C
  H85      1.0000 0.51241  0.64599  0.11421  Biso   1.000  H
  C70      1.0000 0.37012  0.22674  0.42341  Biso   1.000  C
  H86      1.0000 0.45707  0.28353  0.46569  Biso   1.000  H
  H87      1.0000 0.49597  0.19294  0.45239  Biso   1.000  H
  C71      1.0000 0.61579  0.24770  0.04981  Biso   1.000  C
  O26      1.0000 0.75943  0.16935  0.05959  Biso   1.000  O
  C72      1.0000 0.19464  0.47632  0.32605  Biso   1.000  C
  H88      1.0000 0.27849  0.44441  0.25771  Biso   1.000  H
  H89      1.0000 0.20263  0.51928  0.25339  Biso   1.000  H
  C73      1.0000 0.40422  0.53498  0.09067  Biso   1.000  C
  O27      1.0000 0.32102  0.30184  0.41466  Biso   1.000  O
  H90      1.0000 0.38020  0.19353  0.39199  Biso   1.000  H
  H91      1.0000 0.33098  0.19832  0.45101  Biso   1.000  H
  N2       1.0000 0.57030  0.31969  0.05875  Biso   1.000  N
  C74      1.0000 0.58783  0.19208  0.01754  Biso   1.000  C
  O28      1.0000 0.24331  0.40882  0.34574  Biso   1.000  O
  H92      1.0000 0.19208  0.52230  0.34941  Biso   1.000  H
  H93      1.0000 0.12719  0.46529  0.32300  Biso   1.000  H
  O29      1.0000 0.45624  0.45571  0.08329  Biso   1.000  O
  H94      1.0000 0.33433  0.53152  0.08929  Biso   1.000  H
  H95      1.0000 0.43063  0.57089  0.06330  Biso   1.000  H
  C75      1.0000 0.23090  0.29594  0.39841  Biso   1.000  C
  C76      1.0000 0.49524  0.33782  0.03356  Biso   1.000  C
  C77      1.0000 0.50960  0.21099  0.99316  Biso   1.000  C
  H96      1.0000 0.62262  0.14129  0.01250  Biso   1.000  H
  C78      1.0000 0.18647  0.37512  0.38851  Biso   1.000  C
  C79      1.0000 0.44444  0.41999  0.04021  Biso   1.000  C
  H97      1.0000 0.18707  0.26941  0.42502  Biso   1.000  H
  H98      1.0000 0.24006  0.26314  0.36680  Biso   1.000  H
  C80      1.0000 0.46257  0.28587  0.00080  Biso   1.000  C
  H99      1.0000 0.48837  0.17348  0.97152  Biso   1.000  H
  H100     1.0000 0.11953  0.37091  0.38148  Biso   1.000  H
  H101     1.0000 0.18312  0.40969  0.41902  Biso   1.000  H
  O30      1.0000 0.39750  0.44848  0.00917  Biso   1.000  O
  H102     1.0000 0.40887  0.30164  0.98402  Biso   1.000  H
  C81      1.0000 0.92788  0.29362  0.65547  Biso   1.000  C
  C82      1.0000 0.87738  0.28146  0.70834  Biso   1.000  C
  H103     1.0000 0.95318  0.34686  0.65371  Biso   1.000  H
  H104     1.0000 0.87986  0.29294  0.63158  Biso   1.000  H
  O31      1.0000 0.00599  0.23593  0.63896  Biso   1.000  O
  O32      1.0000 0.81788  0.21638  0.70883  Biso   1.000  O
  H105     1.0000 0.83649  0.33023  0.72068  Biso   1.000  H
  H106     1.0000 0.92588  0.27042  0.73150  Biso   1.000  H
  C83      1.0000 0.97958  0.17086  0.61354  Biso   1.000  C
  C84      1.0000 0.76483  0.20026  0.75535  Biso   1.000  C
  H107     1.0000 0.94697  0.13427  0.63861  Biso   1.000  H
  H108     1.0000 0.93367  0.18896  0.59018  Biso   1.000  H
  C85      1.0000 0.06957  0.12834  0.58349  Biso   1.000  C
  C86      1.0000 0.69966  0.14058  0.75512  Biso   1.000  C
  C87      1.0000 0.77029  0.23856  0.80042  Biso   1.000  C
  O33      1.0000 0.12302  0.08589  0.61740  Biso   1.000  O
  H109     1.0000 0.11008  0.16735  0.56438  Biso   1.000  H
  H110     1.0000 0.05087  0.09125  0.55850  Biso   1.000  H
  O34      1.0000 0.69538  0.10853  0.70811  Biso   1.000  O
  C88      1.0000 0.64386  0.12093  0.80046  Biso   1.000  C
  H111     1.0000 0.81376  0.27894  0.80049  Biso   1.000  H
  C89      1.0000 0.71337  0.21945  0.84602  Biso   1.000  C
  C90      1.0000 0.20905  0.04462  0.59145  Biso   1.000  C
  C91      1.0000 0.64016  0.04082  0.70707  Biso   1.000  C
  C92      1.0000 0.65109  0.16066  0.84564  Biso   1.000  C
  H112     1.0000 0.60036  0.08038  0.80080  Biso   1.000  H
  C93      1.0000 0.71665  0.26728  0.89246  Biso   1.000  C
  C94      1.0000 0.25924  0.99892  0.63020  Biso   1.000  C
  H113     1.0000 0.19276  0.00775  0.56568  Biso   1.000  H
  H114     1.0000 0.25259  0.08282  0.57371  Biso   1.000  H
  C95      1.0000 0.64025  0.02006  0.65245  Biso   1.000  C
  H115     1.0000 0.57289  0.05357  0.72458  Biso   1.000  H
  H116     1.0000 0.66992  0.99574  0.72481  Biso   1.000  H
  H117     1.0000 0.61227  0.14678  0.87660  Biso   1.000  H
  O35      1.0000 0.80342  0.24282  0.91521  Biso   1.000  O
  H118     1.0000 0.65787  0.26044  0.91769  Biso   1.000  H
  H119     1.0000 0.71710  0.32415  0.88348  Biso   1.000  H
  H120     1.0000 0.31394  0.96325  0.61258  Biso   1.000  H
  H121     1.0000 0.21302  0.96606  0.65119  Biso   1.000  H
  O36      1.0000 0.29478  0.05460  0.66220  Biso   1.000  O
  H122     1.0000 0.61228  0.06586  0.63472  Biso   1.000  H
  O37      1.0000 0.73796  0.99914  0.62902  Biso   1.000  O
  H123     1.0000 0.60037  0.97471  0.65008  Biso   1.000  H
  C96      1.0000 0.81634  0.28988  0.95396  Biso   1.000  C
  C97      1.0000 0.35959  0.02007  0.69408  Biso   1.000  C
  C98      1.0000 0.74863  0.98470  0.57623  Biso   1.000  C
  O38      1.0000 0.76036  0.34553  0.96987  Biso   1.000  O
  C99      1.0000 0.90665  0.26707  0.97606  Biso   1.000  C
  C100     1.0000 0.31088  0.00583  0.74736  Biso   1.000  C
  H124     1.0000 0.38977  0.96882  0.67879  Biso   1.000  H
  H125     1.0000 0.41215  0.05554  0.69549  Biso   1.000  H
  H126     1.0000 0.71774  0.03016  0.55930  Biso   1.000  H
  H127     1.0000 0.71658  0.93656  0.56958  Biso   1.000  H
  C101     1.0000 0.85397  0.97363  0.55551  Biso   1.000  C
  N3       1.0000 0.95492  0.19657  0.96398  Biso   1.000  N
  C102     1.0000 0.93338  0.32069  0.00973  Biso   1.000  C
  O39      1.0000 0.23908  0.95126  0.74365  Biso   1.000  O
  H128     1.0000 0.35891  0.98313  0.76839  Biso   1.000  H
  H129     1.0000 0.27996  0.05627  0.76349  Biso   1.000  H
  H130     1.0000 0.88750  0.01851  0.56648  Biso   1.000  H
  O40      1.0000 0.89417  0.90235  0.57310  Biso   1.000  O
  H131     1.0000 0.86295  0.97273  0.51771  Biso   1.000  H
  C103     1.0000 0.03134  0.17753  0.98802  Biso   1.000  C
  H132     1.0000 0.89745  0.37068  0.01627  Biso   1.000  H
  C104     1.0000 0.01293  0.30088  0.03359  Biso   1.000  C
  C105     1.0000 0.17416  0.93936  0.78681  Biso   1.000  C
  C106     1.0000 0.99600  0.89085  0.55957  Biso   1.000  C
  C107     1.0000 0.08532  0.09876  0.97843  Biso   1.000  C
  C108     1.0000 0.06297  0.22720  0.02311  Biso   1.000  C
  H133     1.0000 0.03281  0.33688  0.05667  Biso   1.000  H
  C109     1.0000 0.09962  0.89133  0.77981  Biso   1.000  C
  C110     1.0000 0.17814  0.96958  0.83471  Biso   1.000  C
  H134     1.0000 0.01315  0.88183  0.52218  Biso   1.000  H
  H135     1.0000 0.02623  0.93886  0.56859  Biso   1.000  H
  C111     1.0000 0.03376  0.82081  0.58724  Biso   1.000  C
  O41      1.0000 0.06477  0.06000  0.93810  Biso   1.000  O
  O42      1.0000 0.14259  0.07206  0.00564  Biso   1.000  O
  H136     1.0000 0.11728  0.21101  0.03940  Biso   1.000  H
  O43      1.0000 0.10287  0.86270  0.73116  Biso   1.000  O
  C112     1.0000 0.03090  0.87513  0.82148  Biso   1.000  C
  C113     1.0000 0.10882  0.95303  0.87683  Biso   1.000  C
  H137     1.0000 0.22858  0.00213  0.83918  Biso   1.000  H
  H138     1.0000 0.99703  0.77441  0.58231  Biso   1.000  H
  O44      1.0000 0.02273  0.84059  0.63999  Biso   1.000  O
  H139     1.0000 0.10312  0.80693  0.57371  Biso   1.000  H
  C114     1.0000 0.11950  0.98176  0.92847  Biso   1.000  C
  C115     1.0000 0.03614  0.80477  0.72492  Biso   1.000  C
  H140     1.0000 0.98042  0.84246  0.81720  Biso   1.000  H
  C116     1.0000 0.03571  0.90647  0.86960  Biso   1.000  C
  C117     1.0000 0.05472  0.77783  0.67053  Biso   1.000  C
  H141     1.0000 0.18903  0.98636  0.93050  Biso   1.000  H
  H142     1.0000 0.09415  0.94364  0.95469  Biso   1.000  H
  H143     1.0000 0.96841  0.82825  0.73391  Biso   1.000  H
  H144     1.0000 0.04559  0.75905  0.74771  Biso   1.000  H
  H145     1.0000 0.98783  0.89546  0.89781  Biso   1.000  H
  H146     1.0000 0.01921  0.73044  0.66640  Biso   1.000  H
  H147     1.0000 0.12503  0.76341  0.65979  Biso   1.000  H
  C118     1.0000 0.07216  0.70642  0.34452  Biso   1.000  C
  C119     1.0000 0.12267  0.71858  0.29165  Biso   1.000  C
  H148     1.0000 0.04685  0.65318  0.34631  Biso   1.000  H
  H149     1.0000 0.12011  0.70710  0.36841  Biso   1.000  H
  O45      1.0000 0.99406  0.76410  0.36103  Biso   1.000  O
  O46      1.0000 0.18208  0.78372  0.29119  Biso   1.000  O
  H150     1.0000 0.16355  0.66981  0.27931  Biso   1.000  H
  H151     1.0000 0.07417  0.72962  0.26849  Biso   1.000  H
  C120     1.0000 0.02047  0.82917  0.38645  Biso   1.000  C
  C121     1.0000 0.23513  0.79978  0.24467  Biso   1.000  C
  H152     1.0000 0.05307  0.86577  0.36141  Biso   1.000  H
  H153     1.0000 0.06637  0.81108  0.40980  Biso   1.000  H
  C122     1.0000 0.93046  0.87170  0.41653  Biso   1.000  C
  C123     1.0000 0.30039  0.85946  0.24487  Biso   1.000  C
  C124     1.0000 0.22975  0.76148  0.19957  Biso   1.000  C
  O47      1.0000 0.87695  0.91415  0.38259  Biso   1.000  O
  H154     1.0000 0.88997  0.83269  0.43560  Biso   1.000  H
  H155     1.0000 0.94918  0.90879  0.44149  Biso   1.000  H
  O48      1.0000 0.30460  0.89151  0.29188  Biso   1.000  O
  C125     1.0000 0.35618  0.87911  0.19953  Biso   1.000  C
  H156     1.0000 0.18622  0.72110  0.19949  Biso   1.000  H
  C126     1.0000 0.28668  0.78058  0.15397  Biso   1.000  C
  C127     1.0000 0.79092  0.95542  0.40854  Biso   1.000  C
  C128     1.0000 0.35989  0.95922  0.29291  Biso   1.000  C
  C129     1.0000 0.34896  0.83938  0.15435  Biso   1.000  C
  H157     1.0000 0.39968  0.91966  0.19919  Biso   1.000  H
  C130     1.0000 0.28339  0.73281  0.10753  Biso   1.000  C
  H158     1.0000 0.80728  0.99229  0.43431  Biso   1.000  H
  H159     1.0000 0.74744  0.91722  0.42632  Biso   1.000  H
  C131     1.0000 0.74080  0.00112  0.36978  Biso   1.000  C
  H160     1.0000 0.42716  0.94647  0.27541  Biso   1.000  H
  C132     1.0000 0.35972  0.97998  0.34754  Biso   1.000  C
  H161     1.0000 0.33004  0.00430  0.27522  Biso   1.000  H
  H162     1.0000 0.38778  0.85325  0.12339  Biso   1.000  H
  O49      1.0000 0.19662  0.75721  0.08478  Biso   1.000  O
  H163     1.0000 0.34217  0.73960  0.08230  Biso   1.000  H
  H164     1.0000 0.28294  0.67589  0.11651  Biso   1.000  H
  O50      1.0000 0.70525  0.94544  0.33783  Biso   1.000  O
  H165     1.0000 0.68610  0.03679  0.38740  Biso   1.000  H
  H166     1.0000 0.78695  0.03404  0.34880  Biso   1.000  H
  H167     1.0000 0.38775  0.93418  0.36531  Biso   1.000  H
  O51      1.0000 0.26209  0.00090  0.37097  Biso   1.000  O
  H168     1.0000 0.39967  0.02532  0.34991  Biso   1.000  H
  C133     1.0000 0.18363  0.71016  0.04602  Biso   1.000  C
  C134     1.0000 0.64046  0.97997  0.30591  Biso   1.000  C
  C135     1.0000 0.25134  0.01534  0.42376  Biso   1.000  C
  O52      1.0000 0.23968  0.65451  0.03012  Biso   1.000  O
  C136     1.0000 0.09340  0.73297  0.02393  Biso   1.000  C
  H169     1.0000 0.58783  0.94450  0.30450  Biso   1.000  H
  C137     1.0000 0.68916  0.99420  0.25262  Biso   1.000  C
  H170     1.0000 0.61027  0.03122  0.32120  Biso   1.000  H
  H171     1.0000 0.28223  0.96988  0.44069  Biso   1.000  H
  H172     1.0000 0.28346  0.06354  0.43041  Biso   1.000  H
  C138     1.0000 0.14606  0.02641  0.44451  Biso   1.000  C
  N4       1.0000 0.04505  0.80353  0.03601  Biso   1.000  N
  C139     1.0000 0.06659  0.67935  0.99025  Biso   1.000  C
  H173     1.0000 0.72009  0.94377  0.23649  Biso   1.000  H
  O53      1.0000 0.76089  0.04878  0.25633  Biso   1.000  O
  H174     1.0000 0.64106  0.01691  0.23160  Biso   1.000  H
  H175     1.0000 0.11254  0.98152  0.43350  Biso   1.000  H
  O54      1.0000 0.10587  0.09769  0.42689  Biso   1.000  O
  H176     1.0000 0.13709  0.02731  0.48231  Biso   1.000  H
  C140     1.0000 0.96871  0.82250  0.01196  Biso   1.000  C
  C141     1.0000 0.98711  0.69916  0.96640  Biso   1.000  C
  H177     1.0000 0.10260  0.62936  0.98372  Biso   1.000  H
  C142     1.0000 0.82588  0.06068  0.21318  Biso   1.000  C
  C143     1.0000 0.00397  0.10919  0.44042  Biso   1.000  C
  C144     1.0000 0.93700  0.77284  0.97687  Biso   1.000  C
  C145     1.0000 0.91465  0.90128  0.02156  Biso   1.000  C
  H178     1.0000 0.96723  0.66316  0.94331  Biso   1.000  H
  C146     1.0000 0.90042  0.10871  0.22017  Biso   1.000  C
  C147     1.0000 0.82189  0.03052  0.16528  Biso   1.000  C
  H179     1.0000 0.98689  0.11821  0.47780  Biso   1.000  H
  H180     1.0000 0.97374  0.06124  0.43140  Biso   1.000  H
  C148     1.0000 0.96628  0.17923  0.41275  Biso   1.000  C
  H181     1.0000 0.88276  0.78903  0.96059  Biso   1.000  H
  O55      1.0000 0.85746  0.92798  0.99434  Biso   1.000  O
  O56      1.0000 0.93526  0.94004  0.06192  Biso   1.000  O
  O57      1.0000 0.89711  0.13733  0.26883  Biso   1.000  O
  C149     1.0000 0.96907  0.12491  0.17851  Biso   1.000  C
  C150     1.0000 0.89122  0.04701  0.12316  Biso   1.000  C
  H182     1.0000 0.77146  0.99791  0.16081  Biso   1.000  H
  O58      1.0000 0.97732  0.15945  0.36000  Biso   1.000  O
  H183     1.0000 0.89691  0.19310  0.42632  Biso   1.000  H
  H184     1.0000 0.00300  0.22563  0.41772  Biso   1.000  H
  C151     1.0000 0.88047  0.01828  0.07152  Biso   1.000  C
  C152     1.0000 0.96390  0.19527  0.27506  Biso   1.000  C
  C153     1.0000 0.96433  0.09356  0.13038  Biso   1.000  C
  H185     1.0000 0.01962  0.15758  0.18279  Biso   1.000  H
  C154     1.0000 0.94533  0.22220  0.32946  Biso   1.000  C
  H186     1.0000 0.81102  0.01368  0.06949  Biso   1.000  H
  H187     1.0000 0.90590  0.05640  0.04530  Biso   1.000  H
  H188     1.0000 0.95439  0.24099  0.25228  Biso   1.000  H
  H189     1.0000 0.03156  0.17179  0.26608  Biso   1.000  H
  H190     1.0000 0.01220  0.10458  0.10221  Biso   1.000  H
  H191     1.0000 0.98084  0.26960  0.33358  Biso   1.000  H
  H192     1.0000 0.87502  0.23663  0.34020  Biso   1.000  H
  Ne1      1.0000 0.55713  0.46367  0.25896  Biso   1.000  Ne
  He1      1.0000 0.50206  0.40035  0.28067  Biso   1.000  He
  He2      1.0000 0.74966  0.60915  0.21108  Biso   1.000  He
  He3      1.0000 0.50185  0.43261  0.32376  Biso   1.000  He
  Ar1      1.0000 0.56714  0.45752  0.26044  Biso   1.000  Ar
  Ne2      1.0000 0.03276  0.92556  0.23084  Biso   1.000  Ne
  He4      1.0000 0.98322  0.86605  0.20769  Biso   1.000  He
  He5      1.0000 0.17043  0.95608  0.09920  Biso   1.000  He
  Ar2      1.0000 0.99403  0.88143  0.21936  Biso   1.000  Ar
  Ne3      1.0000 0.44288  0.53637  0.74104  Biso   1.000  Ne
  He6      1.0000 0.36175  0.45451  0.71691  Biso   1.000  He
  He7      1.0000 0.38749  0.53442  0.79873  Biso   1.000  He
  He8      1.0000 0.43119  0.51502  0.69957  Biso   1.000  He
  Ar3      1.0000 0.38838  0.47517  0.70090  Biso   1.000  Ar
  Ne4      1.0000 0.96725  0.07448  0.76915  Biso   1.000  Ne
  He9      1.0000 0.00000  0.00000  0.00000  Biso   1.000  He
  He10     1.0000 0.04051  0.17831  0.81868  Biso   1.000  He
  Ar4      1.0000 0.07386  0.17983  0.80138  Biso   1.000  Ar
