data_image0
_cell_length_a       26.841
_cell_length_b       14.967
_cell_length_c       22.022
_cell_angle_alpha    90
_cell_angle_beta     90
_cell_angle_gamma    90

_symmetry_space_group_name_H-M    "P 1"
_symmetry_int_tables_number       1

loop_
  _symmetry_equiv_pos_as_xyz
  'x, y, z'

loop_
  _atom_site_label
  _atom_site_occupancy
  _atom_site_fract_x
  _atom_site_fract_y
  _atom_site_fract_z
  _atom_site_thermal_displace_type
  _atom_site_B_iso_or_equiv
  _atom_site_type_symbol
  C1       1.0000 0.63403  0.29979  0.40809  Biso   1.000  C
  C2       1.0000 0.59003  0.25509  0.41118  Biso   1.000  C
  H1       1.0000 0.63492  0.36253  0.41091  Biso   1.000  H
  C3       1.0000 0.67755  0.25182  0.40078  Biso   1.000  C
  C4       1.0000 0.54197  0.30467  0.41640  Biso   1.000  C
  C5       1.0000 0.58951  0.16289  0.41032  Biso   1.000  C
  N1       1.0000 0.67639  0.16189  0.39760  Biso   1.000  N
  H2       1.0000 0.70821  0.28202  0.39810  Biso   1.000  H
  N2       1.0000 0.50002  0.25797  0.41200  Biso   1.000  N
  N3       1.0000 0.54435  0.39353  0.42240  Biso   1.000  N
  C6       1.0000 0.63381  0.11813  0.40328  Biso   1.000  C
  H3       1.0000 0.55941  0.13129  0.41431  Biso   1.000  H
  C7       1.0000 0.72266  0.11171  0.38139  Biso   1.000  C
  C8       1.0000 0.45803  0.30467  0.41640  Biso   1.000  C
  C9       1.0000 0.50002  0.43429  0.42280  Biso   1.000  C
  H4       1.0000 0.63392  0.05532  0.40269  Biso   1.000  H
  H5       1.0000 0.72121  0.05111  0.39810  Biso   1.000  H
  H6       1.0000 0.75191  0.14191  0.39842  Biso   1.000  H
  C10      1.0000 0.72650  0.10810  0.31341  Biso   1.000  C
  C11      1.0000 0.40997  0.25509  0.41118  Biso   1.000  C
  N4       1.0000 0.45568  0.39353  0.42240  Biso   1.000  N
  C12      1.0000 0.50002  0.53357  0.42031  Biso   1.000  C
  C13      1.0000 0.75012  0.17619  0.28099  Biso   1.000  C
  C14      1.0000 0.70463  0.03962  0.28108  Biso   1.000  C
  C15      1.0000 0.36601  0.29979  0.40809  Biso   1.000  C
  C16      1.0000 0.41049  0.16289  0.41032  Biso   1.000  C
  C17      1.0000 0.54409  0.58001  0.41699  Biso   1.000  C
  C18      1.0000 0.45591  0.58001  0.41699  Biso   1.000  C
  H7       1.0000 0.76622  0.22249  0.30211  Biso   1.000  H
  C19      1.0000 0.75012  0.17619  0.21901  Biso   1.000  C
  C20      1.0000 0.70463  0.03962  0.21892  Biso   1.000  C
  H8       1.0000 0.68950  0.99212  0.30211  Biso   1.000  H
  C21      1.0000 0.32249  0.25182  0.40078  Biso   1.000  C
  H9       1.0000 0.36511  0.36253  0.41091  Biso   1.000  H
  C22      1.0000 0.36619  0.11813  0.40328  Biso   1.000  C
  H10      1.0000 0.44059  0.13129  0.41431  Biso   1.000  H
  C23      1.0000 0.54312  0.67068  0.40700  Biso   1.000  C
  H11      1.0000 0.57472  0.55001  0.42140  Biso   1.000  H
  C24      1.0000 0.45691  0.67068  0.40700  Biso   1.000  C
  H12      1.0000 0.42532  0.55001  0.42140  Biso   1.000  H
  C25      1.0000 0.72650  0.10810  0.18659  Biso   1.000  C
  H13      1.0000 0.76622  0.22249  0.19789  Biso   1.000  H
  H14      1.0000 0.68950  0.99212  0.19789  Biso   1.000  H
  N5       1.0000 0.32365  0.16189  0.39760  Biso   1.000  N
  H15      1.0000 0.29179  0.28202  0.39810  Biso   1.000  H
  H16      1.0000 0.36612  0.05532  0.40269  Biso   1.000  H
  N6       1.0000 0.50002  0.71310  0.40069  Biso   1.000  N
  H17      1.0000 0.57312  0.70288  0.40460  Biso   1.000  H
  H18      1.0000 0.42692  0.70288  0.40460  Biso   1.000  H
  C26      1.0000 0.72266  0.11171  0.11861  Biso   1.000  C
  C27      1.0000 0.27737  0.11171  0.38139  Biso   1.000  C
  C28      1.0000 0.50002  0.80998  0.38121  Biso   1.000  C
  N7       1.0000 0.67639  0.16189  0.10240  Biso   1.000  N
  H19      1.0000 0.72121  0.05111  0.10190  Biso   1.000  H
  H20      1.0000 0.75191  0.14191  0.10158  Biso   1.000  H
  C29      1.0000 0.27350  0.10810  0.31341  Biso   1.000  C
  H21      1.0000 0.27879  0.05111  0.39810  Biso   1.000  H
  H22      1.0000 0.24809  0.14191  0.39842  Biso   1.000  H
  C30      1.0000 0.50002  0.81573  0.31400  Biso   1.000  C
  H23      1.0000 0.47040  0.83998  0.39742  Biso   1.000  H
  H24      1.0000 0.52960  0.83998  0.39742  Biso   1.000  H
  C31      1.0000 0.67755  0.25182  0.09922  Biso   1.000  C
  C32      1.0000 0.63381  0.11813  0.09672  Biso   1.000  C
  C33      1.0000 0.24992  0.17619  0.28099  Biso   1.000  C
  C34      1.0000 0.29537  0.03962  0.28108  Biso   1.000  C
  C35      1.0000 0.45580  0.81579  0.28122  Biso   1.000  C
  C36      1.0000 0.54420  0.81579  0.28122  Biso   1.000  C
  C37      1.0000 0.63403  0.29979  0.09191  Biso   1.000  C
  H25      1.0000 0.70821  0.28202  0.10190  Biso   1.000  H
  C38      1.0000 0.58951  0.16289  0.08968  Biso   1.000  C
  H26      1.0000 0.63392  0.05532  0.09731  Biso   1.000  H
  H27      1.0000 0.23382  0.22249  0.30211  Biso   1.000  H
  C39      1.0000 0.24992  0.17619  0.21901  Biso   1.000  C
  C40      1.0000 0.29537  0.03962  0.21892  Biso   1.000  C
  H28      1.0000 0.31050  0.99212  0.30211  Biso   1.000  H
  H29      1.0000 0.42521  0.81593  0.30211  Biso   1.000  H
  C41      1.0000 0.45580  0.81579  0.21878  Biso   1.000  C
  H30      1.0000 0.57479  0.81593  0.30211  Biso   1.000  H
  C42      1.0000 0.54420  0.81579  0.21878  Biso   1.000  C
  C43      1.0000 0.59003  0.25509  0.08882  Biso   1.000  C
  H31      1.0000 0.63492  0.36253  0.08909  Biso   1.000  H
  H32      1.0000 0.55941  0.13129  0.08569  Biso   1.000  H
  C44      1.0000 0.27350  0.10810  0.18659  Biso   1.000  C
  H33      1.0000 0.23382  0.22249  0.19789  Biso   1.000  H
  H34      1.0000 0.31050  0.99212  0.19789  Biso   1.000  H
  C45      1.0000 0.50002  0.81573  0.18600  Biso   1.000  C
  H35      1.0000 0.42521  0.81593  0.19789  Biso   1.000  H
  H36      1.0000 0.57479  0.81593  0.19789  Biso   1.000  H
  C46      1.0000 0.54197  0.30467  0.08360  Biso   1.000  C
  C47      1.0000 0.27737  0.11171  0.11861  Biso   1.000  C
  C48      1.0000 0.50002  0.80998  0.11879  Biso   1.000  C
  N8       1.0000 0.50002  0.25797  0.08800  Biso   1.000  N
  N9       1.0000 0.54435  0.39353  0.07760  Biso   1.000  N
  N10      1.0000 0.32365  0.16189  0.10240  Biso   1.000  N
  H37      1.0000 0.27879  0.05111  0.10190  Biso   1.000  H
  H38      1.0000 0.24809  0.14191  0.10158  Biso   1.000  H
  N11      1.0000 0.50002  0.71310  0.09931  Biso   1.000  N
  H39      1.0000 0.47040  0.83998  0.10258  Biso   1.000  H
  H40      1.0000 0.52960  0.83998  0.10258  Biso   1.000  H
  C49      1.0000 0.45803  0.30467  0.08360  Biso   1.000  C
  C50      1.0000 0.50002  0.43429  0.07720  Biso   1.000  C
  C51      1.0000 0.32249  0.25182  0.09922  Biso   1.000  C
  C52      1.0000 0.36619  0.11813  0.09672  Biso   1.000  C
  C53      1.0000 0.54312  0.67068  0.09300  Biso   1.000  C
  C54      1.0000 0.45691  0.67068  0.09300  Biso   1.000  C
  C55      1.0000 0.40997  0.25509  0.08882  Biso   1.000  C
  N12      1.0000 0.45568  0.39353  0.07760  Biso   1.000  N
  C56      1.0000 0.50002  0.53357  0.07969  Biso   1.000  C
  C57      1.0000 0.36601  0.29979  0.09191  Biso   1.000  C
  H41      1.0000 0.29179  0.28202  0.10190  Biso   1.000  H
  H42      1.0000 0.36612  0.05532  0.09731  Biso   1.000  H
  C58      1.0000 0.41049  0.16289  0.08968  Biso   1.000  C
  C59      1.0000 0.54409  0.58001  0.08301  Biso   1.000  C
  H43      1.0000 0.57312  0.70288  0.09540  Biso   1.000  H
  C60      1.0000 0.45591  0.58001  0.08301  Biso   1.000  C
  H44      1.0000 0.42692  0.70288  0.09540  Biso   1.000  H
  H45      1.0000 0.36511  0.36253  0.08909  Biso   1.000  H
  H46      1.0000 0.44059  0.13129  0.08569  Biso   1.000  H
  H47      1.0000 0.57472  0.55001  0.07860  Biso   1.000  H
  H48      1.0000 0.42532  0.55001  0.07860  Biso   1.000  H
  C61      1.0000 0.54409  0.41999  0.58301  Biso   1.000  C
  C62      1.0000 0.54312  0.32932  0.59300  Biso   1.000  C
  C63      1.0000 0.50002  0.46643  0.57969  Biso   1.000  C
  H49      1.0000 0.57472  0.44999  0.57860  Biso   1.000  H
  N13      1.0000 0.50002  0.28690  0.59931  Biso   1.000  N
  H50      1.0000 0.57312  0.29712  0.59540  Biso   1.000  H
  C64      1.0000 0.45591  0.41999  0.58301  Biso   1.000  C
  C65      1.0000 0.50002  0.56571  0.57720  Biso   1.000  C
  C66      1.0000 0.45691  0.32932  0.59300  Biso   1.000  C
  C67      1.0000 0.50002  0.19002  0.61879  Biso   1.000  C
  H51      1.0000 0.42532  0.44999  0.57860  Biso   1.000  H
  N14      1.0000 0.45568  0.60647  0.57760  Biso   1.000  N
  N15      1.0000 0.54435  0.60647  0.57760  Biso   1.000  N
  H52      1.0000 0.42692  0.29712  0.59540  Biso   1.000  H
  C68      1.0000 0.50002  0.18427  0.68600  Biso   1.000  C
  H53      1.0000 0.52960  0.16002  0.60258  Biso   1.000  H
  H54      1.0000 0.47040  0.16002  0.60258  Biso   1.000  H
  C69      1.0000 0.45803  0.69533  0.58360  Biso   1.000  C
  C70      1.0000 0.54197  0.69533  0.58360  Biso   1.000  C
  C71      1.0000 0.54420  0.18421  0.71878  Biso   1.000  C
  C72      1.0000 0.45580  0.18421  0.71878  Biso   1.000  C
  N16      1.0000 0.50002  0.74203  0.58800  Biso   1.000  N
  C73      1.0000 0.40997  0.74491  0.58877  Biso   1.000  C
  C74      1.0000 0.59003  0.74491  0.58877  Biso   1.000  C
  C75      1.0000 0.54420  0.18421  0.78122  Biso   1.000  C
  H55      1.0000 0.57479  0.18407  0.69789  Biso   1.000  H
  C76      1.0000 0.45580  0.18421  0.78122  Biso   1.000  C
  H56      1.0000 0.42521  0.18407  0.69789  Biso   1.000  H
  C77      1.0000 0.36601  0.70021  0.59191  Biso   1.000  C
  C78      1.0000 0.41049  0.83711  0.58968  Biso   1.000  C
  C79      1.0000 0.63403  0.70021  0.59191  Biso   1.000  C
  C80      1.0000 0.58951  0.83711  0.58968  Biso   1.000  C
  H57      1.0000 0.57479  0.18407  0.80211  Biso   1.000  H
  C81      1.0000 0.50002  0.18427  0.81400  Biso   1.000  C
  H58      1.0000 0.42521  0.18407  0.80211  Biso   1.000  H
  H59      1.0000 0.36511  0.63747  0.58909  Biso   1.000  H
  C82      1.0000 0.32249  0.74818  0.59922  Biso   1.000  C
  C83      1.0000 0.36619  0.88187  0.59668  Biso   1.000  C
  H60      1.0000 0.44059  0.86871  0.58569  Biso   1.000  H
  H61      1.0000 0.63492  0.63747  0.58909  Biso   1.000  H
  C84      1.0000 0.67755  0.74818  0.59922  Biso   1.000  C
  C85      1.0000 0.63381  0.88187  0.59668  Biso   1.000  C
  H62      1.0000 0.55941  0.86871  0.58569  Biso   1.000  H
  C86      1.0000 0.50002  0.19002  0.88121  Biso   1.000  C
  N17      1.0000 0.32365  0.83811  0.60240  Biso   1.000  N
  H63      1.0000 0.29179  0.71798  0.60190  Biso   1.000  H
  H64      1.0000 0.36612  0.94468  0.59731  Biso   1.000  H
  N18      1.0000 0.67639  0.83811  0.60240  Biso   1.000  N
  H65      1.0000 0.70821  0.71798  0.60190  Biso   1.000  H
  H66      1.0000 0.63392  0.94468  0.59731  Biso   1.000  H
  N19      1.0000 0.50002  0.28690  0.90069  Biso   1.000  N
  H67      1.0000 0.52960  0.16002  0.89738  Biso   1.000  H
  H68      1.0000 0.47040  0.16002  0.89738  Biso   1.000  H
  C87      1.0000 0.27737  0.88829  0.61861  Biso   1.000  C
  C88      1.0000 0.72266  0.88829  0.61861  Biso   1.000  C
  C89      1.0000 0.45691  0.32932  0.90700  Biso   1.000  C
  C90      1.0000 0.54312  0.32932  0.90700  Biso   1.000  C
  H69      1.0000 0.27879  0.94889  0.60190  Biso   1.000  H
  H70      1.0000 0.24809  0.85809  0.60158  Biso   1.000  H
  C91      1.0000 0.27350  0.89190  0.68659  Biso   1.000  C
  H71      1.0000 0.72121  0.94889  0.60190  Biso   1.000  H
  H72      1.0000 0.75191  0.85809  0.60158  Biso   1.000  H
  C92      1.0000 0.72650  0.89190  0.68659  Biso   1.000  C
  H73      1.0000 0.42692  0.29712  0.90460  Biso   1.000  H
  C93      1.0000 0.45591  0.41999  0.91699  Biso   1.000  C
  H74      1.0000 0.57312  0.29712  0.90460  Biso   1.000  H
  C94      1.0000 0.54409  0.41999  0.91699  Biso   1.000  C
  C95      1.0000 0.24992  0.82381  0.71901  Biso   1.000  C
  C96      1.0000 0.29537  0.96038  0.71892  Biso   1.000  C
  C97      1.0000 0.75012  0.82381  0.71901  Biso   1.000  C
  C98      1.0000 0.70463  0.96038  0.71892  Biso   1.000  C
  H75      1.0000 0.42532  0.44999  0.92140  Biso   1.000  H
  C99      1.0000 0.50002  0.46643  0.92031  Biso   1.000  C
  H76      1.0000 0.57472  0.44999  0.92140  Biso   1.000  H
  C100     1.0000 0.24992  0.82381  0.78099  Biso   1.000  C
  H77      1.0000 0.23382  0.77751  0.69789  Biso   1.000  H
  C101     1.0000 0.29537  0.96038  0.78108  Biso   1.000  C
  H78      1.0000 0.31050  0.00788  0.69789  Biso   1.000  H
  C102     1.0000 0.75012  0.82381  0.78099  Biso   1.000  C
  H79      1.0000 0.76622  0.77751  0.69789  Biso   1.000  H
  C103     1.0000 0.70463  0.96038  0.78108  Biso   1.000  C
  H80      1.0000 0.68950  0.00788  0.69789  Biso   1.000  H
  C104     1.0000 0.50002  0.56571  0.92280  Biso   1.000  C
  C105     1.0000 0.27350  0.89190  0.81341  Biso   1.000  C
  H81      1.0000 0.23382  0.77751  0.80211  Biso   1.000  H
  H82      1.0000 0.31050  0.00788  0.80211  Biso   1.000  H
  C106     1.0000 0.72650  0.89190  0.81341  Biso   1.000  C
  H83      1.0000 0.76622  0.77751  0.80211  Biso   1.000  H
  H84      1.0000 0.68950  0.00788  0.80211  Biso   1.000  H
  N20      1.0000 0.45568  0.60647  0.92240  Biso   1.000  N
  N21      1.0000 0.54435  0.60647  0.92240  Biso   1.000  N
  C107     1.0000 0.27737  0.88829  0.88139  Biso   1.000  C
  C108     1.0000 0.72266  0.88829  0.88139  Biso   1.000  C
  C109     1.0000 0.45803  0.69533  0.91640  Biso   1.000  C
  C110     1.0000 0.54197  0.69533  0.91640  Biso   1.000  C
  N22      1.0000 0.32365  0.83811  0.89760  Biso   1.000  N
  H85      1.0000 0.27879  0.94889  0.89810  Biso   1.000  H
  H86      1.0000 0.24809  0.85809  0.89837  Biso   1.000  H
  N23      1.0000 0.67639  0.83811  0.89760  Biso   1.000  N
  H87      1.0000 0.72121  0.94889  0.89810  Biso   1.000  H
  H88      1.0000 0.75191  0.85809  0.89837  Biso   1.000  H
  N24      1.0000 0.50002  0.74203  0.91200  Biso   1.000  N
  C111     1.0000 0.40997  0.74491  0.91118  Biso   1.000  C
  C112     1.0000 0.59003  0.74491  0.91118  Biso   1.000  C
  C113     1.0000 0.32249  0.74818  0.90078  Biso   1.000  C
  C114     1.0000 0.36619  0.88187  0.90328  Biso   1.000  C
  C115     1.0000 0.67755  0.74818  0.90078  Biso   1.000  C
  C116     1.0000 0.63381  0.88187  0.90328  Biso   1.000  C
  C117     1.0000 0.36601  0.70021  0.90809  Biso   1.000  C
  C118     1.0000 0.41049  0.83711  0.91032  Biso   1.000  C
  C119     1.0000 0.63403  0.70021  0.90809  Biso   1.000  C
  C120     1.0000 0.58951  0.83711  0.91032  Biso   1.000  C
  H89      1.0000 0.29179  0.71798  0.89810  Biso   1.000  H
  H90      1.0000 0.36612  0.94468  0.90269  Biso   1.000  H
  H91      1.0000 0.70821  0.71798  0.89810  Biso   1.000  H
  H92      1.0000 0.63392  0.94468  0.90269  Biso   1.000  H
  H93      1.0000 0.36511  0.63747  0.91091  Biso   1.000  H
  H94      1.0000 0.44059  0.86871  0.91431  Biso   1.000  H
  H95      1.0000 0.63492  0.63747  0.91091  Biso   1.000  H
  H96      1.0000 0.55941  0.86871  0.91431  Biso   1.000  H
  C121     1.0000 0.77739  0.61168  0.38139  Biso   1.000  C
  C122     1.0000 0.77356  0.60807  0.31341  Biso   1.000  C
  C123     1.0000 0.77352  0.60807  0.31341  Biso   1.000  C
  N25      1.0000 0.82363  0.66192  0.39760  Biso   1.000  N
  H97      1.0000 0.77885  0.55108  0.39810  Biso   1.000  H
  H98      1.0000 0.74815  0.64188  0.39842  Biso   1.000  H
  N26      1.0000 0.82367  0.66192  0.39760  Biso   1.000  N
  H99      1.0000 0.77881  0.55108  0.39810  Biso   1.000  H
  H100     1.0000 0.74811  0.64188  0.39842  Biso   1.000  H
  C124     1.0000 0.79539  0.53959  0.28108  Biso   1.000  C
  C125     1.0000 0.74993  0.67622  0.28099  Biso   1.000  C
  C126     1.0000 0.74990  0.67622  0.28099  Biso   1.000  C
  C127     1.0000 0.82251  0.75179  0.40078  Biso   1.000  C
  C128     1.0000 0.86625  0.61809  0.40328  Biso   1.000  C
  C129     1.0000 0.82247  0.75179  0.40078  Biso   1.000  C
  C130     1.0000 0.86621  0.61809  0.40328  Biso   1.000  C
  H101     1.0000 0.81051  0.49208  0.30211  Biso   1.000  H
  C131     1.0000 0.79539  0.53959  0.21892  Biso   1.000  C
  C132     1.0000 0.74993  0.67622  0.21901  Biso   1.000  C
  C133     1.0000 0.74990  0.67622  0.21901  Biso   1.000  C
  H102     1.0000 0.73380  0.72252  0.30211  Biso   1.000  H
  C134     1.0000 0.86603  0.79983  0.40809  Biso   1.000  C
  H103     1.0000 0.79185  0.78199  0.39810  Biso   1.000  H
  H104     1.0000 0.79181  0.78199  0.39810  Biso   1.000  H
  C135     1.0000 0.91051  0.66293  0.41032  Biso   1.000  C
  H105     1.0000 0.86614  0.55529  0.40269  Biso   1.000  H
  H106     1.0000 0.86610  0.55529  0.40269  Biso   1.000  H
  H107     1.0000 0.81051  0.49208  0.19789  Biso   1.000  H
  C136     1.0000 0.77356  0.60807  0.18659  Biso   1.000  C
  C137     1.0000 0.77352  0.60807  0.18659  Biso   1.000  C
  H108     1.0000 0.73380  0.72252  0.19789  Biso   1.000  H
  C138     1.0000 0.90999  0.75513  0.41118  Biso   1.000  C
  H109     1.0000 0.86513  0.86250  0.41091  Biso   1.000  H
  H110     1.0000 0.94065  0.63132  0.41431  Biso   1.000  H
  H111     1.0000 0.94061  0.63132  0.41431  Biso   1.000  H
  C139     1.0000 0.77739  0.61168  0.11861  Biso   1.000  C
  C140     1.0000 0.95805  0.80470  0.41640  Biso   1.000  C
  N27      1.0000 0.82363  0.66192  0.10240  Biso   1.000  N
  H112     1.0000 0.77885  0.55108  0.10190  Biso   1.000  H
  H113     1.0000 0.74815  0.64188  0.10158  Biso   1.000  H
  N28      1.0000 0.82367  0.66192  0.10240  Biso   1.000  N
  H114     1.0000 0.77881  0.55108  0.10190  Biso   1.000  H
  H115     1.0000 0.74811  0.64188  0.10158  Biso   1.000  H
  N29      1.0000 0.95570  0.89350  0.42240  Biso   1.000  N
  N30      1.0000 0.00000  0.75800  0.41200  Biso   1.000  N
  N31      1.0000 0.95566  0.89350  0.42240  Biso   1.000  N
  C141     1.0000 0.82251  0.75179  0.09922  Biso   1.000  C
  C142     1.0000 0.86625  0.61809  0.09672  Biso   1.000  C
  C143     1.0000 0.82247  0.75179  0.09922  Biso   1.000  C
  C144     1.0000 0.86621  0.61809  0.09672  Biso   1.000  C
  C145     1.0000 0.00000  0.93432  0.42280  Biso   1.000  C
  C146     1.0000 0.04199  0.80470  0.41640  Biso   1.000  C
  C147     1.0000 0.86603  0.79983  0.09191  Biso   1.000  C
  H116     1.0000 0.79185  0.78199  0.10190  Biso   1.000  H
  H117     1.0000 0.79181  0.78199  0.10190  Biso   1.000  H
  C148     1.0000 0.91051  0.66293  0.08968  Biso   1.000  C
  H118     1.0000 0.86614  0.55529  0.09731  Biso   1.000  H
  H119     1.0000 0.86610  0.55529  0.09731  Biso   1.000  H
  C149     1.0000 0.00000  0.03361  0.42031  Biso   1.000  C
  N32      1.0000 0.04434  0.89350  0.42240  Biso   1.000  N
  N33      1.0000 0.04437  0.89350  0.42240  Biso   1.000  N
  C150     1.0000 0.09005  0.75513  0.41118  Biso   1.000  C
  C151     1.0000 0.90999  0.75513  0.08882  Biso   1.000  C
  H120     1.0000 0.86513  0.86250  0.08909  Biso   1.000  H
  H121     1.0000 0.94065  0.63132  0.08569  Biso   1.000  H
  H122     1.0000 0.94061  0.63132  0.08569  Biso   1.000  H
  C152     1.0000 0.95589  0.07998  0.41699  Biso   1.000  C
  C153     1.0000 0.95593  0.07998  0.41699  Biso   1.000  C
  C154     1.0000 0.04407  0.07998  0.41699  Biso   1.000  C
  C155     1.0000 0.13401  0.79983  0.40809  Biso   1.000  C
  C156     1.0000 0.08953  0.66293  0.41032  Biso   1.000  C
  C157     1.0000 0.95805  0.80470  0.08360  Biso   1.000  C
  H123     1.0000 0.92534  0.04998  0.42140  Biso   1.000  H
  C158     1.0000 0.95693  0.17071  0.40700  Biso   1.000  C
  H124     1.0000 0.92530  0.04998  0.42140  Biso   1.000  H
  C159     1.0000 0.04311  0.17071  0.40700  Biso   1.000  C
  H125     1.0000 0.07470  0.04998  0.42140  Biso   1.000  H
  H126     1.0000 0.07474  0.04998  0.42140  Biso   1.000  H
  H127     1.0000 0.13491  0.86250  0.41091  Biso   1.000  H
  C160     1.0000 0.17756  0.75179  0.40078  Biso   1.000  C
  C161     1.0000 0.13379  0.61809  0.40328  Biso   1.000  C
  H128     1.0000 0.05939  0.63132  0.41431  Biso   1.000  H
  C162     1.0000 0.13383  0.61809  0.40328  Biso   1.000  C
  H129     1.0000 0.05942  0.63132  0.41431  Biso   1.000  H
  N34      1.0000 0.95570  0.89350  0.07760  Biso   1.000  N
  N35      1.0000 0.00000  0.75800  0.08800  Biso   1.000  N
  N36      1.0000 0.95566  0.89350  0.07760  Biso   1.000  N
  N37      1.0000 0.00000  0.21307  0.40069  Biso   1.000  N
  H130     1.0000 0.92690  0.20291  0.40460  Biso   1.000  H
  H131     1.0000 0.07310  0.20291  0.40460  Biso   1.000  H
  N38      1.0000 0.17633  0.66192  0.39760  Biso   1.000  N
  H132     1.0000 0.20823  0.78199  0.39810  Biso   1.000  H
  H133     1.0000 0.13390  0.55529  0.40269  Biso   1.000  H
  H134     1.0000 0.13394  0.55529  0.40269  Biso   1.000  H
  C163     1.0000 0.00000  0.93432  0.07720  Biso   1.000  C
  C164     1.0000 0.04199  0.80470  0.08360  Biso   1.000  C
  C165     1.0000 0.00000  0.31002  0.38121  Biso   1.000  C
  C166     1.0000 0.22264  0.61168  0.38139  Biso   1.000  C
  C167     1.0000 0.00000  0.03361  0.07969  Biso   1.000  C
  N39      1.0000 0.04434  0.89350  0.07760  Biso   1.000  N
  N40      1.0000 0.04437  0.89350  0.07760  Biso   1.000  N
  C168     1.0000 0.09005  0.75513  0.08882  Biso   1.000  C
  H135     1.0000 0.97042  0.34001  0.39742  Biso   1.000  H
  C169     1.0000 0.00000  0.31569  0.31400  Biso   1.000  C
  H136     1.0000 0.02962  0.34001  0.39742  Biso   1.000  H
  H137     1.0000 0.22119  0.55108  0.39810  Biso   1.000  H
  H138     1.0000 0.25189  0.64188  0.39842  Biso   1.000  H
  H139     1.0000 0.22123  0.55108  0.39810  Biso   1.000  H
  H140     1.0000 0.25193  0.64188  0.39842  Biso   1.000  H
  C170     1.0000 0.22652  0.60807  0.31341  Biso   1.000  C
  C171     1.0000 0.95589  0.07998  0.08301  Biso   1.000  C
  C172     1.0000 0.95593  0.07998  0.08301  Biso   1.000  C
  C173     1.0000 0.04407  0.07998  0.08301  Biso   1.000  C
  C174     1.0000 0.13401  0.79983  0.09191  Biso   1.000  C
  C175     1.0000 0.08953  0.66293  0.08968  Biso   1.000  C
  C176     1.0000 0.95581  0.31583  0.28122  Biso   1.000  C
  C177     1.0000 0.04419  0.31583  0.28122  Biso   1.000  C
  C178     1.0000 0.20465  0.53959  0.28108  Biso   1.000  C
  C179     1.0000 0.25014  0.67622  0.28099  Biso   1.000  C
  H141     1.0000 0.92534  0.04998  0.07860  Biso   1.000  H
  C180     1.0000 0.95693  0.17071  0.09300  Biso   1.000  C
  H142     1.0000 0.92530  0.04998  0.07860  Biso   1.000  H
  C181     1.0000 0.04311  0.17071  0.09300  Biso   1.000  C
  H143     1.0000 0.07470  0.04998  0.07860  Biso   1.000  H
  H144     1.0000 0.07474  0.04998  0.07860  Biso   1.000  H
  H145     1.0000 0.13491  0.86250  0.08909  Biso   1.000  H
  C182     1.0000 0.17756  0.75179  0.09922  Biso   1.000  C
  C183     1.0000 0.13379  0.61809  0.09672  Biso   1.000  C
  H146     1.0000 0.05939  0.63132  0.08569  Biso   1.000  H
  C184     1.0000 0.13383  0.61809  0.09672  Biso   1.000  C
  H147     1.0000 0.05942  0.63132  0.08569  Biso   1.000  H
  C185     1.0000 0.95581  0.31583  0.21878  Biso   1.000  C
  H148     1.0000 0.92523  0.31589  0.30211  Biso   1.000  H
  C186     1.0000 0.04419  0.31583  0.21878  Biso   1.000  C
  H149     1.0000 0.07481  0.31589  0.30211  Biso   1.000  H
  C187     1.0000 0.25014  0.67622  0.21901  Biso   1.000  C
  H150     1.0000 0.26620  0.72252  0.30211  Biso   1.000  H
  H151     1.0000 0.26623  0.72252  0.30211  Biso   1.000  H
  C188     1.0000 0.20465  0.53959  0.21892  Biso   1.000  C
  H152     1.0000 0.18949  0.49208  0.30211  Biso   1.000  H
  H153     1.0000 0.18952  0.49208  0.30211  Biso   1.000  H
  N41      1.0000 0.00000  0.21307  0.09931  Biso   1.000  N
  H154     1.0000 0.92690  0.20291  0.09540  Biso   1.000  H
  H155     1.0000 0.07310  0.20291  0.09540  Biso   1.000  H
  N42      1.0000 0.17633  0.66192  0.10240  Biso   1.000  N
  H156     1.0000 0.20823  0.78199  0.10190  Biso   1.000  H
  H157     1.0000 0.13390  0.55529  0.09731  Biso   1.000  H
  H158     1.0000 0.13394  0.55529  0.09731  Biso   1.000  H
  C189     1.0000 0.00000  0.31569  0.18600  Biso   1.000  C
  H159     1.0000 0.92523  0.31589  0.19789  Biso   1.000  H
  H160     1.0000 0.07481  0.31589  0.19789  Biso   1.000  H
  C190     1.0000 0.22652  0.60807  0.18659  Biso   1.000  C
  H161     1.0000 0.26620  0.72252  0.19789  Biso   1.000  H
  H162     1.0000 0.26623  0.72252  0.19789  Biso   1.000  H
  H163     1.0000 0.18949  0.49208  0.19789  Biso   1.000  H
  H164     1.0000 0.18952  0.49208  0.19789  Biso   1.000  H
  C191     1.0000 0.00000  0.31002  0.11879  Biso   1.000  C
  C192     1.0000 0.22264  0.61168  0.11861  Biso   1.000  C
  H165     1.0000 0.97042  0.34001  0.10258  Biso   1.000  H
  H166     1.0000 0.02962  0.34001  0.10258  Biso   1.000  H
  H167     1.0000 0.22119  0.55108  0.10190  Biso   1.000  H
  H168     1.0000 0.25189  0.64188  0.10158  Biso   1.000  H
  H169     1.0000 0.22123  0.55108  0.10190  Biso   1.000  H
  H170     1.0000 0.25193  0.64188  0.10158  Biso   1.000  H
  C193     1.0000 0.77739  0.38832  0.61861  Biso   1.000  C
  N43      1.0000 0.82363  0.33808  0.60240  Biso   1.000  N
  H171     1.0000 0.77885  0.44892  0.60190  Biso   1.000  H
  H172     1.0000 0.74815  0.35812  0.60158  Biso   1.000  H
  C194     1.0000 0.77356  0.39193  0.68659  Biso   1.000  C
  N44      1.0000 0.82367  0.33808  0.60240  Biso   1.000  N
  H173     1.0000 0.77881  0.44892  0.60190  Biso   1.000  H
  H174     1.0000 0.74811  0.35812  0.60158  Biso   1.000  H
  C195     1.0000 0.77352  0.39193  0.68659  Biso   1.000  C
  C196     1.0000 0.82251  0.24821  0.59922  Biso   1.000  C
  C197     1.0000 0.86625  0.38191  0.59668  Biso   1.000  C
  C198     1.0000 0.82247  0.24821  0.59922  Biso   1.000  C
  C199     1.0000 0.86621  0.38191  0.59668  Biso   1.000  C
  C200     1.0000 0.79539  0.46041  0.71892  Biso   1.000  C
  C201     1.0000 0.74993  0.32378  0.71901  Biso   1.000  C
  C202     1.0000 0.74990  0.32378  0.71901  Biso   1.000  C
  C203     1.0000 0.86603  0.20017  0.59191  Biso   1.000  C
  H175     1.0000 0.79185  0.21801  0.60190  Biso   1.000  H
  H176     1.0000 0.79181  0.21801  0.60190  Biso   1.000  H
  C204     1.0000 0.91051  0.33707  0.58968  Biso   1.000  C
  H177     1.0000 0.86614  0.44471  0.59731  Biso   1.000  H
  H178     1.0000 0.86610  0.44471  0.59731  Biso   1.000  H
  C205     1.0000 0.79539  0.46041  0.78108  Biso   1.000  C
  H179     1.0000 0.81051  0.50792  0.69789  Biso   1.000  H
  C206     1.0000 0.74993  0.32378  0.78099  Biso   1.000  C
  C207     1.0000 0.74990  0.32378  0.78099  Biso   1.000  C
  H180     1.0000 0.73380  0.27748  0.69789  Biso   1.000  H
  C208     1.0000 0.90999  0.24487  0.58877  Biso   1.000  C
  H181     1.0000 0.86513  0.13750  0.58909  Biso   1.000  H
  H182     1.0000 0.94065  0.36868  0.58569  Biso   1.000  H
  H183     1.0000 0.94061  0.36868  0.58569  Biso   1.000  H
  H184     1.0000 0.81051  0.50792  0.80211  Biso   1.000  H
  C209     1.0000 0.77356  0.39193  0.81341  Biso   1.000  C
  C210     1.0000 0.77352  0.39193  0.81341  Biso   1.000  C
  H185     1.0000 0.73380  0.27748  0.80211  Biso   1.000  H
  C211     1.0000 0.95805  0.19530  0.58360  Biso   1.000  C
  C212     1.0000 0.77739  0.38832  0.88139  Biso   1.000  C
  N45      1.0000 0.95570  0.10650  0.57760  Biso   1.000  N
  N46      1.0000 0.95566  0.10650  0.57760  Biso   1.000  N
  N47      1.0000 0.00000  0.24200  0.58800  Biso   1.000  N
  N48      1.0000 0.82363  0.33808  0.89760  Biso   1.000  N
  H186     1.0000 0.77885  0.44892  0.89810  Biso   1.000  H
  H187     1.0000 0.74815  0.35812  0.89837  Biso   1.000  H
  N49      1.0000 0.82367  0.33808  0.89760  Biso   1.000  N
  H188     1.0000 0.77881  0.44892  0.89810  Biso   1.000  H
  H189     1.0000 0.74811  0.35812  0.89837  Biso   1.000  H
  C213     1.0000 0.00000  0.06568  0.57720  Biso   1.000  C
  C214     1.0000 0.04199  0.19530  0.58360  Biso   1.000  C
  C215     1.0000 0.82251  0.24821  0.90078  Biso   1.000  C
  C216     1.0000 0.86625  0.38191  0.90328  Biso   1.000  C
  C217     1.0000 0.82247  0.24821  0.90078  Biso   1.000  C
  C218     1.0000 0.86621  0.38191  0.90328  Biso   1.000  C
  C219     1.0000 0.00000  0.96639  0.57969  Biso   1.000  C
  N50      1.0000 0.04434  0.10650  0.57760  Biso   1.000  N
  N51      1.0000 0.04437  0.10650  0.57760  Biso   1.000  N
  C220     1.0000 0.09005  0.24487  0.58877  Biso   1.000  C
  C221     1.0000 0.86603  0.20017  0.90809  Biso   1.000  C
  H190     1.0000 0.79185  0.21801  0.89810  Biso   1.000  H
  H191     1.0000 0.79181  0.21801  0.89810  Biso   1.000  H
  C222     1.0000 0.91051  0.33707  0.91032  Biso   1.000  C
  H192     1.0000 0.86614  0.44471  0.90269  Biso   1.000  H
  H193     1.0000 0.86610  0.44471  0.90269  Biso   1.000  H
  C223     1.0000 0.95589  0.92002  0.58301  Biso   1.000  C
  C224     1.0000 0.95593  0.92002  0.58301  Biso   1.000  C
  C225     1.0000 0.04407  0.92002  0.58301  Biso   1.000  C
  C226     1.0000 0.13401  0.20017  0.59191  Biso   1.000  C
  C227     1.0000 0.08953  0.33707  0.58968  Biso   1.000  C
  C228     1.0000 0.90999  0.24487  0.91118  Biso   1.000  C
  H194     1.0000 0.86513  0.13750  0.91091  Biso   1.000  H
  H195     1.0000 0.94065  0.36868  0.91431  Biso   1.000  H
  H196     1.0000 0.94061  0.36868  0.91431  Biso   1.000  H
  H197     1.0000 0.92534  0.95002  0.57860  Biso   1.000  H
  C229     1.0000 0.95693  0.82929  0.59300  Biso   1.000  C
  H198     1.0000 0.92530  0.95002  0.57860  Biso   1.000  H
  C230     1.0000 0.04311  0.82929  0.59300  Biso   1.000  C
  H199     1.0000 0.07470  0.95002  0.57860  Biso   1.000  H
  H200     1.0000 0.07474  0.95002  0.57860  Biso   1.000  H
  H201     1.0000 0.13491  0.13750  0.58909  Biso   1.000  H
  C231     1.0000 0.17756  0.24821  0.59922  Biso   1.000  C
  C232     1.0000 0.13379  0.38191  0.59668  Biso   1.000  C
  H202     1.0000 0.05939  0.36868  0.58569  Biso   1.000  H
  C233     1.0000 0.13383  0.38191  0.59668  Biso   1.000  C
  H203     1.0000 0.05942  0.36868  0.58569  Biso   1.000  H
  C234     1.0000 0.95805  0.19530  0.91640  Biso   1.000  C
  N52      1.0000 0.00000  0.78693  0.59931  Biso   1.000  N
  H204     1.0000 0.92690  0.79709  0.59540  Biso   1.000  H
  H205     1.0000 0.07310  0.79709  0.59540  Biso   1.000  H
  N53      1.0000 0.17633  0.33808  0.60240  Biso   1.000  N
  H206     1.0000 0.20823  0.21801  0.60190  Biso   1.000  H
  H207     1.0000 0.13390  0.44471  0.59731  Biso   1.000  H
  H208     1.0000 0.13394  0.44471  0.59731  Biso   1.000  H
  N54      1.0000 0.95570  0.10650  0.92240  Biso   1.000  N
  N55      1.0000 0.95566  0.10650  0.92240  Biso   1.000  N
  N56      1.0000 0.00000  0.24200  0.91200  Biso   1.000  N
  C235     1.0000 0.00000  0.68998  0.61879  Biso   1.000  C
  C236     1.0000 0.22264  0.38832  0.61861  Biso   1.000  C
  C237     1.0000 0.00000  0.06568  0.92280  Biso   1.000  C
  C238     1.0000 0.04199  0.19530  0.91640  Biso   1.000  C
  H209     1.0000 0.97042  0.65999  0.60258  Biso   1.000  H
  C239     1.0000 0.00000  0.68431  0.68600  Biso   1.000  C
  H210     1.0000 0.02962  0.65999  0.60258  Biso   1.000  H
  H211     1.0000 0.22119  0.44892  0.60190  Biso   1.000  H
  H212     1.0000 0.25189  0.35812  0.60158  Biso   1.000  H
  H213     1.0000 0.22123  0.44892  0.60190  Biso   1.000  H
  H214     1.0000 0.25193  0.35812  0.60158  Biso   1.000  H
  C240     1.0000 0.22652  0.39193  0.68659  Biso   1.000  C
  C241     1.0000 0.00000  0.96639  0.92031  Biso   1.000  C
  N57      1.0000 0.04434  0.10650  0.92240  Biso   1.000  N
  N58      1.0000 0.04437  0.10650  0.92240  Biso   1.000  N
  C242     1.0000 0.09005  0.24487  0.91118  Biso   1.000  C
  C243     1.0000 0.95581  0.68417  0.71878  Biso   1.000  C
  C244     1.0000 0.04419  0.68417  0.71878  Biso   1.000  C
  C245     1.0000 0.20465  0.46041  0.71892  Biso   1.000  C
  C246     1.0000 0.25014  0.32378  0.71901  Biso   1.000  C
  C247     1.0000 0.95589  0.92002  0.91699  Biso   1.000  C
  C248     1.0000 0.95593  0.92002  0.91699  Biso   1.000  C
  C249     1.0000 0.04407  0.92002  0.91699  Biso   1.000  C
  C250     1.0000 0.13401  0.20017  0.90809  Biso   1.000  C
  C251     1.0000 0.08953  0.33707  0.91032  Biso   1.000  C
  C252     1.0000 0.95581  0.68417  0.78122  Biso   1.000  C
  H215     1.0000 0.92523  0.68411  0.69789  Biso   1.000  H
  C253     1.0000 0.04419  0.68417  0.78122  Biso   1.000  C
  H216     1.0000 0.07481  0.68411  0.69789  Biso   1.000  H
  H217     1.0000 0.26620  0.27748  0.69789  Biso   1.000  H
  C254     1.0000 0.25014  0.32378  0.78099  Biso   1.000  C
  H218     1.0000 0.26623  0.27748  0.69789  Biso   1.000  H
  C255     1.0000 0.20465  0.46041  0.78108  Biso   1.000  C
  H219     1.0000 0.18949  0.50792  0.69789  Biso   1.000  H
  H220     1.0000 0.18952  0.50792  0.69789  Biso   1.000  H
  H221     1.0000 0.92534  0.95002  0.92140  Biso   1.000  H
  C256     1.0000 0.95693  0.82929  0.90700  Biso   1.000  C
  H222     1.0000 0.92530  0.95002  0.92140  Biso   1.000  H
  C257     1.0000 0.04311  0.82929  0.90700  Biso   1.000  C
  H223     1.0000 0.07470  0.95002  0.92140  Biso   1.000  H
  H224     1.0000 0.07474  0.95002  0.92140  Biso   1.000  H
  H225     1.0000 0.13491  0.13750  0.91091  Biso   1.000  H
  C258     1.0000 0.17756  0.24821  0.90078  Biso   1.000  C
  C259     1.0000 0.13379  0.38191  0.90328  Biso   1.000  C
  H226     1.0000 0.05939  0.36868  0.91431  Biso   1.000  H
  C260     1.0000 0.13383  0.38191  0.90328  Biso   1.000  C
  H227     1.0000 0.05942  0.36868  0.91431  Biso   1.000  H
  H228     1.0000 0.92523  0.68411  0.80211  Biso   1.000  H
  C261     1.0000 0.00000  0.68431  0.81400  Biso   1.000  C
  H229     1.0000 0.07481  0.68411  0.80211  Biso   1.000  H
  H230     1.0000 0.26620  0.27748  0.80211  Biso   1.000  H
  C262     1.0000 0.22652  0.39193  0.81341  Biso   1.000  C
  H231     1.0000 0.26623  0.27748  0.80211  Biso   1.000  H
  H232     1.0000 0.18949  0.50792  0.80211  Biso   1.000  H
  H233     1.0000 0.18952  0.50792  0.80211  Biso   1.000  H
  N59      1.0000 0.00000  0.78693  0.90069  Biso   1.000  N
  H234     1.0000 0.92690  0.79709  0.90460  Biso   1.000  H
  H235     1.0000 0.07310  0.79709  0.90460  Biso   1.000  H
  N60      1.0000 0.17633  0.33808  0.89760  Biso   1.000  N
  H236     1.0000 0.20823  0.21801  0.89810  Biso   1.000  H
  H237     1.0000 0.13390  0.44471  0.90269  Biso   1.000  H
  H238     1.0000 0.13394  0.44471  0.90269  Biso   1.000  H
  C263     1.0000 0.00000  0.68998  0.88121  Biso   1.000  C
  C264     1.0000 0.22264  0.38832  0.88139  Biso   1.000  C
  H239     1.0000 0.97042  0.65999  0.89738  Biso   1.000  H
  H240     1.0000 0.02962  0.65999  0.89738  Biso   1.000  H
  H241     1.0000 0.22119  0.44892  0.89810  Biso   1.000  H
  H242     1.0000 0.25189  0.35812  0.89837  Biso   1.000  H
  H243     1.0000 0.22123  0.44892  0.89810  Biso   1.000  H
  H244     1.0000 0.25193  0.35812  0.89837  Biso   1.000  H
  Ne1      1.0000 0.50001  0.34622  0.25000  Biso   1.000  Ne
  He1      1.0000 0.54020  0.47533  0.25000  Biso   1.000  He
  He2      1.0000 0.45487  0.46999  0.25000  Biso   1.000  He
  He3      1.0000 0.54077  0.23857  0.25000  Biso   1.000  He
  Ar1      1.0000 0.50001  0.34622  0.25000  Biso   1.000  Ar
  Ne2      1.0000 0.50001  0.65378  0.75000  Biso   1.000  Ne
  He4      1.0000 0.54239  0.52730  0.75000  Biso   1.000  He
  He5      1.0000 0.47550  0.74846  0.75000  Biso   1.000  He
  He6      1.0000 0.46302  0.51495  0.75000  Biso   1.000  He
  Ar2      1.0000 0.50001  0.65378  0.75000  Biso   1.000  Ar
  Ne3      1.0000 0.98221  0.82587  0.25000  Biso   1.000  Ne
  He7      1.0000 0.98872  0.79002  0.25000  Biso   1.000  He
  He8      1.0000 0.99441  0.87163  0.25000  Biso   1.000  He
  He9      1.0000 0.92391  0.96150  0.25000  Biso   1.000  He
  Ar3      1.0000 0.98221  0.82587  0.25000  Biso   1.000  Ar
  Ne4      1.0000 0.98221  0.17413  0.75000  Biso   1.000  Ne
  He10     1.0000 0.97703  0.11028  0.75000  Biso   1.000  He
  He11     1.0000 0.02134  0.11198  0.75000  Biso   1.000  He
  He12     1.0000 0.97549  0.24843  0.75000  Biso   1.000  He
  Ar4      1.0000 0.99907  0.13321  0.75000  Biso   1.000  Ar
