data_image0
_cell_length_a       14.242
_cell_length_b       12.138
_cell_length_c       15.84
_cell_angle_alpha    90
_cell_angle_beta     91.97
_cell_angle_gamma    90

_symmetry_space_group_name_H-M    "P 1"
_symmetry_int_tables_number       1

loop_
  _symmetry_equiv_pos_as_xyz
  'x, y, z'

loop_
  _atom_site_label
  _atom_site_occupancy
  _atom_site_fract_x
  _atom_site_fract_y
  _atom_site_fract_z
  _atom_site_thermal_displace_type
  _atom_site_B_iso_or_equiv
  _atom_site_type_symbol
  C1       1.0000 0.36125  0.22928  0.16506  Biso   1.000  C
  N1       1.0000 0.41697  0.20143  0.23423  Biso   1.000  N
  N2       1.0000 0.41704  0.20143  0.23417  Biso   1.000  N
  O1       1.0000 0.37724  0.30293  0.11497  Biso   1.000  O
  N3       1.0000 0.28348  0.16337  0.16411  Biso   1.000  N
  O2       1.0000 0.37731  0.30293  0.11497  Biso   1.000  O
  N4       1.0000 0.28355  0.16337  0.16405  Biso   1.000  N
  C2       1.0000 0.50025  0.26314  0.26000  Biso   1.000  C
  C3       1.0000 0.37791  0.11303  0.28312  Biso   1.000  C
  C4       1.0000 0.36118  0.22928  0.16512  Biso   1.000  C
  C5       1.0000 0.37791  0.11303  0.28306  Biso   1.000  C
  C6       1.0000 0.28129  0.09170  0.23720  Biso   1.000  C
  C7       1.0000 0.28136  0.09170  0.23720  Biso   1.000  C
  C8       1.0000 0.20201  0.18372  0.10846  Biso   1.000  C
  N5       1.0000 0.58704  0.21338  0.23259  Biso   1.000  N
  H1       1.0000 0.49522  0.33861  0.23669  Biso   1.000  H
  H2       1.0000 0.50299  0.26907  0.32241  Biso   1.000  H
  H3       1.0000 0.50306  0.26907  0.32235  Biso   1.000  H
  N6       1.0000 0.42670  0.00824  0.27560  Biso   1.000  N
  H4       1.0000 0.37067  0.13462  0.34351  Biso   1.000  H
  N7       1.0000 0.42670  0.00824  0.27554  Biso   1.000  N
  H5       1.0000 0.37074  0.13462  0.34345  Biso   1.000  H
  N8       1.0000 0.28494  0.97520  0.21869  Biso   1.000  N
  H6       1.0000 0.22779  0.11007  0.27403  Biso   1.000  H
  H7       1.0000 0.22786  0.11007  0.27396  Biso   1.000  H
  H8       1.0000 0.20731  0.25812  0.08351  Biso   1.000  H
  N9       1.0000 0.19235  0.10348  0.04131  Biso   1.000  N
  H9       1.0000 0.20731  0.25812  0.08345  Biso   1.000  H
  H10      1.0000 0.14474  0.18248  0.14219  Biso   1.000  H
  C9       1.0000 0.63573  0.25194  0.16550  Biso   1.000  C
  C10      1.0000 0.63743  0.12852  0.27977  Biso   1.000  C
  C11      1.0000 0.51591  0.98484  0.31875  Biso   1.000  C
  C12      1.0000 0.36809  0.92668  0.24490  Biso   1.000  C
  C13      1.0000 0.36816  0.92668  0.24490  Biso   1.000  C
  C14      1.0000 0.20508  0.91251  0.18692  Biso   1.000  C
  C15      1.0000 0.20515  0.91251  0.18685  Biso   1.000  C
  C16      1.0000 0.20161  0.13363  0.95831  Biso   1.000  C
  C17      1.0000 0.14146  0.00058  0.04889  Biso   1.000  C
  O3       1.0000 0.61096  0.32724  0.11800  Biso   1.000  O
  O4       1.0000 0.61103  0.32724  0.11794  Biso   1.000  O
  N10      1.0000 0.71814  0.19534  0.16298  Biso   1.000  N
  C18      1.0000 0.73014  0.11789  0.23259  Biso   1.000  C
  H11      1.0000 0.64881  0.14978  0.34029  Biso   1.000  H
  N11      1.0000 0.59590  0.01920  0.27156  Biso   1.000  N
  H12      1.0000 0.52053  0.90451  0.32949  Biso   1.000  H
  H13      1.0000 0.51789  0.02257  0.37421  Biso   1.000  H
  H14      1.0000 0.51796  0.02257  0.37415  Biso   1.000  H
  O5       1.0000 0.38644  0.82806  0.24187  Biso   1.000  O
  N12      1.0000 0.19030  0.91490  0.09608  Biso   1.000  N
  H15      1.0000 0.21342  0.83482  0.20492  Biso   1.000  H
  H16      1.0000 0.21342  0.83482  0.20486  Biso   1.000  H
  H17      1.0000 0.14802  0.94093  0.21326  Biso   1.000  H
  N13      1.0000 0.16845  0.04902  0.90834  Biso   1.000  N
  O6       1.0000 0.23311  0.22079  0.93380  Biso   1.000  O
  C19      1.0000 0.13836  0.95493  0.95679  Biso   1.000  C
  H18      1.0000 0.07682  0.01293  0.06986  Biso   1.000  H
  C20      1.0000 0.79223  0.21832  0.10467  Biso   1.000  C
  H19      1.0000 0.78577  0.13693  0.26992  Biso   1.000  H
  N14      1.0000 0.73196  0.00387  0.20669  Biso   1.000  N
  H20      1.0000 0.78584  0.13693  0.26986  Biso   1.000  H
  C21      1.0000 0.65557  0.94620  0.23429  Biso   1.000  C
  C22      1.0000 0.22436  0.83391  0.04479  Biso   1.000  C
  C23      1.0000 0.18271  0.04943  0.81839  Biso   1.000  C
  N15      1.0000 0.20393  0.86307  0.96204  Biso   1.000  N
  H21      1.0000 0.07363  0.93030  0.93879  Biso   1.000  H
  H22      1.0000 0.85327  0.21989  0.13638  Biso   1.000  H
  H23      1.0000 0.78157  0.29189  0.07928  Biso   1.000  H
  N16      1.0000 0.79614  0.13693  0.03796  Biso   1.000  N
  H24      1.0000 0.85334  0.21989  0.13638  Biso   1.000  H
  H25      1.0000 0.78164  0.29189  0.07928  Biso   1.000  H
  C24      1.0000 0.81729  0.95057  0.18161  Biso   1.000  C
  C25      1.0000 0.81736  0.95057  0.18155  Biso   1.000  C
  O7       1.0000 0.64292  0.84684  0.22678  Biso   1.000  O
  O8       1.0000 0.64299  0.84684  0.22678  Biso   1.000  O
  O9       1.0000 0.26531  0.75111  0.06892  Biso   1.000  O
  N17      1.0000 0.26811  0.99613  0.79331  Biso   1.000  N
  N18      1.0000 0.26811  0.99613  0.79325  Biso   1.000  N
  H26      1.0000 0.12859  0.01244  0.78952  Biso   1.000  H
  H27      1.0000 0.18350  0.12679  0.79862  Biso   1.000  H
  H28      1.0000 0.12866  0.01244  0.78946  Biso   1.000  H
  H29      1.0000 0.18356  0.12679  0.79856  Biso   1.000  H
  C26      1.0000 0.20777  0.78168  0.89533  Biso   1.000  C
  C27      1.0000 0.20783  0.78168  0.89527  Biso   1.000  C
  C28      1.0000 0.86171  0.04507  0.04321  Biso   1.000  C
  C29      1.0000 0.77571  0.16609  0.95521  Biso   1.000  C
  C30      1.0000 0.77570  0.16609  0.95515  Biso   1.000  C
  N19      1.0000 0.83162  0.95098  0.09166  Biso   1.000  N
  H30      1.0000 0.87141  0.98756  0.21048  Biso   1.000  H
  H31      1.0000 0.81650  0.87321  0.20138  Biso   1.000  H
  C31      1.0000 0.26993  0.88211  0.76735  Biso   1.000  C
  C32      1.0000 0.34450  0.05380  0.76571  Biso   1.000  C
  H32      1.0000 0.14673  0.78011  0.86362  Biso   1.000  H
  H33      1.0000 0.21843  0.70811  0.92072  Biso   1.000  H
  N20      1.0000 0.28193  0.80466  0.83696  Biso   1.000  N
  H34      1.0000 0.14673  0.78011  0.86356  Biso   1.000  H
  H35      1.0000 0.21842  0.70811  0.92066  Biso   1.000  H
  C33      1.0000 0.85861  0.99942  0.95111  Biso   1.000  C
  H36      1.0000 0.92637  0.06970  0.06121  Biso   1.000  H
  H37      1.0000 0.92644  0.06970  0.06115  Biso   1.000  H
  O10      1.0000 0.73469  0.24889  0.93108  Biso   1.000  O
  N21      1.0000 0.80970  0.08510  0.90392  Biso   1.000  N
  N22      1.0000 0.80976  0.08510  0.90386  Biso   1.000  N
  C34      1.0000 0.79846  0.86637  0.04169  Biso   1.000  C
  C35      1.0000 0.36263  0.87148  0.72016  Biso   1.000  C
  H38      1.0000 0.21423  0.86307  0.73008  Biso   1.000  H
  N23      1.0000 0.40409  0.98080  0.72837  Biso   1.000  N
  N24      1.0000 0.40416  0.98080  0.72837  Biso   1.000  N
  O11      1.0000 0.35708  0.15316  0.77322  Biso   1.000  O
  C36      1.0000 0.36427  0.74806  0.83450  Biso   1.000  C
  C37      1.0000 0.36434  0.74806  0.83450  Biso   1.000  C
  N25      1.0000 0.80772  0.89652  0.95869  Biso   1.000  N
  N26      1.0000 0.80771  0.89652  0.95862  Biso   1.000  N
  H39      1.0000 0.92325  0.98707  0.93007  Biso   1.000  H
  C38      1.0000 0.79492  0.08749  0.81308  Biso   1.000  C
  O12      1.0000 0.76696  0.77921  0.06620  Biso   1.000  O
  O13      1.0000 0.76696  0.77921  0.06614  Biso   1.000  O
  N27      1.0000 0.41303  0.78662  0.76735  Biso   1.000  N
  H40      1.0000 0.35119  0.85022  0.65971  Biso   1.000  H
  H41      1.0000 0.35126  0.85022  0.65965  Biso   1.000  H
  C39      1.0000 0.48409  0.01516  0.68119  Biso   1.000  C
  C40      1.0000 0.48416  0.01516  0.68119  Biso   1.000  C
  O14      1.0000 0.38904  0.67276  0.88200  Biso   1.000  O
  C41      1.0000 0.79799  0.81628  0.89148  Biso   1.000  C
  C42      1.0000 0.79806  0.81628  0.89148  Biso   1.000  C
  N28      1.0000 0.71513  0.02480  0.78125  Biso   1.000  N
  H42      1.0000 0.78665  0.16518  0.79508  Biso   1.000  H
  H43      1.0000 0.85205  0.05907  0.78668  Biso   1.000  H
  C43      1.0000 0.49982  0.73686  0.74000  Biso   1.000  C
  N29      1.0000 0.57330  0.99176  0.72440  Biso   1.000  N
  H44      1.0000 0.48211  0.97743  0.62579  Biso   1.000  H
  H45      1.0000 0.47947  0.09549  0.67051  Biso   1.000  H
  H46      1.0000 0.47954  0.09549  0.67045  Biso   1.000  H
  N30      1.0000 0.71652  0.83663  0.83589  Biso   1.000  N
  H47      1.0000 0.85533  0.81752  0.85781  Biso   1.000  H
  H48      1.0000 0.79276  0.74188  0.91649  Biso   1.000  H
  C44      1.0000 0.71871  0.90830  0.76280  Biso   1.000  C
  C45      1.0000 0.63191  0.07332  0.75510  Biso   1.000  C
  N31      1.0000 0.58303  0.79857  0.76577  Biso   1.000  N
  H49      1.0000 0.50478  0.66139  0.76331  Biso   1.000  H
  H50      1.0000 0.49701  0.73093  0.67759  Biso   1.000  H
  H51      1.0000 0.50485  0.66139  0.76331  Biso   1.000  H
  C46      1.0000 0.62209  0.88697  0.71688  Biso   1.000  C
  C47      1.0000 0.62216  0.88697  0.71688  Biso   1.000  C
  C48      1.0000 0.63882  0.77072  0.83488  Biso   1.000  C
  H52      1.0000 0.77221  0.88993  0.72597  Biso   1.000  H
  O15      1.0000 0.61356  0.17194  0.75813  Biso   1.000  O
  O16      1.0000 0.61363  0.17194  0.75806  Biso   1.000  O
  H53      1.0000 0.62933  0.86538  0.65649  Biso   1.000  H
  O17      1.0000 0.62276  0.69707  0.88503  Biso   1.000  O
  C49      1.0000 0.29487  0.41251  0.31313  Biso   1.000  C
  N32      1.0000 0.21508  0.47520  0.28129  Biso   1.000  N
  N33      1.0000 0.30971  0.41490  0.40390  Biso   1.000  N
  H54      1.0000 0.28660  0.33482  0.29512  Biso   1.000  H
  H55      1.0000 0.35200  0.44093  0.28672  Biso   1.000  H
  C50      1.0000 0.13193  0.42668  0.25508  Biso   1.000  C
  C51      1.0000 0.21873  0.59170  0.26278  Biso   1.000  C
  C52      1.0000 0.35863  0.50058  0.45109  Biso   1.000  C
  C53      1.0000 0.27572  0.33391  0.45519  Biso   1.000  C
  O18      1.0000 0.11358  0.32806  0.25811  Biso   1.000  O
  N34      1.0000 0.07332  0.50824  0.22444  Biso   1.000  N
  N35      1.0000 0.21647  0.66337  0.33593  Biso   1.000  N
  H56      1.0000 0.27223  0.61007  0.22602  Biso   1.000  H
  C54      1.0000 0.12211  0.61303  0.21692  Biso   1.000  C
  C55      1.0000 0.36173  0.45493  0.54319  Biso   1.000  C
  N36      1.0000 0.30773  0.60348  0.45867  Biso   1.000  N
  H57      1.0000 0.42320  0.51293  0.43012  Biso   1.000  H
  N37      1.0000 0.29609  0.36307  0.53794  Biso   1.000  N
  O19      1.0000 0.23471  0.25111  0.43106  Biso   1.000  O
  C56      1.0000 0.98411  0.48484  0.18123  Biso   1.000  C
  C57      1.0000 0.29801  0.68372  0.39152  Biso   1.000  C
  C58      1.0000 0.13877  0.72928  0.33492  Biso   1.000  C
  N38      1.0000 0.08298  0.70143  0.26581  Biso   1.000  N
  H58      1.0000 0.12928  0.63462  0.15647  Biso   1.000  H
  N39      1.0000 0.33157  0.54902  0.59164  Biso   1.000  N
  H59      1.0000 0.42639  0.43030  0.56119  Biso   1.000  H
  C59      1.0000 0.29841  0.63363  0.54167  Biso   1.000  C
  C60      1.0000 0.29218  0.28168  0.60471  Biso   1.000  C
  N40      1.0000 0.90411  0.51920  0.22842  Biso   1.000  N
  H60      1.0000 0.97949  0.40451  0.17049  Biso   1.000  H
  H61      1.0000 0.98213  0.52257  0.12577  Biso   1.000  H
  H62      1.0000 0.29271  0.75812  0.41647  Biso   1.000  H
  H63      1.0000 0.35527  0.68248  0.35779  Biso   1.000  H
  O20      1.0000 0.12278  0.80293  0.38501  Biso   1.000  O
  C61      1.0000 0.99977  0.76314  0.23998  Biso   1.000  C
  C62      1.0000 0.31731  0.54943  0.68159  Biso   1.000  C
  O21      1.0000 0.26691  0.72079  0.56618  Biso   1.000  O
  N41      1.0000 0.21809  0.30466  0.66302  Biso   1.000  N
  H64      1.0000 0.35329  0.28011  0.63642  Biso   1.000  H
  H65      1.0000 0.28159  0.20811  0.57932  Biso   1.000  H
  C63      1.0000 0.84452  0.44620  0.26569  Biso   1.000  C
  C64      1.0000 0.86258  0.62852  0.22021  Biso   1.000  C
  H66      1.0000 0.00480  0.83861  0.26329  Biso   1.000  H
  N42      1.0000 0.91298  0.71338  0.26739  Biso   1.000  N
  H67      1.0000 0.99703  0.76907  0.17763  Biso   1.000  H
  N43      1.0000 0.23191  0.49613  0.70673  Biso   1.000  N
  H68      1.0000 0.37143  0.51244  0.71052  Biso   1.000  H
  H69      1.0000 0.31652  0.62679  0.70142  Biso   1.000  H
  C65      1.0000 0.23009  0.38211  0.73263  Biso   1.000  C
  C66      1.0000 0.13568  0.24806  0.66548  Biso   1.000  C
  O22      1.0000 0.85703  0.34684  0.27320  Biso   1.000  O
  N44      1.0000 0.76813  0.50387  0.29329  Biso   1.000  N
  H70      1.0000 0.85121  0.64978  0.15969  Biso   1.000  H
  C67      1.0000 0.76988  0.61789  0.26739  Biso   1.000  C
  C68      1.0000 0.86428  0.75194  0.33448  Biso   1.000  C
  C69      1.0000 0.15551  0.55380  0.73427  Biso   1.000  C
  C70      1.0000 0.13738  0.37148  0.77982  Biso   1.000  C
  H71      1.0000 0.28579  0.36307  0.76990  Biso   1.000  H
  O23      1.0000 0.11097  0.17276  0.61798  Biso   1.000  O
  N45      1.0000 0.08699  0.28662  0.73263  Biso   1.000  N
  C71      1.0000 0.68272  0.45057  0.31837  Biso   1.000  C
  N46      1.0000 0.78188  0.69534  0.33700  Biso   1.000  N
  H72      1.0000 0.71418  0.63693  0.23012  Biso   1.000  H
  O24      1.0000 0.88899  0.82724  0.38204  Biso   1.000  O
  O25      1.0000 0.14294  0.65316  0.72676  Biso   1.000  O
  N47      1.0000 0.09592  0.48080  0.77161  Biso   1.000  N
  H73      1.0000 0.14882  0.35022  0.84027  Biso   1.000  H
  C72      1.0000 0.00020  0.23686  0.75998  Biso   1.000  C
  N48      1.0000 0.66840  0.45098  0.40832  Biso   1.000  N
  H74      1.0000 0.62861  0.48756  0.28950  Biso   1.000  H
  H75      1.0000 0.68351  0.37321  0.29860  Biso   1.000  H
  C73      1.0000 0.70778  0.71832  0.39531  Biso   1.000  C
  C74      1.0000 0.01593  0.51516  0.81879  Biso   1.000  C
  H76      1.0000 0.00301  0.23093  0.82239  Biso   1.000  H
  N49      1.0000 0.91699  0.29857  0.73421  Biso   1.000  N
  H77      1.0000 0.99516  0.16139  0.73667  Biso   1.000  H
  C75      1.0000 0.70163  0.36637  0.45829  Biso   1.000  C
  C76      1.0000 0.63830  0.54507  0.45677  Biso   1.000  C
  N50      1.0000 0.70387  0.63693  0.46202  Biso   1.000  N
  H78      1.0000 0.64668  0.71989  0.36360  Biso   1.000  H
  H79      1.0000 0.71837  0.79189  0.42070  Biso   1.000  H
  H80      1.0000 0.02048  0.59549  0.82953  Biso   1.000  H
  H81      1.0000 0.01791  0.47743  0.87419  Biso   1.000  H
  N51      1.0000 0.92672  0.49176  0.77558  Biso   1.000  N
  C77      1.0000 0.87793  0.38697  0.78310  Biso   1.000  C
  C78      1.0000 0.86120  0.27072  0.66510  Biso   1.000  C
  O26      1.0000 0.73306  0.27921  0.43384  Biso   1.000  O
  N52      1.0000 0.69230  0.39652  0.54136  Biso   1.000  N
  C79      1.0000 0.64140  0.49942  0.54887  Biso   1.000  C
  H82      1.0000 0.57358  0.56970  0.43877  Biso   1.000  H
  C80      1.0000 0.72431  0.66609  0.54483  Biso   1.000  C
  C81      1.0000 0.86811  0.57332  0.74488  Biso   1.000  C
  C82      1.0000 0.78131  0.40830  0.73718  Biso   1.000  C
  H83      1.0000 0.87069  0.36538  0.84349  Biso   1.000  H
  O27      1.0000 0.87725  0.19707  0.61495  Biso   1.000  O
  N53      1.0000 0.78350  0.33663  0.66409  Biso   1.000  N
  C83      1.0000 0.70203  0.31628  0.60850  Biso   1.000  C
  N54      1.0000 0.69032  0.58510  0.59612  Biso   1.000  N
  H84      1.0000 0.57677  0.48707  0.56991  Biso   1.000  H
  O28      1.0000 0.76533  0.74889  0.56890  Biso   1.000  O
  O29      1.0000 0.88639  0.67194  0.74192  Biso   1.000  O
  N55      1.0000 0.78488  0.52480  0.71867  Biso   1.000  N
  H85      1.0000 0.72781  0.38993  0.77401  Biso   1.000  H
  H86      1.0000 0.70732  0.24188  0.58349  Biso   1.000  H
  H87      1.0000 0.64469  0.31752  0.64217  Biso   1.000  H
  C84      1.0000 0.70510  0.58749  0.68690  Biso   1.000  C
  H88      1.0000 0.71337  0.66518  0.70490  Biso   1.000  H
  H89      1.0000 0.64797  0.55907  0.71330  Biso   1.000  H
  Ne1      1.0000 0.50142  0.00579  0.00692  Biso   1.000  Ne
  He1      1.0000 0.50343  0.75912  0.06184  Biso   1.000  He
  He2      1.0000 0.49642  0.24383  0.93733  Biso   1.000  He
  Ar1      1.0000 0.50190  0.00604  0.99987  Biso   1.000  Ar
  Ne2      1.0000 0.00000  0.50000  0.50000  Biso   1.000  Ne
  He3      1.0000 0.00450  0.76015  0.56708  Biso   1.000  He
  He4      1.0000 0.99515  0.23325  0.43110  Biso   1.000  He
  Ar2      1.0000 1.00000  0.50000  0.49999  Biso   1.000  Ar
