data_image0
_cell_length_a       11.133
_cell_length_b       16.788
_cell_length_c       15.306
_cell_angle_alpha    90
_cell_angle_beta     93.64
_cell_angle_gamma    90

_symmetry_space_group_name_H-M    "P 1"
_symmetry_int_tables_number       1

loop_
  _symmetry_equiv_pos_as_xyz
  'x, y, z'

loop_
  _atom_site_label
  _atom_site_occupancy
  _atom_site_fract_x
  _atom_site_fract_y
  _atom_site_fract_z
  _atom_site_thermal_displace_type
  _atom_site_B_iso_or_equiv
  _atom_site_type_symbol
  C1       1.0000 0.25250  0.32613  0.36438  Biso   1.000  C
  N1       1.0000 0.32511  0.33441  0.29578  Biso   1.000  N
  O1       1.0000 0.15991  0.36300  0.37492  Biso   1.000  O
  N2       1.0000 0.29720  0.26459  0.41748  Biso   1.000  N
  C2       1.0000 0.29501  0.38837  0.22468  Biso   1.000  C
  C3       1.0000 0.41257  0.27103  0.29348  Biso   1.000  C
  C4       1.0000 0.39209  0.22159  0.37780  Biso   1.000  C
  C5       1.0000 0.23244  0.23398  0.49060  Biso   1.000  C
  N3       1.0000 0.37254  0.45670  0.22383  Biso   1.000  N
  H1       1.0000 0.21101  0.40672  0.22867  Biso   1.000  H
  H2       1.0000 0.29928  0.35930  0.16871  Biso   1.000  H
  N4       1.0000 0.53840  0.29360  0.30559  Biso   1.000  N
  H3       1.0000 0.39792  0.23773  0.23980  Biso   1.000  H
  N5       1.0000 0.50892  0.22421  0.42579  Biso   1.000  N
  H4       1.0000 0.36746  0.16571  0.36320  Biso   1.000  H
  N6       1.0000 0.28592  0.25840  0.57433  Biso   1.000  N
  H5       1.0000 0.14812  0.25310  0.48471  Biso   1.000  H
  H6       1.0000 0.23077  0.17513  0.48792  Biso   1.000  H
  C6       1.0000 0.48823  0.45562  0.18468  Biso   1.000  C
  C7       1.0000 0.33440  0.53377  0.23967  Biso   1.000  C
  C8       1.0000 0.59360  0.26239  0.38239  Biso   1.000  C
  C9       1.0000 0.60479  0.33500  0.24098  Biso   1.000  C
  C10      1.0000 0.53637  0.18227  0.50677  Biso   1.000  C
  C11      1.0000 0.23942  0.31802  0.62310  Biso   1.000  C
  C12      1.0000 0.38596  0.21730  0.62042  Biso   1.000  C
  N7       1.0000 0.58429  0.41941  0.23967  Biso   1.000  N
  C13      1.0000 0.52328  0.54432  0.17970  Biso   1.000  C
  H7       1.0000 0.48151  0.43072  0.12517  Biso   1.000  H
  O2       1.0000 0.23691  0.55230  0.26599  Biso   1.000  O
  N8       1.0000 0.42477  0.58423  0.21813  Biso   1.000  N
  O3       1.0000 0.70169  0.26751  0.40131  Biso   1.000  O
  H8       1.0000 0.58163  0.31290  0.18239  Biso   1.000  H
  H9       1.0000 0.69184  0.32487  0.25342  Biso   1.000  H
  N9       1.0000 0.50184  0.22570  0.58343  Biso   1.000  N
  H10      1.0000 0.62404  0.17167  0.51293  Biso   1.000  H
  H11      1.0000 0.49440  0.13027  0.50441  Biso   1.000  H
  O4       1.0000 0.14819  0.35579  0.60392  Biso   1.000  O
  N10      1.0000 0.31136  0.32541  0.69918  Biso   1.000  N
  H12      1.0000 0.36639  0.16011  0.63083  Biso   1.000  H
  C14      1.0000 0.40286  0.26477  0.70913  Biso   1.000  C
  C15      1.0000 0.67609  0.47278  0.25820  Biso   1.000  C
  N11      1.0000 0.63702  0.54771  0.23247  Biso   1.000  N
  H13      1.0000 0.53254  0.56189  0.11810  Biso   1.000  H
  C16      1.0000 0.40951  0.66929  0.21820  Biso   1.000  C
  C17      1.0000 0.58245  0.26459  0.63842  Biso   1.000  C
  C18      1.0000 0.28632  0.38391  0.76628  Biso   1.000  C
  N12      1.0000 0.52673  0.29110  0.70913  Biso   1.000  N
  H14      1.0000 0.39009  0.22969  0.76039  Biso   1.000  H
  O5       1.0000 0.77396  0.45538  0.29381  Biso   1.000  O
  C19      1.0000 0.71374  0.61609  0.23371  Biso   1.000  C
  N13      1.0000 0.47334  0.70890  0.29093  Biso   1.000  N
  H15      1.0000 0.43746  0.69103  0.16288  Biso   1.000  H
  H16      1.0000 0.32259  0.68150  0.21957  Biso   1.000  H
  O6       1.0000 0.69190  0.27210  0.62762  Biso   1.000  O
  N14      1.0000 0.36296  0.45229  0.76752  Biso   1.000  N
  H17      1.0000 0.20168  0.40178  0.75672  Biso   1.000  H
  H18      1.0000 0.29480  0.35782  0.82428  Biso   1.000  H
  C20      1.0000 0.59047  0.33071  0.78179  Biso   1.000  C
  N15      1.0000 0.68861  0.67459  0.30082  Biso   1.000  N
  H19      1.0000 0.79829  0.59822  0.24327  Biso   1.000  H
  H20      1.0000 0.70518  0.64218  0.17571  Biso   1.000  H
  C21      1.0000 0.59712  0.73523  0.29093  Biso   1.000  C
  C22      1.0000 0.41762  0.73541  0.36157  Biso   1.000  C
  C23      1.0000 0.32389  0.52722  0.74179  Biso   1.000  C
  C24      1.0000 0.47670  0.45568  0.82029  Biso   1.000  C
  N16      1.0000 0.57521  0.41577  0.78192  Biso   1.000  N
  H21      1.0000 0.56251  0.30897  0.83711  Biso   1.000  H
  H22      1.0000 0.67739  0.31850  0.78042  Biso   1.000  H
  C25      1.0000 0.76064  0.68198  0.37689  Biso   1.000  C
  C26      1.0000 0.61402  0.78270  0.37957  Biso   1.000  C
  H23      1.0000 0.60988  0.77031  0.23961  Biso   1.000  H
  O7       1.0000 0.30808  0.72790  0.37237  Biso   1.000  O
  N17      1.0000 0.49823  0.77430  0.41663  Biso   1.000  N
  O8       1.0000 0.22601  0.54462  0.70618  Biso   1.000  O
  N18      1.0000 0.41569  0.58059  0.76032  Biso   1.000  N
  H24      1.0000 0.46753  0.43811  0.88189  Biso   1.000  H
  C27      1.0000 0.51184  0.54438  0.81531  Biso   1.000  C
  C28      1.0000 0.66557  0.46623  0.76032  Biso   1.000  C
  O9       1.0000 0.85178  0.64421  0.39607  Biso   1.000  O
  N19      1.0000 0.71407  0.74160  0.42572  Biso   1.000  N
  H25      1.0000 0.63359  0.83989  0.36923  Biso   1.000  H
  C29      1.0000 0.46360  0.81773  0.49322  Biso   1.000  C
  C30      1.0000 0.39518  0.66500  0.75901  Biso   1.000  C
  N20      1.0000 0.62753  0.54330  0.77623  Biso   1.000  N
  H26      1.0000 0.51847  0.56928  0.87482  Biso   1.000  H
  O10      1.0000 0.76307  0.44770  0.73400  Biso   1.000  O
  C31      1.0000 0.76763  0.76602  0.50939  Biso   1.000  C
  N21      1.0000 0.49106  0.77579  0.57420  Biso   1.000  N
  H27      1.0000 0.37603  0.82833  0.48713  Biso   1.000  H
  H28      1.0000 0.50558  0.86973  0.49558  Biso   1.000  H
  N22      1.0000 0.46158  0.70640  0.69440  Biso   1.000  N
  H29      1.0000 0.41844  0.68710  0.81760  Biso   1.000  H
  H30      1.0000 0.30823  0.67513  0.74657  Biso   1.000  H
  C32      1.0000 0.70497  0.61163  0.77531  Biso   1.000  C
  N23      1.0000 0.70278  0.73541  0.58252  Biso   1.000  N
  H31      1.0000 0.85186  0.74690  0.51528  Biso   1.000  H
  H32      1.0000 0.76921  0.82487  0.51207  Biso   1.000  H
  C33      1.0000 0.60789  0.77841  0.62219  Biso   1.000  C
  C34      1.0000 0.40637  0.73761  0.61761  Biso   1.000  C
  C35      1.0000 0.58740  0.72897  0.70651  Biso   1.000  C
  N24      1.0000 0.67487  0.66559  0.70422  Biso   1.000  N
  H33      1.0000 0.78896  0.59328  0.77132  Biso   1.000  H
  H34      1.0000 0.70069  0.64070  0.83129  Biso   1.000  H
  C36      1.0000 0.74748  0.67387  0.63561  Biso   1.000  C
  H35      1.0000 0.63251  0.83429  0.63679  Biso   1.000  H
  O11      1.0000 0.29828  0.73249  0.59869  Biso   1.000  O
  H36      1.0000 0.60206  0.76227  0.76019  Biso   1.000  H
  O12      1.0000 0.84006  0.63700  0.62507  Biso   1.000  O
  C37      1.0000 0.09053  0.16929  0.28183  Biso   1.000  C
  N25      1.0000 0.02669  0.20890  0.20910  Biso   1.000  N
  N26      1.0000 0.07518  0.08423  0.28190  Biso   1.000  N
  H37      1.0000 0.06248  0.19103  0.33708  Biso   1.000  H
  H38      1.0000 0.17744  0.18150  0.28039  Biso   1.000  H
  C38      1.0000 0.08241  0.23541  0.13839  Biso   1.000  C
  C39      1.0000 0.90292  0.23523  0.20910  Biso   1.000  C
  C40      1.0000 0.16563  0.03377  0.26029  Biso   1.000  C
  C41      1.0000 0.97667  0.04432  0.32032  Biso   1.000  C
  O13      1.0000 0.19186  0.22790  0.12759  Biso   1.000  O
  N27      1.0000 0.00180  0.27430  0.08340  Biso   1.000  N
  C42      1.0000 0.88601  0.28270  0.12039  Biso   1.000  C
  N28      1.0000 0.81142  0.17459  0.19921  Biso   1.000  N
  H39      1.0000 0.89006  0.27031  0.26042  Biso   1.000  H
  O14      1.0000 0.26312  0.05230  0.23398  Biso   1.000  O
  N29      1.0000 0.12749  0.95670  0.27620  Biso   1.000  N
  N30      1.0000 0.86301  0.04771  0.26749  Biso   1.000  N
  H40      1.0000 0.96750  0.06189  0.38193  Biso   1.000  H
  C43      1.0000 0.01180  0.95562  0.31528  Biso   1.000  C
  C44      1.0000 0.03643  0.31773  0.00681  Biso   1.000  C
  N31      1.0000 0.78588  0.24160  0.07430  Biso   1.000  N
  H41      1.0000 0.86644  0.33989  0.13080  Biso   1.000  H
  C45      1.0000 0.73939  0.18198  0.12308  Biso   1.000  C
  C46      1.0000 0.78629  0.11609  0.26632  Biso   1.000  C
  C47      1.0000 0.20502  0.88837  0.27528  Biso   1.000  C
  C48      1.0000 0.82395  0.97278  0.24183  Biso   1.000  C
  N32      1.0000 0.91574  0.91941  0.26029  Biso   1.000  N
  H42      1.0000 0.01852  0.93072  0.37479  Biso   1.000  H
  H43      1.0000 0.12400  0.32833  0.01290  Biso   1.000  H
  H44      1.0000 0.99436  0.36973  0.00439  Biso   1.000  H
  N33      1.0000 0.00889  0.27579  0.92583  Biso   1.000  N
  C49      1.0000 0.73241  0.26602  0.99064  Biso   1.000  C
  O15      1.0000 0.64816  0.14421  0.10389  Biso   1.000  O
  H45      1.0000 0.70174  0.09822  0.25669  Biso   1.000  H
  H46      1.0000 0.79477  0.14218  0.32432  Biso   1.000  H
  N34      1.0000 0.17492  0.83441  0.20419  Biso   1.000  N
  H47      1.0000 0.28902  0.90672  0.27129  Biso   1.000  H
  H48      1.0000 0.20066  0.85930  0.33132  Biso   1.000  H
  O16      1.0000 0.72598  0.95538  0.20622  Biso   1.000  O
  C50      1.0000 0.89524  0.83500  0.25898  Biso   1.000  C
  C51      1.0000 0.89215  0.27841  0.87784  Biso   1.000  C
  C52      1.0000 0.09366  0.23761  0.88242  Biso   1.000  C
  N35      1.0000 0.79726  0.23541  0.91751  Biso   1.000  N
  H49      1.0000 0.64808  0.24690  0.98468  Biso   1.000  H
  H50      1.0000 0.73082  0.32487  0.98789  Biso   1.000  H
  C53      1.0000 0.24753  0.82613  0.13558  Biso   1.000  C
  C54      1.0000 0.08737  0.77103  0.20648  Biso   1.000  C
  N36      1.0000 0.96163  0.79360  0.19437  Biso   1.000  N
  H51      1.0000 0.91840  0.81290  0.31758  Biso   1.000  H
  H52      1.0000 0.80820  0.82487  0.24661  Biso   1.000  H
  H53      1.0000 0.86751  0.33429  0.86318  Biso   1.000  H
  C55      1.0000 0.91263  0.22897  0.79352  Biso   1.000  C
  O17      1.0000 0.20175  0.23249  0.90128  Biso   1.000  O
  N37      1.0000 0.03846  0.20640  0.80563  Biso   1.000  N
  C56      1.0000 0.75256  0.17387  0.86442  Biso   1.000  C
  O18      1.0000 0.34012  0.86300  0.12511  Biso   1.000  O
  N38      1.0000 0.20283  0.76459  0.08249  Biso   1.000  N
  C57      1.0000 0.10795  0.72159  0.12222  Biso   1.000  C
  H54      1.0000 0.10212  0.73773  0.26023  Biso   1.000  H
  C58      1.0000 0.90643  0.76239  0.11758  Biso   1.000  C
  N39      1.0000 0.82517  0.16559  0.79581  Biso   1.000  N
  H55      1.0000 0.89789  0.26227  0.73984  Biso   1.000  H
  C59      1.0000 0.10485  0.16500  0.74102  Biso   1.000  C
  O19      1.0000 0.65988  0.13700  0.87489  Biso   1.000  O
  C60      1.0000 0.26760  0.73398  0.00943  Biso   1.000  C
  N40      1.0000 0.99111  0.72421  0.07417  Biso   1.000  N
  H56      1.0000 0.13249  0.66571  0.13682  Biso   1.000  H
  O20      1.0000 0.79834  0.76751  0.09872  Biso   1.000  O
  C61      1.0000 0.79507  0.11163  0.72472  Biso   1.000  C
  N41      1.0000 0.08435  0.08059  0.73971  Biso   1.000  N
  H57      1.0000 0.08160  0.18710  0.68242  Biso   1.000  H
  H58      1.0000 0.19180  0.17513  0.75339  Biso   1.000  H
  N42      1.0000 0.21412  0.75840  0.92570  Biso   1.000  N
  H59      1.0000 0.35192  0.75310  0.01532  Biso   1.000  H
  H60      1.0000 0.26918  0.67513  0.01211  Biso   1.000  H
  C62      1.0000 0.96366  0.68227  0.99319  Biso   1.000  C
  N43      1.0000 0.87251  0.04330  0.72380  Biso   1.000  N
  H61      1.0000 0.71098  0.09328  0.72871  Biso   1.000  H
  H62      1.0000 0.79934  0.14070  0.66868  Biso   1.000  H
  C63      1.0000 0.98820  0.04438  0.68472  Biso   1.000  C
  C64      1.0000 0.17615  0.02722  0.75823  Biso   1.000  C
  C65      1.0000 0.26061  0.81802  0.87692  Biso   1.000  C
  C66      1.0000 0.11399  0.71730  0.87961  Biso   1.000  C
  N44      1.0000 0.99820  0.72570  0.91660  Biso   1.000  N
  H63      1.0000 0.87600  0.67167  0.98710  Biso   1.000  H
  H64      1.0000 0.00564  0.63027  0.99561  Biso   1.000  H
  C67      1.0000 0.83446  0.96623  0.73971  Biso   1.000  C
  H65      1.0000 0.98157  0.06928  0.62521  Biso   1.000  H
  C68      1.0000 0.02334  0.95568  0.67974  Biso   1.000  C
  N45      1.0000 0.13699  0.95229  0.73251  Biso   1.000  N
  O21      1.0000 0.27402  0.04462  0.79378  Biso   1.000  O
  N46      1.0000 0.18867  0.82541  0.80079  Biso   1.000  N
  O22      1.0000 0.35184  0.85579  0.89611  Biso   1.000  O
  C69      1.0000 0.09708  0.76477  0.79090  Biso   1.000  C
  H66      1.0000 0.13365  0.66011  0.86920  Biso   1.000  H
  C70      1.0000 0.91759  0.76459  0.86161  Biso   1.000  C
  O23      1.0000 0.73697  0.94770  0.76602  Biso   1.000  O
  N47      1.0000 0.92482  0.91577  0.71810  Biso   1.000  N
  H67      1.0000 0.03251  0.93811  0.61814  Biso   1.000  H
  C71      1.0000 0.21371  0.88391  0.73368  Biso   1.000  C
  N48      1.0000 0.97331  0.79110  0.79090  Biso   1.000  N
  H68      1.0000 0.10994  0.72969  0.73958  Biso   1.000  H
  O24      1.0000 0.80814  0.77210  0.87241  Biso   1.000  O
  C72      1.0000 0.90957  0.83071  0.71823  Biso   1.000  C
  H69      1.0000 0.29835  0.90178  0.74331  Biso   1.000  H
  H70      1.0000 0.20523  0.85782  0.67568  Biso   1.000  H
  H71      1.0000 0.93752  0.80897  0.66292  Biso   1.000  H
  H72      1.0000 0.82265  0.81850  0.71961  Biso   1.000  H
  Ne1      1.0000 0.50000  0.50000  0.50000  Biso   1.000  Ne
  He1      1.0000 0.78117  0.46515  0.51494  Biso   1.000  He
  He2      1.0000 0.22154  0.53438  0.48520  Biso   1.000  He
  Ar1      1.0000 0.49999  0.50000  0.49999  Biso   1.000  Ar
  Ne2      1.0000 0.00002  0.00000  0.00000  Biso   1.000  Ne
  He3      1.0000 0.27755  0.03418  0.01471  Biso   1.000  He
  He4      1.0000 0.73460  0.93752  0.98660  Biso   1.000  He
  Ar2      1.0000 0.00002  0.00000  0.00001  Biso   1.000  Ar
