data_image0
_cell_length_a       17.24
_cell_length_b       17.673
_cell_length_c       15.064
_cell_angle_alpha    90
_cell_angle_beta     93.24
_cell_angle_gamma    90

_symmetry_space_group_name_H-M    "P 1"
_symmetry_int_tables_number       1

loop_
  _symmetry_equiv_pos_as_xyz
  'x, y, z'

loop_
  _atom_site_label
  _atom_site_occupancy
  _atom_site_fract_x
  _atom_site_fract_y
  _atom_site_fract_z
  _atom_site_thermal_displace_type
  _atom_site_B_iso_or_equiv
  _atom_site_type_symbol
  C1       1.0000 0.41142  0.35020  0.09508  Biso   1.000  C
  C2       1.0000 0.42815  0.26781  0.08730  Biso   1.000  C
  C3       1.0000 0.42821  0.26781  0.08737  Biso   1.000  C
  H1       1.0000 0.35787  0.35953  0.07719  Biso   1.000  H
  H2       1.0000 0.42131  0.36598  0.15559  Biso   1.000  H
  H3       1.0000 0.44419  0.37820  0.05738  Biso   1.000  H
  H4       1.0000 0.35793  0.35953  0.07719  Biso   1.000  H
  H5       1.0000 0.42132  0.36598  0.15565  Biso   1.000  H
  H6       1.0000 0.44419  0.37820  0.05745  Biso   1.000  H
  H7       1.0000 0.42131  0.36604  0.15559  Biso   1.000  H
  H8       1.0000 0.42132  0.36604  0.15565  Biso   1.000  H
  C4       1.0000 0.37702  0.22498  0.15140  Biso   1.000  C
  N1       1.0000 0.39660  0.24444  0.99920  Biso   1.000  N
  N2       1.0000 0.39666  0.24444  0.99927  Biso   1.000  N
  N3       1.0000 0.50536  0.23805  0.11097  Biso   1.000  N
  C5       1.0000 0.41143  0.35020  0.09515  Biso   1.000  C
  C6       1.0000 0.41142  0.35025  0.09508  Biso   1.000  C
  N4       1.0000 0.50536  0.23810  0.11097  Biso   1.000  N
  C7       1.0000 0.41143  0.35025  0.09515  Biso   1.000  C
  N5       1.0000 0.32526  0.17982  0.09215  Biso   1.000  N
  N6       1.0000 0.43180  0.17937  0.20459  Biso   1.000  N
  C8       1.0000 0.33832  0.27879  0.21104  Biso   1.000  C
  C9       1.0000 0.33838  0.27879  0.21104  Biso   1.000  C
  C10      1.0000 0.33508  0.19516  0.00439  Biso   1.000  C
  C11      1.0000 0.33514  0.19516  0.00439  Biso   1.000  C
  C12      1.0000 0.42293  0.27205  0.91695  Biso   1.000  C
  C13      1.0000 0.50569  0.18922  0.18212  Biso   1.000  C
  C14      1.0000 0.50569  0.18922  0.18218  Biso   1.000  C
  C15      1.0000 0.57701  0.27205  0.08305  Biso   1.000  C
  C16      1.0000 0.26038  0.13761  0.11968  Biso   1.000  C
  C17      1.0000 0.26043  0.13761  0.11968  Biso   1.000  C
  H9       1.0000 0.37678  0.31070  0.24049  Biso   1.000  H
  H10      1.0000 0.31147  0.25083  0.25452  Biso   1.000  H
  H11      1.0000 0.37678  0.31076  0.24049  Biso   1.000  H
  H12      1.0000 0.30192  0.30934  0.17640  Biso   1.000  H
  H13      1.0000 0.31153  0.25083  0.25452  Biso   1.000  H
  C18      1.0000 0.41278  0.13744  0.28345  Biso   1.000  C
  O1       1.0000 0.29591  0.17105  0.94069  Biso   1.000  O
  H14      1.0000 0.43054  0.32632  0.92194  Biso   1.000  H
  N7       1.0000 0.49458  0.23805  0.88903  Biso   1.000  N
  H15      1.0000 0.38231  0.26345  0.87074  Biso   1.000  H
  H16      1.0000 0.38236  0.26345  0.87074  Biso   1.000  H
  N8       1.0000 0.49458  0.23810  0.88903  Biso   1.000  N
  O2       1.0000 0.56365  0.16019  0.21888  Biso   1.000  O
  O3       1.0000 0.56366  0.16019  0.21895  Biso   1.000  O
  H17      1.0000 0.56940  0.32632  0.07799  Biso   1.000  H
  N9       1.0000 0.60334  0.24444  0.00073  Biso   1.000  N
  H18      1.0000 0.61763  0.26345  0.12919  Biso   1.000  H
  N10      1.0000 0.27802  0.06252  0.15160  Biso   1.000  N
  H19      1.0000 0.23653  0.16551  0.16642  Biso   1.000  H
  N11      1.0000 0.27808  0.06252  0.15166  Biso   1.000  N
  H20      1.0000 0.22242  0.13393  0.06981  Biso   1.000  H
  H21      1.0000 0.37471  0.16590  0.31470  Biso   1.000  H
  H22      1.0000 0.45920  0.13308  0.32261  Biso   1.000  H
  N12      1.0000 0.38283  0.06349  0.26536  Biso   1.000  N
  N13      1.0000 0.38289  0.06349  0.26543  Biso   1.000  N
  H23      1.0000 0.45920  0.13314  0.32261  Biso   1.000  H
  C19      1.0000 0.49425  0.18922  0.81782  Biso   1.000  C
  C20      1.0000 0.57173  0.26781  0.91263  Biso   1.000  C
  C21      1.0000 0.57179  0.26781  0.91263  Biso   1.000  C
  C22      1.0000 0.66480  0.19516  0.99555  Biso   1.000  C
  C23      1.0000 0.66486  0.19516  0.99561  Biso   1.000  C
  C24      1.0000 0.26289  0.00000  0.10013  Biso   1.000  C
  C25      1.0000 0.30211  0.04397  0.24349  Biso   1.000  C
  C26      1.0000 0.42888  0.00000  0.27580  Biso   1.000  C
  C27      1.0000 0.58851  0.35020  0.90485  Biso   1.000  C
  C28      1.0000 0.62292  0.22498  0.84860  Biso   1.000  C
  C29      1.0000 0.58851  0.35025  0.90485  Biso   1.000  C
  N14      1.0000 0.56814  0.17937  0.79534  Biso   1.000  N
  O4       1.0000 0.43629  0.16019  0.78105  Biso   1.000  O
  N15      1.0000 0.56820  0.17937  0.79534  Biso   1.000  N
  N16      1.0000 0.67468  0.17982  0.90778  Biso   1.000  N
  O5       1.0000 0.70403  0.17105  0.05924  Biso   1.000  O
  O6       1.0000 0.70403  0.17105  0.05931  Biso   1.000  O
  N17      1.0000 0.27802  0.93748  0.15160  Biso   1.000  N
  N18      1.0000 0.27808  0.93748  0.15166  Biso   1.000  N
  O7       1.0000 0.23866  0.00000  0.02287  Biso   1.000  O
  O8       1.0000 0.23872  0.00000  0.02294  Biso   1.000  O
  C30      1.0000 0.30211  0.95603  0.24349  Biso   1.000  C
  C31      1.0000 0.30211  0.95609  0.24349  Biso   1.000  C
  C32      1.0000 0.25170  0.06496  0.31516  Biso   1.000  C
  N19      1.0000 0.38283  0.93651  0.26536  Biso   1.000  N
  N20      1.0000 0.38289  0.93651  0.26543  Biso   1.000  N
  O9       1.0000 0.49925  0.00000  0.29375  Biso   1.000  O
  N21      1.0000 0.38283  0.93657  0.26536  Biso   1.000  N
  N22      1.0000 0.38289  0.93657  0.26543  Biso   1.000  N
  C33      1.0000 0.66156  0.27879  0.78890  Biso   1.000  C
  C34      1.0000 0.66162  0.27879  0.78896  Biso   1.000  C
  H24      1.0000 0.57862  0.36598  0.84435  Biso   1.000  H
  H25      1.0000 0.55575  0.37820  0.94255  Biso   1.000  H
  H26      1.0000 0.64207  0.35953  0.92274  Biso   1.000  H
  H27      1.0000 0.57862  0.36604  0.84435  Biso   1.000  H
  C35      1.0000 0.58716  0.13744  0.71649  Biso   1.000  C
  C36      1.0000 0.73950  0.13761  0.88025  Biso   1.000  C
  C37      1.0000 0.73957  0.13761  0.88032  Biso   1.000  C
  C38      1.0000 0.26038  0.86239  0.11968  Biso   1.000  C
  C39      1.0000 0.26043  0.86239  0.11968  Biso   1.000  C
  C40      1.0000 0.25170  0.93510  0.31516  Biso   1.000  C
  H28      1.0000 0.26850  0.03882  0.36869  Biso   1.000  H
  H29      1.0000 0.19896  0.05109  0.29847  Biso   1.000  H
  H30      1.0000 0.25468  0.11849  0.32500  Biso   1.000  H
  H31      1.0000 0.19902  0.05109  0.29854  Biso   1.000  H
  H32      1.0000 0.25474  0.11849  0.32500  Biso   1.000  H
  H33      1.0000 0.19896  0.05115  0.29847  Biso   1.000  H
  H34      1.0000 0.25468  0.11854  0.32500  Biso   1.000  H
  H35      1.0000 0.19902  0.05115  0.29854  Biso   1.000  H
  H36      1.0000 0.25474  0.11854  0.32500  Biso   1.000  H
  C41      1.0000 0.41278  0.86262  0.28345  Biso   1.000  C
  H37      1.0000 0.62315  0.31070  0.75944  Biso   1.000  H
  H38      1.0000 0.69801  0.30934  0.82354  Biso   1.000  H
  H39      1.0000 0.68841  0.25083  0.74541  Biso   1.000  H
  H40      1.0000 0.62315  0.31076  0.75944  Biso   1.000  H
  H41      1.0000 0.69807  0.30934  0.82354  Biso   1.000  H
  H42      1.0000 0.68847  0.25083  0.74548  Biso   1.000  H
  H43      1.0000 0.62523  0.16590  0.68524  Biso   1.000  H
  H44      1.0000 0.62524  0.16590  0.68530  Biso   1.000  H
  H45      1.0000 0.54074  0.13308  0.67739  Biso   1.000  H
  N23      1.0000 0.61711  0.06349  0.73457  Biso   1.000  N
  H46      1.0000 0.54074  0.13314  0.67739  Biso   1.000  H
  H47      1.0000 0.76341  0.16551  0.83351  Biso   1.000  H
  H48      1.0000 0.76347  0.16551  0.83358  Biso   1.000  H
  N24      1.0000 0.72192  0.06252  0.84834  Biso   1.000  N
  H49      1.0000 0.77753  0.13393  0.93019  Biso   1.000  H
  H50      1.0000 0.22242  0.86612  0.06981  Biso   1.000  H
  H51      1.0000 0.23653  0.83449  0.16642  Biso   1.000  H
  N25      1.0000 0.32526  0.82023  0.09215  Biso   1.000  N
  H52      1.0000 0.19896  0.94891  0.29847  Biso   1.000  H
  H53      1.0000 0.26850  0.96118  0.36869  Biso   1.000  H
  H54      1.0000 0.25468  0.88151  0.32500  Biso   1.000  H
  H55      1.0000 0.19902  0.94891  0.29854  Biso   1.000  H
  H56      1.0000 0.25474  0.88151  0.32500  Biso   1.000  H
  H57      1.0000 0.26850  0.96124  0.36869  Biso   1.000  H
  H58      1.0000 0.37471  0.83410  0.31470  Biso   1.000  H
  H59      1.0000 0.45920  0.86692  0.32261  Biso   1.000  H
  N26      1.0000 0.43180  0.82063  0.20459  Biso   1.000  N
  C42      1.0000 0.57107  0.00000  0.72420  Biso   1.000  C
  C43      1.0000 0.69784  0.04397  0.75651  Biso   1.000  C
  C44      1.0000 0.73705  0.00000  0.89987  Biso   1.000  C
  C45      1.0000 0.37702  0.77502  0.15140  Biso   1.000  C
  C46      1.0000 0.33508  0.80490  0.00439  Biso   1.000  C
  C47      1.0000 0.33514  0.80490  0.00439  Biso   1.000  C
  C48      1.0000 0.50569  0.81078  0.18212  Biso   1.000  C
  C49      1.0000 0.50569  0.81078  0.18218  Biso   1.000  C
  N27      1.0000 0.61711  0.93651  0.73457  Biso   1.000  N
  N28      1.0000 0.61711  0.93657  0.73457  Biso   1.000  N
  O10      1.0000 0.50069  0.00000  0.70625  Biso   1.000  O
  C50      1.0000 0.69784  0.95603  0.75651  Biso   1.000  C
  C51      1.0000 0.69784  0.95609  0.75651  Biso   1.000  C
  C52      1.0000 0.74824  0.06496  0.68484  Biso   1.000  C
  N29      1.0000 0.72192  0.93748  0.84834  Biso   1.000  N
  O11      1.0000 0.76128  0.00000  0.97706  Biso   1.000  O
  N30      1.0000 0.39660  0.75556  0.99920  Biso   1.000  N
  O12      1.0000 0.29591  0.82895  0.94069  Biso   1.000  O
  N31      1.0000 0.39666  0.75556  0.99927  Biso   1.000  N
  N32      1.0000 0.39660  0.75562  0.99920  Biso   1.000  N
  N33      1.0000 0.39666  0.75562  0.99927  Biso   1.000  N
  C53      1.0000 0.42815  0.73225  0.08730  Biso   1.000  C
  C54      1.0000 0.33832  0.72127  0.21104  Biso   1.000  C
  C55      1.0000 0.42821  0.73225  0.08737  Biso   1.000  C
  C56      1.0000 0.33838  0.72127  0.21104  Biso   1.000  C
  N34      1.0000 0.50536  0.76195  0.11097  Biso   1.000  N
  O13      1.0000 0.56365  0.83987  0.21888  Biso   1.000  O
  O14      1.0000 0.56366  0.83987  0.21895  Biso   1.000  O
  C57      1.0000 0.58716  0.86262  0.71649  Biso   1.000  C
  C58      1.0000 0.74824  0.93510  0.68484  Biso   1.000  C
  H60      1.0000 0.80092  0.05109  0.70146  Biso   1.000  H
  H61      1.0000 0.73144  0.03882  0.63125  Biso   1.000  H
  H62      1.0000 0.74520  0.11849  0.67493  Biso   1.000  H
  H63      1.0000 0.80098  0.05109  0.70146  Biso   1.000  H
  H64      1.0000 0.74526  0.11849  0.67500  Biso   1.000  H
  H65      1.0000 0.80092  0.05115  0.70146  Biso   1.000  H
  H66      1.0000 0.74520  0.11854  0.67493  Biso   1.000  H
  H67      1.0000 0.80098  0.05115  0.70146  Biso   1.000  H
  H68      1.0000 0.74526  0.11854  0.67500  Biso   1.000  H
  C59      1.0000 0.73950  0.86239  0.88025  Biso   1.000  C
  C60      1.0000 0.73957  0.86239  0.88032  Biso   1.000  C
  C61      1.0000 0.42293  0.72800  0.91695  Biso   1.000  C
  C62      1.0000 0.41142  0.64980  0.09508  Biso   1.000  C
  C63      1.0000 0.41143  0.64980  0.09515  Biso   1.000  C
  H69      1.0000 0.31147  0.74922  0.25452  Biso   1.000  H
  H70      1.0000 0.37678  0.68930  0.24049  Biso   1.000  H
  H71      1.0000 0.30192  0.69071  0.17640  Biso   1.000  H
  H72      1.0000 0.31153  0.74922  0.25452  Biso   1.000  H
  C64      1.0000 0.57701  0.72800  0.08305  Biso   1.000  C
  H73      1.0000 0.62523  0.83410  0.68524  Biso   1.000  H
  N35      1.0000 0.56814  0.82063  0.79534  Biso   1.000  N
  H74      1.0000 0.62524  0.83410  0.68530  Biso   1.000  H
  H75      1.0000 0.54074  0.86692  0.67739  Biso   1.000  H
  N36      1.0000 0.56820  0.82063  0.79534  Biso   1.000  N
  H76      1.0000 0.80092  0.94891  0.70146  Biso   1.000  H
  H77      1.0000 0.73144  0.96118  0.63125  Biso   1.000  H
  H78      1.0000 0.74520  0.88151  0.67493  Biso   1.000  H
  H79      1.0000 0.80098  0.94891  0.70146  Biso   1.000  H
  H80      1.0000 0.74526  0.88151  0.67500  Biso   1.000  H
  H81      1.0000 0.73144  0.96124  0.63125  Biso   1.000  H
  H82      1.0000 0.76341  0.83449  0.83351  Biso   1.000  H
  H83      1.0000 0.76347  0.83449  0.83358  Biso   1.000  H
  H84      1.0000 0.77753  0.86612  0.93019  Biso   1.000  H
  N37      1.0000 0.67468  0.82023  0.90778  Biso   1.000  N
  H85      1.0000 0.38231  0.73660  0.87074  Biso   1.000  H
  H86      1.0000 0.43054  0.67368  0.92194  Biso   1.000  H
  H87      1.0000 0.38236  0.73660  0.87074  Biso   1.000  H
  N38      1.0000 0.49458  0.76195  0.88903  Biso   1.000  N
  H88      1.0000 0.43054  0.67374  0.92194  Biso   1.000  H
  H89      1.0000 0.35787  0.64047  0.07719  Biso   1.000  H
  H90      1.0000 0.42131  0.63402  0.15559  Biso   1.000  H
  H91      1.0000 0.44419  0.62180  0.05738  Biso   1.000  H
  H92      1.0000 0.35793  0.64047  0.07719  Biso   1.000  H
  H93      1.0000 0.42132  0.63402  0.15565  Biso   1.000  H
  H94      1.0000 0.44419  0.62180  0.05745  Biso   1.000  H
  H95      1.0000 0.35787  0.64053  0.07719  Biso   1.000  H
  H96      1.0000 0.35793  0.64053  0.07719  Biso   1.000  H
  H97      1.0000 0.56940  0.67368  0.07799  Biso   1.000  H
  H98      1.0000 0.61763  0.73660  0.12919  Biso   1.000  H
  N39      1.0000 0.60334  0.75556  0.00073  Biso   1.000  N
  H99      1.0000 0.56940  0.67374  0.07799  Biso   1.000  H
  N40      1.0000 0.60334  0.75562  0.00073  Biso   1.000  N
  C65      1.0000 0.49425  0.81078  0.81782  Biso   1.000  C
  C66      1.0000 0.62292  0.77502  0.84860  Biso   1.000  C
  C67      1.0000 0.66480  0.80490  0.99555  Biso   1.000  C
  C68      1.0000 0.66486  0.80490  0.99561  Biso   1.000  C
  C69      1.0000 0.57173  0.73225  0.91263  Biso   1.000  C
  C70      1.0000 0.57179  0.73225  0.91263  Biso   1.000  C
  O15      1.0000 0.43629  0.83987  0.78105  Biso   1.000  O
  C71      1.0000 0.66156  0.72127  0.78890  Biso   1.000  C
  C72      1.0000 0.66162  0.72127  0.78896  Biso   1.000  C
  O16      1.0000 0.70403  0.82895  0.05924  Biso   1.000  O
  O17      1.0000 0.70403  0.82895  0.05931  Biso   1.000  O
  C73      1.0000 0.58851  0.64980  0.90485  Biso   1.000  C
  H100     1.0000 0.69801  0.69071  0.82354  Biso   1.000  H
  H101     1.0000 0.68841  0.74922  0.74541  Biso   1.000  H
  H102     1.0000 0.62315  0.68930  0.75944  Biso   1.000  H
  H103     1.0000 0.69807  0.69071  0.82354  Biso   1.000  H
  H104     1.0000 0.68847  0.74922  0.74548  Biso   1.000  H
  H105     1.0000 0.57862  0.63402  0.84435  Biso   1.000  H
  H106     1.0000 0.55575  0.62180  0.94255  Biso   1.000  H
  H107     1.0000 0.64207  0.64047  0.92274  Biso   1.000  H
  H108     1.0000 0.64207  0.64053  0.92274  Biso   1.000  H
  C74      1.0000 0.16486  0.30487  0.99555  Biso   1.000  C
  C75      1.0000 0.16481  0.30487  0.99561  Biso   1.000  C
  N41      1.0000 0.10328  0.25559  0.00073  Biso   1.000  N
  N42      1.0000 0.17468  0.32021  0.90778  Biso   1.000  N
  O18      1.0000 0.20403  0.32898  0.05924  Biso   1.000  O
  O19      1.0000 0.20403  0.32898  0.05931  Biso   1.000  O
  C76      1.0000 0.07701  0.22797  0.08305  Biso   1.000  C
  C77      1.0000 0.07173  0.23222  0.91263  Biso   1.000  C
  C78      1.0000 0.07179  0.23222  0.91263  Biso   1.000  C
  C79      1.0000 0.12292  0.27505  0.84860  Biso   1.000  C
  C80      1.0000 0.23957  0.36242  0.88032  Biso   1.000  C
  C81      1.0000 0.23951  0.36242  0.88032  Biso   1.000  C
  H109     1.0000 0.06940  0.17371  0.07799  Biso   1.000  H
  N43      1.0000 0.00536  0.26192  0.11097  Biso   1.000  N
  H110     1.0000 0.11763  0.23663  0.12919  Biso   1.000  H
  N44      1.0000 0.00542  0.26192  0.11097  Biso   1.000  N
  N45      1.0000 0.99458  0.26192  0.88903  Biso   1.000  N
  N46      1.0000 0.99452  0.26192  0.88896  Biso   1.000  N
  C82      1.0000 0.08851  0.14978  0.90485  Biso   1.000  C
  C83      1.0000 0.08857  0.14978  0.90485  Biso   1.000  C
  N47      1.0000 0.06814  0.32066  0.79534  Biso   1.000  N
  C84      1.0000 0.16162  0.22124  0.78896  Biso   1.000  C
  N48      1.0000 0.06820  0.32066  0.79534  Biso   1.000  N
  N49      1.0000 0.22192  0.43750  0.84834  Biso   1.000  N
  H111     1.0000 0.26347  0.33452  0.83351  Biso   1.000  H
  H112     1.0000 0.27758  0.36610  0.93012  Biso   1.000  H
  H113     1.0000 0.26342  0.33452  0.83358  Biso   1.000  H
  H114     1.0000 0.27753  0.36610  0.93019  Biso   1.000  H
  C85      1.0000 0.92815  0.23222  0.08730  Biso   1.000  C
  C86      1.0000 0.92821  0.23222  0.08737  Biso   1.000  C
  C87      1.0000 0.00569  0.31081  0.18212  Biso   1.000  C
  C88      1.0000 0.00569  0.31081  0.18218  Biso   1.000  C
  C89      1.0000 0.99425  0.31081  0.81782  Biso   1.000  C
  C90      1.0000 0.92293  0.22797  0.91695  Biso   1.000  C
  H115     1.0000 0.14201  0.14050  0.92274  Biso   1.000  H
  H116     1.0000 0.07862  0.13399  0.84435  Biso   1.000  H
  H117     1.0000 0.05575  0.12182  0.94255  Biso   1.000  H
  H118     1.0000 0.14207  0.14050  0.92274  Biso   1.000  H
  H119     1.0000 0.07868  0.13399  0.84435  Biso   1.000  H
  H120     1.0000 0.18841  0.24919  0.74541  Biso   1.000  H
  H121     1.0000 0.12315  0.18933  0.75944  Biso   1.000  H
  H122     1.0000 0.19807  0.19069  0.82354  Biso   1.000  H
  H123     1.0000 0.18847  0.24919  0.74548  Biso   1.000  H
  H124     1.0000 0.18847  0.24919  0.74541  Biso   1.000  H
  H125     1.0000 0.18842  0.24919  0.74548  Biso   1.000  H
  C91      1.0000 0.08716  0.36264  0.71649  Biso   1.000  C
  C92      1.0000 0.08722  0.36264  0.71649  Biso   1.000  C
  C93      1.0000 0.19784  0.45606  0.75651  Biso   1.000  C
  C94      1.0000 0.23705  0.50003  0.89987  Biso   1.000  C
  C95      1.0000 0.19789  0.45606  0.75651  Biso   1.000  C
  C96      1.0000 0.23711  0.50003  0.89980  Biso   1.000  C
  N50      1.0000 0.89660  0.25559  0.99920  Biso   1.000  N
  N51      1.0000 0.89666  0.25559  0.99927  Biso   1.000  N
  N52      1.0000 0.89660  0.25559  0.99927  Biso   1.000  N
  C97      1.0000 0.87702  0.27505  0.15140  Biso   1.000  C
  C98      1.0000 0.91137  0.14978  0.09508  Biso   1.000  C
  C99      1.0000 0.91143  0.14978  0.09515  Biso   1.000  C
  N53      1.0000 0.93174  0.32066  0.20459  Biso   1.000  N
  O20      1.0000 0.06365  0.33984  0.21888  Biso   1.000  O
  O21      1.0000 0.06371  0.33984  0.21895  Biso   1.000  O
  O22      1.0000 0.06366  0.33984  0.21895  Biso   1.000  O
  O23      1.0000 0.93629  0.33984  0.78105  Biso   1.000  O
  O24      1.0000 0.93623  0.33984  0.78105  Biso   1.000  O
  H126     1.0000 0.88236  0.23663  0.87074  Biso   1.000  H
  H127     1.0000 0.93054  0.17371  0.92194  Biso   1.000  H
  H128     1.0000 0.88231  0.23663  0.87074  Biso   1.000  H
  N54      1.0000 0.11711  0.43654  0.73457  Biso   1.000  N
  H129     1.0000 0.04074  0.36689  0.67739  Biso   1.000  H
  H130     1.0000 0.12529  0.33413  0.68524  Biso   1.000  H
  H131     1.0000 0.04079  0.36689  0.67733  Biso   1.000  H
  H132     1.0000 0.12524  0.33413  0.68530  Biso   1.000  H
  N55      1.0000 0.22192  0.56255  0.84834  Biso   1.000  N
  O25      1.0000 0.26128  0.50003  0.97706  Biso   1.000  O
  C100     1.0000 0.19784  0.54394  0.75651  Biso   1.000  C
  C101     1.0000 0.19789  0.54394  0.75651  Biso   1.000  C
  C102     1.0000 0.24830  0.43507  0.68477  Biso   1.000  C
  C103     1.0000 0.24824  0.43507  0.68484  Biso   1.000  C
  C104     1.0000 0.83508  0.30487  0.00439  Biso   1.000  C
  C105     1.0000 0.83832  0.22124  0.21104  Biso   1.000  C
  N56      1.0000 0.82526  0.32021  0.09215  Biso   1.000  N
  H133     1.0000 0.94419  0.12182  0.05738  Biso   1.000  H
  H134     1.0000 0.85787  0.14050  0.07719  Biso   1.000  H
  H135     1.0000 0.94419  0.12182  0.05745  Biso   1.000  H
  H136     1.0000 0.92126  0.13399  0.15559  Biso   1.000  H
  H137     1.0000 0.92132  0.13399  0.15565  Biso   1.000  H
  C106     1.0000 0.91272  0.36264  0.28345  Biso   1.000  C
  C107     1.0000 0.07107  0.50003  0.72420  Biso   1.000  C
  C108     1.0000 0.23957  0.63764  0.88032  Biso   1.000  C
  C109     1.0000 0.23951  0.63764  0.88032  Biso   1.000  C
  N57      1.0000 0.11711  0.56346  0.73457  Biso   1.000  N
  C110     1.0000 0.24830  0.56493  0.68477  Biso   1.000  C
  C111     1.0000 0.24824  0.56493  0.68484  Biso   1.000  C
  H138     1.0000 0.24526  0.38149  0.67493  Biso   1.000  H
  H139     1.0000 0.30098  0.44893  0.70146  Biso   1.000  H
  H140     1.0000 0.24526  0.38149  0.67500  Biso   1.000  H
  H141     1.0000 0.23150  0.46121  0.63125  Biso   1.000  H
  O26      1.0000 0.79585  0.32898  0.94069  Biso   1.000  O
  H142     1.0000 0.87678  0.18933  0.24049  Biso   1.000  H
  H143     1.0000 0.80187  0.19069  0.17640  Biso   1.000  H
  H144     1.0000 0.81147  0.24919  0.25452  Biso   1.000  H
  C112     1.0000 0.76038  0.36242  0.11968  Biso   1.000  C
  H145     1.0000 0.95920  0.36689  0.32261  Biso   1.000  H
  H146     1.0000 0.87465  0.33413  0.31470  Biso   1.000  H
  H147     1.0000 0.95915  0.36689  0.32261  Biso   1.000  H
  N58      1.0000 0.88283  0.43654  0.26543  Biso   1.000  N
  O27      1.0000 0.00075  0.50003  0.70618  Biso   1.000  O
  O28      1.0000 0.00069  0.50003  0.70625  Biso   1.000  O
  N59      1.0000 0.17468  0.67985  0.90778  Biso   1.000  N
  H148     1.0000 0.26347  0.66553  0.83351  Biso   1.000  H
  H149     1.0000 0.27758  0.63390  0.93012  Biso   1.000  H
  H150     1.0000 0.26342  0.66553  0.83358  Biso   1.000  H
  H151     1.0000 0.27753  0.63390  0.93019  Biso   1.000  H
  H152     1.0000 0.24526  0.61851  0.67493  Biso   1.000  H
  H153     1.0000 0.30098  0.55112  0.70146  Biso   1.000  H
  H154     1.0000 0.24526  0.61851  0.67500  Biso   1.000  H
  H155     1.0000 0.23150  0.53879  0.63125  Biso   1.000  H
  C113     1.0000 0.08716  0.63741  0.71649  Biso   1.000  C
  C114     1.0000 0.08722  0.63741  0.71649  Biso   1.000  C
  H156     1.0000 0.72242  0.36610  0.06981  Biso   1.000  H
  N60      1.0000 0.77802  0.43750  0.15160  Biso   1.000  N
  H157     1.0000 0.73647  0.33452  0.16642  Biso   1.000  H
  H158     1.0000 0.72236  0.36610  0.06981  Biso   1.000  H
  N61      1.0000 0.77802  0.43750  0.15166  Biso   1.000  N
  C115     1.0000 0.92888  0.50003  0.27580  Biso   1.000  C
  C116     1.0000 0.80204  0.45606  0.24342  Biso   1.000  C
  C117     1.0000 0.80211  0.45606  0.24349  Biso   1.000  C
  C118     1.0000 0.12292  0.72500  0.84860  Biso   1.000  C
  C119     1.0000 0.16486  0.69513  0.99555  Biso   1.000  C
  C120     1.0000 0.16481  0.69513  0.99561  Biso   1.000  C
  N62      1.0000 0.06814  0.67940  0.79534  Biso   1.000  N
  H159     1.0000 0.04074  0.63311  0.67739  Biso   1.000  H
  N63      1.0000 0.06820  0.67940  0.79534  Biso   1.000  N
  H160     1.0000 0.12529  0.66593  0.68524  Biso   1.000  H
  H161     1.0000 0.04079  0.63311  0.67733  Biso   1.000  H
  H162     1.0000 0.12524  0.66593  0.68530  Biso   1.000  H
  C121     1.0000 0.76289  0.50003  0.10013  Biso   1.000  C
  C122     1.0000 0.76283  0.50003  0.10013  Biso   1.000  C
  O29      1.0000 0.99925  0.50003  0.29375  Biso   1.000  O
  N64      1.0000 0.88283  0.56346  0.26543  Biso   1.000  N
  O30      1.0000 0.99919  0.50003  0.29375  Biso   1.000  O
  C123     1.0000 0.75164  0.43507  0.31516  Biso   1.000  C
  C124     1.0000 0.80204  0.54394  0.24342  Biso   1.000  C
  C125     1.0000 0.80211  0.54394  0.24349  Biso   1.000  C
  O31      1.0000 0.20403  0.67108  0.05924  Biso   1.000  O
  N65      1.0000 0.10328  0.74441  0.00073  Biso   1.000  N
  O32      1.0000 0.20403  0.67108  0.05931  Biso   1.000  O
  C126     1.0000 0.07173  0.76778  0.91263  Biso   1.000  C
  C127     1.0000 0.07179  0.76778  0.91263  Biso   1.000  C
  C128     1.0000 0.16162  0.77876  0.78896  Biso   1.000  C
  C129     1.0000 0.99425  0.68924  0.81782  Biso   1.000  C
  N66      1.0000 0.77802  0.56255  0.15160  Biso   1.000  N
  O33      1.0000 0.73866  0.50003  0.02287  Biso   1.000  O
  N67      1.0000 0.77802  0.56255  0.15166  Biso   1.000  N
  O34      1.0000 0.73866  0.50003  0.02294  Biso   1.000  O
  C130     1.0000 0.91272  0.63741  0.28345  Biso   1.000  C
  C131     1.0000 0.75164  0.56493  0.31516  Biso   1.000  C
  H163     1.0000 0.69902  0.44893  0.29847  Biso   1.000  H
  H164     1.0000 0.76850  0.46121  0.36869  Biso   1.000  H
  H165     1.0000 0.75468  0.38149  0.32500  Biso   1.000  H
  H166     1.0000 0.69897  0.44893  0.29854  Biso   1.000  H
  H167     1.0000 0.76844  0.46121  0.36869  Biso   1.000  H
  H168     1.0000 0.69896  0.44893  0.29847  Biso   1.000  H
  H169     1.0000 0.69902  0.44893  0.29854  Biso   1.000  H
  C132     1.0000 0.07701  0.77203  0.08305  Biso   1.000  C
  N68      1.0000 0.99458  0.73808  0.88903  Biso   1.000  N
  N69      1.0000 0.99452  0.73808  0.88896  Biso   1.000  N
  C133     1.0000 0.08851  0.85022  0.90485  Biso   1.000  C
  C134     1.0000 0.08857  0.85022  0.90485  Biso   1.000  C
  H170     1.0000 0.18841  0.75081  0.74541  Biso   1.000  H
  H171     1.0000 0.12315  0.81073  0.75944  Biso   1.000  H
  H172     1.0000 0.19807  0.80931  0.82354  Biso   1.000  H
  H173     1.0000 0.18847  0.75081  0.74548  Biso   1.000  H
  H174     1.0000 0.18847  0.75081  0.74541  Biso   1.000  H
  H175     1.0000 0.18842  0.75081  0.74548  Biso   1.000  H
  O35      1.0000 0.93629  0.66016  0.78105  Biso   1.000  O
  O36      1.0000 0.93623  0.66016  0.78105  Biso   1.000  O
  C135     1.0000 0.76038  0.63764  0.11968  Biso   1.000  C
  H176     1.0000 0.95920  0.63311  0.32261  Biso   1.000  H
  H177     1.0000 0.87465  0.66593  0.31470  Biso   1.000  H
  H178     1.0000 0.95915  0.63311  0.32261  Biso   1.000  H
  N70      1.0000 0.93174  0.67940  0.20459  Biso   1.000  N
  H179     1.0000 0.69902  0.55112  0.29847  Biso   1.000  H
  H180     1.0000 0.76850  0.53879  0.36869  Biso   1.000  H
  H181     1.0000 0.75468  0.61851  0.32500  Biso   1.000  H
  H182     1.0000 0.69897  0.55112  0.29854  Biso   1.000  H
  H183     1.0000 0.76844  0.53879  0.36869  Biso   1.000  H
  H184     1.0000 0.69896  0.55112  0.29847  Biso   1.000  H
  H185     1.0000 0.69902  0.55112  0.29854  Biso   1.000  H
  N71      1.0000 0.00536  0.73808  0.11097  Biso   1.000  N
  N72      1.0000 0.00542  0.73808  0.11097  Biso   1.000  N
  H186     1.0000 0.06940  0.82635  0.07799  Biso   1.000  H
  H187     1.0000 0.11763  0.76342  0.12919  Biso   1.000  H
  C136     1.0000 0.92293  0.77203  0.91695  Biso   1.000  C
  H188     1.0000 0.14201  0.85950  0.92274  Biso   1.000  H
  H189     1.0000 0.07862  0.86601  0.84435  Biso   1.000  H
  H190     1.0000 0.05575  0.87823  0.94255  Biso   1.000  H
  H191     1.0000 0.14207  0.85950  0.92274  Biso   1.000  H
  H192     1.0000 0.07868  0.86601  0.84435  Biso   1.000  H
  H193     1.0000 0.72242  0.63390  0.06981  Biso   1.000  H
  N73      1.0000 0.82526  0.67985  0.09215  Biso   1.000  N
  H194     1.0000 0.73647  0.66553  0.16642  Biso   1.000  H
  H195     1.0000 0.72236  0.63390  0.06981  Biso   1.000  H
  C137     1.0000 0.87702  0.72500  0.15140  Biso   1.000  C
  C138     1.0000 0.00569  0.68924  0.18212  Biso   1.000  C
  C139     1.0000 0.00569  0.68924  0.18218  Biso   1.000  C
  C140     1.0000 0.92815  0.76778  0.08730  Biso   1.000  C
  C141     1.0000 0.92821  0.76778  0.08737  Biso   1.000  C
  N74      1.0000 0.89660  0.74441  0.99920  Biso   1.000  N
  N75      1.0000 0.89666  0.74441  0.99927  Biso   1.000  N
  N76      1.0000 0.89660  0.74441  0.99927  Biso   1.000  N
  H196     1.0000 0.88236  0.76342  0.87074  Biso   1.000  H
  H197     1.0000 0.93054  0.82635  0.92194  Biso   1.000  H
  H198     1.0000 0.88231  0.76342  0.87074  Biso   1.000  H
  C142     1.0000 0.83508  0.69513  0.00439  Biso   1.000  C
  C143     1.0000 0.83832  0.77876  0.21104  Biso   1.000  C
  O37      1.0000 0.06365  0.66016  0.21888  Biso   1.000  O
  O38      1.0000 0.06371  0.66016  0.21895  Biso   1.000  O
  O39      1.0000 0.06366  0.66016  0.21895  Biso   1.000  O
  C144     1.0000 0.91137  0.85022  0.09508  Biso   1.000  C
  C145     1.0000 0.91143  0.85022  0.09515  Biso   1.000  C
  O40      1.0000 0.79585  0.67108  0.94069  Biso   1.000  O
  H199     1.0000 0.87678  0.81073  0.24049  Biso   1.000  H
  H200     1.0000 0.80187  0.80931  0.17640  Biso   1.000  H
  H201     1.0000 0.81147  0.75081  0.25452  Biso   1.000  H
  H202     1.0000 0.94419  0.87823  0.05738  Biso   1.000  H
  H203     1.0000 0.85787  0.85950  0.07719  Biso   1.000  H
  H204     1.0000 0.94419  0.87823  0.05745  Biso   1.000  H
  H205     1.0000 0.92126  0.86601  0.15559  Biso   1.000  H
  H206     1.0000 0.92132  0.86601  0.15565  Biso   1.000  H
  Ne1      1.0000 0.49333  0.00340  0.01426  Biso   1.000  Ne
  He1      1.0000 0.63884  0.00003  0.14183  Biso   1.000  He
  He2      1.0000 0.36350  0.00003  0.86069  Biso   1.000  He
  Ar1      1.0000 0.49303  1.00000  0.99980  Biso   1.000  Ar
  Ne2      1.0000 0.00665  0.50001  0.99663  Biso   1.000  Ne
  He3      1.0000 0.14090  0.50000  0.14404  Biso   1.000  He
  He4      1.0000 0.86346  0.50000  0.86067  Biso   1.000  He
  Ar2      1.0000 0.00688  0.50003  0.00013  Biso   1.000  Ar
