data_image0
_cell_length_a       12.075
_cell_length_b       12.319
_cell_length_c       12.32
_cell_angle_alpha    106.54
_cell_angle_beta     97.09
_cell_angle_gamma    107.69

_symmetry_space_group_name_H-M    "P 1"
_symmetry_int_tables_number       1

loop_
  _symmetry_equiv_pos_as_xyz
  'x, y, z'

loop_
  _atom_site_label
  _atom_site_occupancy
  _atom_site_fract_x
  _atom_site_fract_y
  _atom_site_fract_z
  _atom_site_thermal_displace_type
  _atom_site_B_iso_or_equiv
  _atom_site_type_symbol
  C1       1.0000 0.83682  0.65212  0.68227  Biso   1.000  C
  N1       1.0000 0.77026  0.60241  0.74961  Biso   1.000  N
  N2       1.0000 0.78176  0.72109  0.64277  Biso   1.000  N
  O1       1.0000 0.92913  0.63850  0.66096  Biso   1.000  O
  N3       1.0000 0.78186  0.72117  0.64277  Biso   1.000  N
  O2       1.0000 0.92902  0.63842  0.66096  Biso   1.000  O
  C2       1.0000 0.81972  0.76968  0.55429  Biso   1.000  C
  C3       1.0000 0.65914  0.68948  0.65574  Biso   1.000  C
  C4       1.0000 0.65925  0.68956  0.65574  Biso   1.000  C
  C5       1.0000 0.81982  0.76977  0.55429  Biso   1.000  C
  C6       1.0000 0.65330  0.61306  0.73569  Biso   1.000  C
  C7       1.0000 0.65319  0.61298  0.73569  Biso   1.000  C
  C8       1.0000 0.80263  0.52369  0.80581  Biso   1.000  C
  N4       1.0000 0.86862  0.90125  0.59440  Biso   1.000  N
  H1       1.0000 0.75191  0.74124  0.48904  Biso   1.000  H
  N5       1.0000 0.86859  0.90116  0.59440  Biso   1.000  N
  H2       1.0000 0.75200  0.74124  0.48904  Biso   1.000  H
  H3       1.0000 0.87979  0.73882  0.52662  Biso   1.000  H
  N6       1.0000 0.86851  0.90116  0.59440  Biso   1.000  N
  H4       1.0000 0.87971  0.73882  0.52662  Biso   1.000  H
  H5       1.0000 0.60224  0.64339  0.58039  Biso   1.000  H
  N7       1.0000 0.62924  0.79077  0.72073  Biso   1.000  N
  H6       1.0000 0.60229  0.64330  0.58039  Biso   1.000  H
  N8       1.0000 0.62913  0.79068  0.72073  Biso   1.000  N
  H7       1.0000 0.60221  0.64330  0.58039  Biso   1.000  H
  H8       1.0000 0.60232  0.64339  0.58039  Biso   1.000  H
  H9       1.0000 0.58961  0.53351  0.70002  Biso   1.000  H
  N9       1.0000 0.62972  0.68531  0.84009  Biso   1.000  N
  N10      1.0000 0.62983  0.68540  0.84009  Biso   1.000  N
  H10      1.0000 0.58950  0.53343  0.70002  Biso   1.000  H
  N11      1.0000 0.84765  0.58104  0.93014  Biso   1.000  N
  H11      1.0000 0.73306  0.45156  0.79007  Biso   1.000  H
  N12      1.0000 0.84774  0.58104  0.93014  Biso   1.000  N
  H12      1.0000 0.86302  0.49845  0.77214  Biso   1.000  H
  C9       1.0000 0.79635  0.97659  0.60119  Biso   1.000  C
  C10      1.0000 0.98781  0.96668  0.62294  Biso   1.000  C
  C11      1.0000 0.79626  0.97659  0.60119  Biso   1.000  C
  C12      1.0000 0.98792  0.96676  0.62294  Biso   1.000  C
  C13      1.0000 0.61653  0.88411  0.67740  Biso   1.000  C
  C14      1.0000 0.61210  0.78645  0.82809  Biso   1.000  C
  C15      1.0000 0.61208  0.78636  0.82809  Biso   1.000  C
  C16      1.0000 0.60198  0.64268  0.93458  Biso   1.000  C
  C17      1.0000 0.60190  0.64268  0.93458  Biso   1.000  C
  C18      1.0000 0.96741  0.61980  0.98269  Biso   1.000  C
  C19      1.0000 0.96732  0.61980  0.98269  Biso   1.000  C
  C20      1.0000 0.77234  0.58234  0.01349  Biso   1.000  C
  C21      1.0000 0.77226  0.58234  0.01349  Biso   1.000  C
  O3       1.0000 0.06850  0.92566  0.61493  Biso   1.000  O
  O4       1.0000 0.06839  0.92558  0.61493  Biso   1.000  O
  N13      1.0000 0.00302  0.08807  0.65791  Biso   1.000  N
  N14      1.0000 0.00294  0.08807  0.65791  Biso   1.000  N
  H13      1.0000 0.74556  0.95831  0.52497  Biso   1.000  H
  H14      1.0000 0.74553  0.95823  0.52497  Biso   1.000  H
  N15      1.0000 0.72835  0.97837  0.69019  Biso   1.000  N
  N16      1.0000 0.72846  0.97845  0.69019  Biso   1.000  N
  H15      1.0000 0.74545  0.95823  0.52497  Biso   1.000  H
  C22      1.0000 0.89056  0.10749  0.64564  Biso   1.000  C
  H16      1.0000 0.57636  0.84732  0.59562  Biso   1.000  H
  H17      1.0000 0.57628  0.84732  0.59562  Biso   1.000  H
  H18      1.0000 0.56589  0.92052  0.71829  Biso   1.000  H
  O5       1.0000 0.58466  0.85953  0.89978  Biso   1.000  O
  O6       1.0000 0.58455  0.85950  0.89969  Biso   1.000  O
  O7       1.0000 0.58466  0.85958  0.89969  Biso   1.000  O
  O8       1.0000 0.58457  0.85953  0.89978  Biso   1.000  O
  H19      1.0000 0.55274  0.68331  0.97295  Biso   1.000  H
  H20      1.0000 0.55574  0.55652  0.90308  Biso   1.000  H
  H21      1.0000 0.55263  0.68323  0.97295  Biso   1.000  H
  N17      1.0000 0.70611  0.66334  0.01940  Biso   1.000  N
  N18      1.0000 0.70613  0.66342  0.01940  Biso   1.000  N
  N19      1.0000 0.70605  0.66342  0.01940  Biso   1.000  N
  N20      1.0000 0.97816  0.66473  0.10014  Biso   1.000  N
  N21      1.0000 0.97810  0.66482  0.10014  Biso   1.000  N
  O9       1.0000 0.04760  0.61325  0.93327  Biso   1.000  O
  O10      1.0000 0.04766  0.61316  0.93327  Biso   1.000  O
  C23      1.0000 0.86427  0.64174  0.13233  Biso   1.000  C
  H22      1.0000 0.71998  0.50018  0.00383  Biso   1.000  H
  C24      1.0000 0.86419  0.64174  0.13233  Biso   1.000  C
  H23      1.0000 0.72001  0.50027  0.00383  Biso   1.000  H
  C25      1.0000 0.11725  0.18382  0.68810  Biso   1.000  C
  C26      1.0000 0.76330  0.09141  0.77293  Biso   1.000  C
  N22      1.0000 0.86358  0.16469  0.75422  Biso   1.000  N
  H24      1.0000 0.88325  0.14973  0.59014  Biso   1.000  H
  N23      1.0000 0.86363  0.16481  0.75431  Biso   1.000  N
  H25      1.0000 0.88314  0.14964  0.59014  Biso   1.000  H
  C27      1.0000 0.74166  0.75508  0.12520  Biso   1.000  C
  C28      1.0000 0.74177  0.75517  0.12520  Biso   1.000  C
  C29      1.0000 0.08858  0.70509  0.18453  Biso   1.000  C
  C30      1.0000 0.08861  0.70517  0.18453  Biso   1.000  C
  N24      1.0000 0.83948  0.74940  0.18862  Biso   1.000  N
  H26      1.0000 0.85399  0.58737  0.17792  Biso   1.000  H
  N25      1.0000 0.83937  0.74931  0.18862  Biso   1.000  N
  H27      1.0000 0.85388  0.58729  0.17792  Biso   1.000  H
  N26      1.0000 0.16071  0.25068  0.81138  Biso   1.000  N
  H28      1.0000 0.11117  0.23985  0.64791  Biso   1.000  H
  H29      1.0000 0.17512  0.14927  0.66061  Biso   1.000  H
  H30      1.0000 0.17507  0.14935  0.66061  Biso   1.000  H
  O11      1.0000 0.71098  0.11995  0.84949  Biso   1.000  O
  O12      1.0000 0.71109  0.12004  0.84949  Biso   1.000  O
  C31      1.0000 0.91149  0.29490  0.81547  Biso   1.000  C
  C32      1.0000 0.91158  0.29490  0.81547  Biso   1.000  C
  O13      1.0000 0.69293  0.82890  0.15696  Biso   1.000  O
  N27      1.0000 0.13649  0.83529  0.24578  Biso   1.000  N
  H31      1.0000 0.07602  0.66415  0.24083  Biso   1.000  H
  H32      1.0000 0.14700  0.68213  0.14530  Biso   1.000  H
  C33      1.0000 0.88293  0.81625  0.31191  Biso   1.000  C
  C34      1.0000 0.25841  0.24490  0.87481  Biso   1.000  C
  C35      1.0000 0.13588  0.35825  0.86767  Biso   1.000  C
  C36      1.0000 0.13583  0.35833  0.86767  Biso   1.000  C
  H33      1.0000 0.85302  0.31795  0.85471  Biso   1.000  H
  H34      1.0000 0.92405  0.33584  0.75918  Biso   1.000  H
  N28      1.0000 0.02203  0.33534  0.89986  Biso   1.000  N
  N29      1.0000 0.02208  0.33525  0.89986  Biso   1.000  N
  C37      1.0000 0.23688  0.90866  0.22708  Biso   1.000  C
  C38      1.0000 0.10952  0.89250  0.35436  Biso   1.000  C
  C39      1.0000 0.10945  0.89253  0.35445  Biso   1.000  C
  C40      1.0000 0.10948  0.89262  0.35445  Biso   1.000  C
  N30      1.0000 0.99717  0.91200  0.34210  Biso   1.000  N
  H35      1.0000 0.88893  0.76023  0.35210  Biso   1.000  H
  N31      1.0000 0.99708  0.91200  0.34210  Biso   1.000  N
  H36      1.0000 0.82495  0.85072  0.33940  Biso   1.000  H
  H37      1.0000 0.14619  0.41270  0.82208  Biso   1.000  H
  C41      1.0000 0.22776  0.41773  0.98652  Biso   1.000  C
  C42      1.0000 0.22782  0.41765  0.98652  Biso   1.000  C
  O14      1.0000 0.30723  0.17109  0.84305  Biso   1.000  O
  N32      1.0000 0.29405  0.33665  0.98060  Biso   1.000  N
  O15      1.0000 0.30717  0.17118  0.84305  Biso   1.000  O
  C43      1.0000 0.03275  0.38019  0.01732  Biso   1.000  C
  O16      1.0000 0.28909  0.88003  0.15052  Biso   1.000  O
  N33      1.0000 0.27166  0.02170  0.30982  Biso   1.000  N
  H38      1.0000 0.11694  0.85035  0.40987  Biso   1.000  H
  C44      1.0000 0.20375  0.02348  0.39882  Biso   1.000  C
  C45      1.0000 0.20381  0.02339  0.39882  Biso   1.000  C
  C46      1.0000 0.01226  0.03331  0.37707  Biso   1.000  C
  C47      1.0000 0.01218  0.03331  0.37707  Biso   1.000  C
  H39      1.0000 0.28009  0.49981  0.99618  Biso   1.000  H
  H40      1.0000 0.28017  0.49981  0.99618  Biso   1.000  H
  N34      1.0000 0.15250  0.41895  0.06987  Biso   1.000  N
  C48      1.0000 0.39818  0.35731  0.06543  Biso   1.000  C
  C49      1.0000 0.39807  0.35722  0.06543  Biso   1.000  C
  O17      1.0000 0.95242  0.38682  0.06673  Biso   1.000  O
  C50      1.0000 0.38365  0.11596  0.32261  Biso   1.000  C
  C51      1.0000 0.38371  0.11588  0.32261  Biso   1.000  C
  N35      1.0000 0.13148  0.09882  0.40561  Biso   1.000  N
  N36      1.0000 0.13157  0.09882  0.40561  Biso   1.000  N
  H41      1.0000 0.25463  0.04176  0.47504  Biso   1.000  H
  H42      1.0000 0.25452  0.04167  0.47504  Biso   1.000  H
  O18      1.0000 0.93160  0.07441  0.38507  Biso   1.000  O
  O19      1.0000 0.93157  0.07432  0.38507  Biso   1.000  O
  C52      1.0000 0.19737  0.47629  0.19419  Biso   1.000  C
  C53      1.0000 0.19745  0.47629  0.19419  Biso   1.000  C
  N37      1.0000 0.37035  0.31462  0.16000  Biso   1.000  N
  H43      1.0000 0.44738  0.31679  0.02715  Biso   1.000  H
  N38      1.0000 0.37044  0.31467  0.15991  Biso   1.000  N
  H44      1.0000 0.44434  0.44347  0.09692  Biso   1.000  H
  H45      1.0000 0.44744  0.31676  0.02706  Biso   1.000  H
  H46      1.0000 0.44428  0.44355  0.09692  Biso   1.000  H
  H47      1.0000 0.42374  0.15275  0.40439  Biso   1.000  H
  H48      1.0000 0.43421  0.07955  0.28172  Biso   1.000  H
  H49      1.0000 0.42383  0.15275  0.40439  Biso   1.000  H
  H50      1.0000 0.43411  0.07947  0.28172  Biso   1.000  H
  H51      1.0000 0.42372  0.15267  0.40439  Biso   1.000  H
  N39      1.0000 0.37086  0.20930  0.27928  Biso   1.000  N
  N40      1.0000 0.37092  0.20922  0.27928  Biso   1.000  N
  C54      1.0000 0.18039  0.23039  0.44572  Biso   1.000  C
  C55      1.0000 0.18028  0.23030  0.44572  Biso   1.000  C
  N41      1.0000 0.22992  0.39766  0.25040  Biso   1.000  N
  H52      1.0000 0.13699  0.50162  0.22786  Biso   1.000  H
  H53      1.0000 0.13710  0.50165  0.22795  Biso   1.000  H
  H54      1.0000 0.26709  0.54843  0.20994  Biso   1.000  H
  N42      1.0000 0.22981  0.39758  0.25040  Biso   1.000  N
  H55      1.0000 0.26698  0.54834  0.20994  Biso   1.000  H
  N43      1.0000 0.22984  0.39766  0.25040  Biso   1.000  N
  H56      1.0000 0.13701  0.50165  0.22795  Biso   1.000  H
  N44      1.0000 0.22990  0.39758  0.25040  Biso   1.000  N
  C56      1.0000 0.38791  0.21362  0.17192  Biso   1.000  C
  C57      1.0000 0.38800  0.21362  0.17192  Biso   1.000  C
  C58      1.0000 0.34688  0.38701  0.26432  Biso   1.000  C
  C59      1.0000 0.38789  0.21354  0.17192  Biso   1.000  C
  C60      1.0000 0.34677  0.38693  0.26432  Biso   1.000  C
  C61      1.0000 0.34085  0.31051  0.34427  Biso   1.000  C
  C62      1.0000 0.34091  0.31042  0.34427  Biso   1.000  C
  N45      1.0000 0.21832  0.27890  0.35723  Biso   1.000  N
  H57      1.0000 0.12040  0.26125  0.47338  Biso   1.000  H
  N46      1.0000 0.21824  0.27890  0.35723  Biso   1.000  N
  H58      1.0000 0.12031  0.26125  0.47338  Biso   1.000  H
  H59      1.0000 0.24810  0.25883  0.51097  Biso   1.000  H
  H60      1.0000 0.24818  0.25878  0.51105  Biso   1.000  H
  C63      1.0000 0.16326  0.34787  0.31774  Biso   1.000  C
  O20      1.0000 0.41552  0.14049  0.10032  Biso   1.000  O
  O21      1.0000 0.41544  0.14049  0.10032  Biso   1.000  O
  H61      1.0000 0.41049  0.46656  0.29999  Biso   1.000  H
  H62      1.0000 0.41060  0.46664  0.29999  Biso   1.000  H
  H63      1.0000 0.41051  0.46664  0.29999  Biso   1.000  H
  H64      1.0000 0.41057  0.46656  0.29999  Biso   1.000  H
  H65      1.0000 0.39778  0.35668  0.41961  Biso   1.000  H
  H66      1.0000 0.39781  0.35677  0.41961  Biso   1.000  H
  O22      1.0000 0.07097  0.36157  0.33905  Biso   1.000  O
  Ne1      1.0000 0.99368  0.99375  0.00159  Biso   1.000  Ne
  He1      1.0000 0.83242  0.11428  0.12250  Biso   1.000  He
  He2      1.0000 0.18236  0.87870  0.86943  Biso   1.000  He
  Ar1      1.0000 0.99937  0.99865  0.99933  Biso   1.000  Ar
