data_image0
_cell_length_a       12.205
_cell_length_b       16.042
_cell_length_c       18.428
_cell_angle_alpha    90
_cell_angle_beta     129.46
_cell_angle_gamma    90

_symmetry_space_group_name_H-M    "P 1"
_symmetry_int_tables_number       1

loop_
  _symmetry_equiv_pos_as_xyz
  'x, y, z'

loop_
  _atom_site_label
  _atom_site_occupancy
  _atom_site_fract_x
  _atom_site_fract_y
  _atom_site_fract_z
  _atom_site_thermal_displace_type
  _atom_site_B_iso_or_equiv
  _atom_site_type_symbol
  N1       1.0000 0.06949  0.72460  0.08301  Biso   1.000  N
  N2       1.0000 0.23508  0.78500  0.21936  Biso   1.000  N
  O1       1.0000 0.28495  0.75951  0.11970  Biso   1.000  O
  C1       1.0000 0.00741  0.68221  0.99543  Biso   1.000  C
  C2       1.0000 0.00735  0.68221  0.99536  Biso   1.000  C
  C3       1.0000 0.01343  0.71849  0.13277  Biso   1.000  C
  C4       1.0000 0.20483  0.75683  0.13832  Biso   1.000  C
  C5       1.0000 0.01352  0.71849  0.13277  Biso   1.000  C
  C6       1.0000 0.12433  0.76518  0.22519  Biso   1.000  C
  C7       1.0000 0.37408  0.81567  0.29745  Biso   1.000  C
  H1       1.0000 0.96850  0.62872  0.99543  Biso   1.000  H
  N3       1.0000 0.89784  0.72809  0.91411  Biso   1.000  N
  H2       1.0000 0.96851  0.62872  0.99536  Biso   1.000  H
  H3       1.0000 0.08228  0.67018  0.99157  Biso   1.000  H
  N4       1.0000 0.88585  0.76742  0.09151  Biso   1.000  N
  H4       1.0000 0.00200  0.65989  0.14373  Biso   1.000  H
  H5       1.0000 0.00201  0.65989  0.14366  Biso   1.000  H
  N5       1.0000 0.04821  0.83649  0.22161  Biso   1.000  N
  H6       1.0000 0.16121  0.72958  0.28037  Biso   1.000  H
  N6       1.0000 0.38217  0.90550  0.30947  Biso   1.000  N
  H7       1.0000 0.44200  0.79859  0.28873  Biso   1.000  H
  H8       1.0000 0.40301  0.78943  0.35543  Biso   1.000  H
  H9       1.0000 0.44201  0.79859  0.28866  Biso   1.000  H
  H10      1.0000 0.40302  0.78943  0.35536  Biso   1.000  H
  C8       1.0000 0.74973  0.72173  0.87342  Biso   1.000  C
  C9       1.0000 0.74966  0.72173  0.87335  Biso   1.000  C
  C10      1.0000 0.91175  0.76368  0.85296  Biso   1.000  C
  C11      1.0000 0.74705  0.74143  0.00963  Biso   1.000  C
  C12      1.0000 0.90946  0.83462  0.14507  Biso   1.000  C
  C13      1.0000 0.74698  0.74143  0.00956  Biso   1.000  C
  C14      1.0000 0.10465  0.89172  0.30040  Biso   1.000  C
  C15      1.0000 0.34105  0.95200  0.35593  Biso   1.000  C
  C16      1.0000 0.34098  0.95200  0.35586  Biso   1.000  C
  C17      1.0000 0.43016  0.95549  0.27461  Biso   1.000  C
  H11      1.0000 0.71870  0.66288  0.86379  Biso   1.000  H
  N7       1.0000 0.71120  0.76867  0.92240  Biso   1.000  N
  C18      1.0000 0.66995  0.76861  0.77909  Biso   1.000  C
  N8       1.0000 0.78125  0.79211  0.77656  Biso   1.000  N
  O2       1.0000 0.02204  0.76923  0.86407  Biso   1.000  O
  O3       1.0000 0.02212  0.76923  0.86407  Biso   1.000  O
  H12      1.0000 0.67628  0.76331  0.01392  Biso   1.000  H
  H13      1.0000 0.74204  0.68040  0.00928  Biso   1.000  H
  H14      1.0000 0.67629  0.76331  0.01385  Biso   1.000  H
  H15      1.0000 0.74213  0.68040  0.00928  Biso   1.000  H
  O4       1.0000 0.81815  0.88381  0.12778  Biso   1.000  O
  O5       1.0000 0.81823  0.88381  0.12778  Biso   1.000  O
  H16      1.0000 0.16322  0.85937  0.35888  Biso   1.000  H
  N9       1.0000 0.18999  0.95830  0.30490  Biso   1.000  N
  H17      1.0000 0.02599  0.91610  0.29485  Biso   1.000  H
  H18      1.0000 0.39141  0.93193  0.42087  Biso   1.000  H
  C19      1.0000 0.38491  0.04170  0.35501  Biso   1.000  C
  O6       1.0000 0.47476  0.93131  0.23511  Biso   1.000  O
  N10      1.0000 0.41932  0.03659  0.29183  Biso   1.000  N
  N11      1.0000 0.41925  0.03659  0.29176  Biso   1.000  N
  N12      1.0000 0.60494  0.83867  0.79041  Biso   1.000  N
  H19      1.0000 0.59785  0.73289  0.72504  Biso   1.000  H
  C20      1.0000 0.62733  0.83568  0.87257  Biso   1.000  C
  C21      1.0000 0.75595  0.82172  0.69299  Biso   1.000  C
  C22      1.0000 0.75604  0.82172  0.69299  Biso   1.000  C
  C23      1.0000 0.14800  0.03921  0.29161  Biso   1.000  C
  C24      1.0000 0.14793  0.03921  0.29154  Biso   1.000  C
  N13      1.0000 0.25961  0.08920  0.31973  Biso   1.000  N
  N14      1.0000 0.25955  0.08920  0.31966  Biso   1.000  N
  H20      1.0000 0.46773  0.06022  0.41869  Biso   1.000  H
  C25      1.0000 0.49094  0.10323  0.28381  Biso   1.000  C
  C26      1.0000 0.49087  0.10323  0.28374  Biso   1.000  C
  C27      1.0000 0.50906  0.89677  0.71619  Biso   1.000  C
  C28      1.0000 0.50914  0.89677  0.71619  Biso   1.000  C
  O7       1.0000 0.57677  0.88331  0.89647  Biso   1.000  O
  H21      1.0000 0.66970  0.79510  0.63803  Biso   1.000  H
  H22      1.0000 0.83510  0.80401  0.69538  Biso   1.000  H
  N15      1.0000 0.74039  0.91080  0.68027  Biso   1.000  N
  H23      1.0000 0.66972  0.79510  0.63796  Biso   1.000  H
  O8       1.0000 0.02944  0.06421  0.26020  Biso   1.000  O
  C29      1.0000 0.24405  0.17828  0.30701  Biso   1.000  C
  H24      1.0000 0.55129  0.13340  0.34363  Biso   1.000  H
  H25      1.0000 0.55251  0.07892  0.27250  Biso   1.000  H
  H26      1.0000 0.55130  0.13340  0.34356  Biso   1.000  H
  N16      1.0000 0.39514  0.16133  0.20959  Biso   1.000  N
  H27      1.0000 0.44871  0.86660  0.65637  Biso   1.000  H
  H28      1.0000 0.44749  0.92108  0.72750  Biso   1.000  H
  N17      1.0000 0.58068  0.96341  0.70817  Biso   1.000  N
  C30      1.0000 0.85200  0.96079  0.70839  Biso   1.000  C
  C31      1.0000 0.61509  0.95830  0.64499  Biso   1.000  C
  H29      1.0000 0.33030  0.20490  0.36197  Biso   1.000  H
  N18      1.0000 0.21868  0.20789  0.22337  Biso   1.000  N
  H30      1.0000 0.16483  0.19599  0.30455  Biso   1.000  H
  C32      1.0000 0.33013  0.23139  0.22091  Biso   1.000  C
  C33      1.0000 0.37268  0.16432  0.12736  Biso   1.000  C
  C34      1.0000 0.56992  0.04451  0.72539  Biso   1.000  C
  O9       1.0000 0.97064  0.93579  0.73980  Biso   1.000  O
  N19      1.0000 0.81001  0.04170  0.69510  Biso   1.000  N
  H31      1.0000 0.53227  0.93978  0.58131  Biso   1.000  H
  H32      1.0000 0.53236  0.93978  0.58131  Biso   1.000  H
  C35      1.0000 0.65895  0.04800  0.64407  Biso   1.000  C
  C36      1.0000 0.65903  0.04800  0.64407  Biso   1.000  C
  C37      1.0000 0.08818  0.23632  0.14697  Biso   1.000  C
  N20      1.0000 0.28880  0.23133  0.07760  Biso   1.000  N
  O10      1.0000 0.42323  0.11669  0.10353  Biso   1.000  O
  O11      1.0000 0.42316  0.11669  0.10346  Biso   1.000  O
  H33      1.0000 0.40208  0.26711  0.27489  Biso   1.000  H
  C38      1.0000 0.25027  0.27827  0.12658  Biso   1.000  C
  N21      1.0000 0.61783  0.09450  0.69053  Biso   1.000  N
  O12      1.0000 0.52532  0.06869  0.76489  Biso   1.000  O
  N22      1.0000 0.61776  0.09450  0.69046  Biso   1.000  N
  C39      1.0000 0.89544  0.10828  0.69960  Biso   1.000  C
  H34      1.0000 0.60859  0.06807  0.57913  Biso   1.000  H
  H35      1.0000 0.60861  0.06807  0.57906  Biso   1.000  H
  O13      1.0000 0.97789  0.23077  0.13586  Biso   1.000  O
  N23      1.0000 0.10216  0.27191  0.08589  Biso   1.000  N
  N24      1.0000 0.10225  0.27191  0.08589  Biso   1.000  N
  C40      1.0000 0.25303  0.25857  0.99037  Biso   1.000  C
  H36      1.0000 0.28123  0.33712  0.13614  Biso   1.000  H
  C41      1.0000 0.62585  0.18433  0.70248  Biso   1.000  C
  C42      1.0000 0.62594  0.18433  0.70248  Biso   1.000  C
  H37      1.0000 0.83678  0.14063  0.64112  Biso   1.000  H
  N25      1.0000 0.95179  0.16351  0.77839  Biso   1.000  N
  H38      1.0000 0.83680  0.14063  0.64105  Biso   1.000  H
  H39      1.0000 0.97403  0.08390  0.70508  Biso   1.000  H
  C43      1.0000 0.99259  0.31779  0.00457  Biso   1.000  C
  N26      1.0000 0.11415  0.23258  0.90849  Biso   1.000  N
  N27      1.0000 0.11424  0.23258  0.90849  Biso   1.000  N
  H40      1.0000 0.32372  0.23669  0.98608  Biso   1.000  H
  H41      1.0000 0.25796  0.31960  0.99072  Biso   1.000  H
  H42      1.0000 0.25789  0.31960  0.99065  Biso   1.000  H
  H43      1.0000 0.55800  0.20141  0.71127  Biso   1.000  H
  H44      1.0000 0.59699  0.21057  0.64457  Biso   1.000  H
  N28      1.0000 0.76486  0.21500  0.78057  Biso   1.000  N
  C44      1.0000 0.87575  0.23482  0.77481  Biso   1.000  C
  C45      1.0000 0.09047  0.16538  0.85486  Biso   1.000  C
  N29      1.0000 0.93051  0.27540  0.91699  Biso   1.000  N
  H45      1.0000 0.91772  0.32982  0.00843  Biso   1.000  H
  H46      1.0000 0.91765  0.32982  0.00836  Biso   1.000  H
  H47      1.0000 0.03150  0.37128  0.00457  Biso   1.000  H
  C46      1.0000 0.98650  0.28151  0.86716  Biso   1.000  C
  C47      1.0000 0.79517  0.24317  0.86168  Biso   1.000  C
  H48      1.0000 0.83887  0.27042  0.71963  Biso   1.000  H
  H49      1.0000 0.83880  0.27042  0.71956  Biso   1.000  H
  O14      1.0000 0.18178  0.11619  0.87215  Biso   1.000  O
  H50      1.0000 0.99800  0.34011  0.85627  Biso   1.000  H
  O15      1.0000 0.71513  0.24049  0.88030  Biso   1.000  O
  C48      1.0000 0.66987  0.73139  0.27910  Biso   1.000  C
  N30      1.0000 0.60494  0.66133  0.29042  Biso   1.000  N
  N31      1.0000 0.78125  0.70789  0.27657  Biso   1.000  N
  H51      1.0000 0.59792  0.76711  0.22512  Biso   1.000  H
  C49      1.0000 0.74973  0.77827  0.37343  Biso   1.000  C
  C50      1.0000 0.50906  0.60323  0.21620  Biso   1.000  C
  C51      1.0000 0.62725  0.66432  0.37258  Biso   1.000  C
  C52      1.0000 0.75604  0.67828  0.19300  Biso   1.000  C
  C53      1.0000 0.91175  0.73632  0.35297  Biso   1.000  C
  N32      1.0000 0.71120  0.73133  0.42242  Biso   1.000  N
  H52      1.0000 0.71870  0.83712  0.36380  Biso   1.000  H
  N33      1.0000 0.89784  0.77191  0.41412  Biso   1.000  N
  N34      1.0000 0.58068  0.53659  0.20819  Biso   1.000  N
  H53      1.0000 0.44871  0.63340  0.15639  Biso   1.000  H
  H54      1.0000 0.44749  0.57892  0.22751  Biso   1.000  H
  O16      1.0000 0.57677  0.61669  0.39648  Biso   1.000  O
  N35      1.0000 0.74039  0.58920  0.18028  Biso   1.000  N
  H55      1.0000 0.66963  0.70490  0.13797  Biso   1.000  H
  H56      1.0000 0.83510  0.69599  0.19539  Biso   1.000  H
  O17      1.0000 0.02204  0.73077  0.36408  Biso   1.000  O
  C54      1.0000 0.74698  0.75857  0.50957  Biso   1.000  C
  C55      1.0000 0.00735  0.81779  0.49537  Biso   1.000  C
  C56      1.0000 0.56992  0.45549  0.22541  Biso   1.000  C
  C57      1.0000 0.61509  0.54170  0.14500  Biso   1.000  C
  C58      1.0000 0.85200  0.53921  0.20840  Biso   1.000  C
  H57      1.0000 0.67636  0.73669  0.51393  Biso   1.000  H
  H58      1.0000 0.74213  0.81960  0.50929  Biso   1.000  H
  N36      1.0000 0.88585  0.73258  0.59152  Biso   1.000  N
  H59      1.0000 0.96851  0.87128  0.49537  Biso   1.000  H
  H60      1.0000 0.08228  0.82982  0.49158  Biso   1.000  H
  N37      1.0000 0.06949  0.77540  0.58302  Biso   1.000  N
  O18      1.0000 0.52532  0.43131  0.26491  Biso   1.000  O
  N38      1.0000 0.61776  0.40550  0.19047  Biso   1.000  N
  C59      1.0000 0.65895  0.45200  0.14409  Biso   1.000  C
  H61      1.0000 0.53236  0.56022  0.08132  Biso   1.000  H
  N39      1.0000 0.81000  0.45830  0.19511  Biso   1.000  N
  O19      1.0000 0.97064  0.56421  0.23981  Biso   1.000  O
  C60      1.0000 0.90946  0.66538  0.64508  Biso   1.000  C
  C61      1.0000 0.01351  0.78151  0.63278  Biso   1.000  C
  C62      1.0000 0.20483  0.74317  0.63833  Biso   1.000  C
  C63      1.0000 0.62585  0.31567  0.20249  Biso   1.000  C
  H62      1.0000 0.60861  0.43193  0.07907  Biso   1.000  H
  C64      1.0000 0.89544  0.39172  0.19961  Biso   1.000  C
  O20      1.0000 0.81823  0.61619  0.62779  Biso   1.000  O
  N40      1.0000 0.04821  0.66351  0.72162  Biso   1.000  N
  H63      1.0000 0.00201  0.84011  0.64367  Biso   1.000  H
  C65      1.0000 0.12433  0.73482  0.72521  Biso   1.000  C
  N41      1.0000 0.23507  0.71500  0.71937  Biso   1.000  N
  O21      1.0000 0.28487  0.74049  0.61971  Biso   1.000  O
  H64      1.0000 0.55800  0.29859  0.21128  Biso   1.000  H
  H65      1.0000 0.59699  0.28943  0.14458  Biso   1.000  H
  N42      1.0000 0.76486  0.28500  0.28058  Biso   1.000  N
  N43      1.0000 0.95179  0.33649  0.27840  Biso   1.000  N
  H66      1.0000 0.83686  0.35937  0.14113  Biso   1.000  H
  H67      1.0000 0.97403  0.41610  0.20509  Biso   1.000  H
  C66      1.0000 0.10465  0.60828  0.80041  Biso   1.000  C
  H68      1.0000 0.16121  0.77042  0.78038  Biso   1.000  H
  C67      1.0000 0.37415  0.68433  0.79753  Biso   1.000  C
  C68      1.0000 0.87575  0.26518  0.27482  Biso   1.000  C
  C69      1.0000 0.79517  0.25683  0.36169  Biso   1.000  C
  C70      1.0000 0.09047  0.33462  0.35487  Biso   1.000  C
  H69      1.0000 0.16322  0.64063  0.85889  Biso   1.000  H
  H70      1.0000 0.02605  0.58390  0.79493  Biso   1.000  H
  N44      1.0000 0.18999  0.54170  0.80491  Biso   1.000  N
  H71      1.0000 0.44201  0.70141  0.78867  Biso   1.000  H
  H72      1.0000 0.40294  0.71057  0.85538  Biso   1.000  H
  N45      1.0000 0.38217  0.59450  0.80948  Biso   1.000  N
  C71      1.0000 0.98650  0.21849  0.36717  Biso   1.000  C
  H73      1.0000 0.83880  0.22958  0.21957  Biso   1.000  H
  N46      1.0000 0.93051  0.22460  0.41700  Biso   1.000  N
  O22      1.0000 0.71513  0.25951  0.38032  Biso   1.000  O
  N47      1.0000 0.11423  0.26742  0.40850  Biso   1.000  N
  O23      1.0000 0.18185  0.38381  0.37223  Biso   1.000  O
  C72      1.0000 0.14800  0.46079  0.79163  Biso   1.000  C
  C73      1.0000 0.34098  0.54800  0.85587  Biso   1.000  C
  C74      1.0000 0.43008  0.54451  0.77462  Biso   1.000  C
  H74      1.0000 0.99800  0.15989  0.35628  Biso   1.000  H
  C75      1.0000 0.99258  0.18221  0.50458  Biso   1.000  C
  C76      1.0000 0.25295  0.24143  0.49038  Biso   1.000  C
  N48      1.0000 0.25954  0.41080  0.81967  Biso   1.000  N
  O24      1.0000 0.02944  0.43579  0.76021  Biso   1.000  O
  C77      1.0000 0.38491  0.45830  0.85502  Biso   1.000  C
  H75      1.0000 0.39141  0.56807  0.92088  Biso   1.000  H
  N49      1.0000 0.41925  0.46341  0.79177  Biso   1.000  N
  O25      1.0000 0.47468  0.56869  0.73512  Biso   1.000  O
  H76      1.0000 0.91765  0.17018  0.50838  Biso   1.000  H
  H77      1.0000 0.03150  0.12872  0.50458  Biso   1.000  H
  N50      1.0000 0.10216  0.22809  0.58590  Biso   1.000  N
  H78      1.0000 0.32372  0.26331  0.48609  Biso   1.000  H
  H79      1.0000 0.25795  0.18040  0.49073  Biso   1.000  H
  N51      1.0000 0.28880  0.26867  0.57761  Biso   1.000  N
  C78      1.0000 0.24405  0.32172  0.80702  Biso   1.000  C
  H80      1.0000 0.46772  0.43978  0.91870  Biso   1.000  H
  C79      1.0000 0.49094  0.39677  0.78382  Biso   1.000  C
  C80      1.0000 0.25027  0.22173  0.62660  Biso   1.000  C
  C81      1.0000 0.08818  0.26368  0.64698  Biso   1.000  C
  C82      1.0000 0.37268  0.33568  0.62737  Biso   1.000  C
  N52      1.0000 0.21868  0.29211  0.72338  Biso   1.000  N
  H81      1.0000 0.33030  0.29510  0.86198  Biso   1.000  H
  H82      1.0000 0.16490  0.30401  0.80463  Biso   1.000  H
  N53      1.0000 0.39514  0.33867  0.70960  Biso   1.000  N
  H83      1.0000 0.55130  0.36660  0.84357  Biso   1.000  H
  H84      1.0000 0.55251  0.42108  0.77251  Biso   1.000  H
  C83      1.0000 0.33013  0.26861  0.72092  Biso   1.000  C
  H85      1.0000 0.28130  0.16288  0.63622  Biso   1.000  H
  O26      1.0000 0.97789  0.26923  0.63587  Biso   1.000  O
  O27      1.0000 0.42316  0.38331  0.60347  Biso   1.000  O
  H86      1.0000 0.40208  0.23289  0.77490  Biso   1.000  H
