data_image0
_cell_length_a       12.393
_cell_length_b       22.795
_cell_length_c       17.545
_cell_angle_alpha    90
_cell_angle_beta     102.41
_cell_angle_gamma    90

_symmetry_space_group_name_H-M    "P 1"
_symmetry_int_tables_number       1

loop_
  _symmetry_equiv_pos_as_xyz
  'x, y, z'

loop_
  _atom_site_label
  _atom_site_occupancy
  _atom_site_fract_x
  _atom_site_fract_y
  _atom_site_fract_z
  _atom_site_thermal_displace_type
  _atom_site_B_iso_or_equiv
  _atom_site_type_symbol
  C1       1.0000 0.97265  0.14389  0.21617  Biso   1.000  C
  C2       1.0000 0.03093  0.18008  0.17619  Biso   1.000  C
  H1       1.0000 0.89639  0.14788  0.20899  Biso   1.000  H
  C3       1.0000 0.02754  0.10182  0.26688  Biso   1.000  C
  O1       1.0000 0.98183  0.22329  0.12460  Biso   1.000  O
  C4       1.0000 0.97257  0.14389  0.21617  Biso   1.000  C
  C5       1.0000 0.14513  0.17328  0.18529  Biso   1.000  C
  C6       1.0000 0.97335  0.05699  0.31129  Biso   1.000  C
  C7       1.0000 0.14176  0.09739  0.27896  Biso   1.000  C
  C8       1.0000 0.14186  0.09739  0.27902  Biso   1.000  C
  C9       1.0000 0.89286  0.25291  0.14619  Biso   1.000  C
  C10      1.0000 0.89294  0.25291  0.14619  Biso   1.000  C
  O2       1.0000 0.19463  0.20978  0.14030  Biso   1.000  O
  C11      1.0000 0.20006  0.13218  0.23747  Biso   1.000  C
  C12      1.0000 0.20016  0.13218  0.23752  Biso   1.000  C
  C13      1.0000 0.84883  0.06089  0.29559  Biso   1.000  C
  C14      1.0000 0.01759  0.99741  0.28987  Biso   1.000  C
  C15      1.0000 0.01751  0.99741  0.28987  Biso   1.000  C
  C16      1.0000 0.02984  0.06580  0.39696  Biso   1.000  C
  C17      1.0000 0.02993  0.06580  0.39702  Biso   1.000  C
  C18      1.0000 0.19125  0.04962  0.33820  Biso   1.000  C
  C19      1.0000 0.19133  0.04962  0.33820  Biso   1.000  C
  H2       1.0000 0.83666  0.22430  0.15109  Biso   1.000  H
  C20      1.0000 0.84297  0.29770  0.09279  Biso   1.000  C
  H3       1.0000 0.91916  0.27050  0.19708  Biso   1.000  H
  H4       1.0000 0.83674  0.22430  0.15109  Biso   1.000  H
  C21      1.0000 0.31290  0.20719  0.15191  Biso   1.000  C
  H5       1.0000 0.27622  0.12801  0.24459  Biso   1.000  H
  H6       1.0000 0.82748  0.09919  0.30977  Biso   1.000  H
  H7       1.0000 0.81893  0.05431  0.24108  Biso   1.000  H
  H8       1.0000 0.82093  0.03181  0.32588  Biso   1.000  H
  C22      1.0000 0.95385  0.94942  0.25912  Biso   1.000  C
  C23      1.0000 0.13130  0.99390  0.30318  Biso   1.000  C
  C24      1.0000 0.13121  0.99390  0.30318  Biso   1.000  C
  C25      1.0000 0.97640  0.07611  0.45789  Biso   1.000  C
  C26      1.0000 0.14354  0.06199  0.41080  Biso   1.000  C
  C27      1.0000 0.14362  0.06199  0.41080  Biso   1.000  C
  C28      1.0000 0.31662  0.04619  0.35349  Biso   1.000  C
  H9       1.0000 0.78025  0.31309  0.11129  Biso   1.000  H
  O3       1.0000 0.80837  0.28361  0.01833  Biso   1.000  O
  H10      1.0000 0.89585  0.32941  0.09583  Biso   1.000  H
  O4       1.0000 0.80827  0.28361  0.01827  Biso   1.000  O
  H11      1.0000 0.89576  0.32941  0.09577  Biso   1.000  H
  C29      1.0000 0.34860  0.25199  0.10032  Biso   1.000  C
  H12      1.0000 0.33561  0.16841  0.13878  Biso   1.000  H
  C30      1.0000 0.34859  0.25199  0.10026  Biso   1.000  C
  H13      1.0000 0.33553  0.16841  0.13878  Biso   1.000  H
  H14      1.0000 0.34663  0.21509  0.20601  Biso   1.000  H
  H15      1.0000 0.87723  0.95109  0.25077  Biso   1.000  H
  C31      1.0000 0.00463  0.89919  0.24091  Biso   1.000  C
  C32      1.0000 0.18240  0.94411  0.28392  Biso   1.000  C
  C33      1.0000 0.18239  0.94411  0.28386  Biso   1.000  C
  H16      1.0000 0.89987  0.07971  0.44797  Biso   1.000  H
  C34      1.0000 0.03761  0.08089  0.53259  Biso   1.000  C
  C35      1.0000 0.20565  0.06769  0.48736  Biso   1.000  C
  C36      1.0000 0.20575  0.06769  0.48742  Biso   1.000  C
  H17      1.0000 0.33921  0.03922  0.30522  Biso   1.000  H
  H18      1.0000 0.34777  0.08252  0.37578  Biso   1.000  H
  H19      1.0000 0.34213  0.01461  0.38909  Biso   1.000  H
  H20      1.0000 0.34785  0.08252  0.37578  Biso   1.000  H
  H21      1.0000 0.33919  0.03922  0.30516  Biso   1.000  H
  C37      1.0000 0.70113  0.26822  0.99341  Biso   1.000  C
  O5       1.0000 0.31523  0.23259  0.02218  Biso   1.000  O
  H22      1.0000 0.31479  0.28958  0.10668  Biso   1.000  H
  H23      1.0000 0.42821  0.25668  0.11398  Biso   1.000  H
  O6       1.0000 0.31515  0.23259  0.02218  Biso   1.000  O
  H24      1.0000 0.42812  0.25668  0.11398  Biso   1.000  H
  O7       1.0000 0.94372  0.85058  0.20940  Biso   1.000  O
  O8       1.0000 0.94364  0.85058  0.20940  Biso   1.000  O
  C38      1.0000 0.11858  0.89581  0.25211  Biso   1.000  C
  H25      1.0000 0.25901  0.94262  0.29197  Biso   1.000  H
  H26      1.0000 0.25893  0.94262  0.29197  Biso   1.000  H
  C39      1.0000 0.15009  0.07651  0.54742  Biso   1.000  C
  H27      1.0000 0.00229  0.08730  0.57350  Biso   1.000  H
  C40      1.0000 0.15007  0.07651  0.54736  Biso   1.000  C
  H28      1.0000 0.28244  0.06558  0.49787  Biso   1.000  H
  H29      1.0000 0.65459  0.29721  0.01097  Biso   1.000  H
  H30      1.0000 0.68840  0.23071  0.01599  Biso   1.000  H
  C41      1.0000 0.67114  0.26401  0.90808  Biso   1.000  C
  C42      1.0000 0.34990  0.27028  0.96930  Biso   1.000  C
  C43      1.0000 0.87680  0.82790  0.24511  Biso   1.000  C
  O9       1.0000 0.16135  0.84466  0.22877  Biso   1.000  O
  H31      1.0000 0.19011  0.07940  0.59860  Biso   1.000  H
  O10      1.0000 0.72425  0.21242  0.88480  Biso   1.000  O
  H32      1.0000 0.69544  0.29879  0.88480  Biso   1.000  H
  H33      1.0000 0.59165  0.26089  0.89081  Biso   1.000  H
  H34      1.0000 0.42751  0.27958  0.98809  Biso   1.000  H
  H35      1.0000 0.30832  0.30660  0.96551  Biso   1.000  H
  C44      1.0000 0.33395  0.24308  0.89168  Biso   1.000  C
  H36      1.0000 0.42743  0.27958  0.98809  Biso   1.000  H
  H37      1.0000 0.30823  0.30660  0.96551  Biso   1.000  H
  H38      1.0000 0.92140  0.81141  0.29250  Biso   1.000  H
  H39      1.0000 0.83629  0.86041  0.26128  Biso   1.000  H
  C45      1.0000 0.79705  0.78500  0.21558  Biso   1.000  C
  C46      1.0000 0.79713  0.78500  0.21558  Biso   1.000  C
  C47      1.0000 0.27655  0.84510  0.22790  Biso   1.000  C
  C48      1.0000 0.69083  0.20930  0.80677  Biso   1.000  C
  C49      1.0000 0.69091  0.20930  0.80677  Biso   1.000  C
  O11      1.0000 0.22473  0.22742  0.86210  Biso   1.000  O
  H40      1.0000 0.38019  0.20851  0.89489  Biso   1.000  H
  O12      1.0000 0.22465  0.22742  0.86210  Biso   1.000  O
  H41      1.0000 0.35737  0.27041  0.85597  Biso   1.000  H
  O13      1.0000 0.77527  0.77258  0.13790  Biso   1.000  O
  H42      1.0000 0.72820  0.79689  0.22877  Biso   1.000  H
  H43      1.0000 0.81974  0.74880  0.24348  Biso   1.000  H
  O14      1.0000 0.77535  0.77258  0.13790  Biso   1.000  O
  H44      1.0000 0.81982  0.74880  0.24348  Biso   1.000  H
  H45      1.0000 0.31930  0.84909  0.28089  Biso   1.000  H
  C50      1.0000 0.30907  0.79070  0.19317  Biso   1.000  C
  H46      1.0000 0.31922  0.84909  0.28089  Biso   1.000  H
  H47      1.0000 0.29265  0.87861  0.19807  Biso   1.000  H
  C51      1.0000 0.30915  0.79070  0.19317  Biso   1.000  C
  C52      1.0000 0.72353  0.15490  0.77210  Biso   1.000  C
  C53      1.0000 0.72345  0.15490  0.77210  Biso   1.000  C
  H48      1.0000 0.61108  0.21259  0.79317  Biso   1.000  H
  H49      1.0000 0.72127  0.24251  0.78378  Biso   1.000  H
  H50      1.0000 0.61118  0.21259  0.79323  Biso   1.000  H
  C54      1.0000 0.20287  0.21500  0.78442  Biso   1.000  C
  C55      1.0000 0.66597  0.75692  0.10832  Biso   1.000  C
  C56      1.0000 0.66605  0.75692  0.10832  Biso   1.000  C
  H51      1.0000 0.38890  0.78741  0.20677  Biso   1.000  H
  H52      1.0000 0.38882  0.78741  0.20677  Biso   1.000  H
  O15      1.0000 0.27575  0.78758  0.11520  Biso   1.000  O
  H53      1.0000 0.27879  0.75749  0.21617  Biso   1.000  H
  H54      1.0000 0.68070  0.15091  0.71911  Biso   1.000  H
  H55      1.0000 0.68078  0.15091  0.71911  Biso   1.000  H
  O16      1.0000 0.83871  0.15534  0.77117  Biso   1.000  O
  H56      1.0000 0.70741  0.12139  0.80187  Biso   1.000  H
  C57      1.0000 0.12320  0.17210  0.75489  Biso   1.000  C
  H57      1.0000 0.27178  0.20311  0.77117  Biso   1.000  H
  H58      1.0000 0.18018  0.25120  0.75652  Biso   1.000  H
  H59      1.0000 0.64261  0.72959  0.14397  Biso   1.000  H
  H60      1.0000 0.61981  0.79149  0.10511  Biso   1.000  H
  C58      1.0000 0.65010  0.72972  0.03070  Biso   1.000  C
  H61      1.0000 0.64253  0.72959  0.14397  Biso   1.000  H
  C59      1.0000 0.32894  0.73599  0.09192  Biso   1.000  C
  C60      1.0000 0.32886  0.73599  0.09192  Biso   1.000  C
  C61      1.0000 0.88142  0.10419  0.74789  Biso   1.000  C
  C62      1.0000 0.88134  0.10419  0.74789  Biso   1.000  C
  O17      1.0000 0.05628  0.14942  0.79060  Biso   1.000  O
  H62      1.0000 0.07860  0.18859  0.70750  Biso   1.000  H
  H63      1.0000 0.16371  0.13959  0.73872  Biso   1.000  H
  O18      1.0000 0.68475  0.76741  0.97776  Biso   1.000  O
  O19      1.0000 0.68485  0.76741  0.97782  Biso   1.000  O
  H64      1.0000 0.57249  0.72042  0.01191  Biso   1.000  H
  H65      1.0000 0.57257  0.72042  0.01191  Biso   1.000  H
  H66      1.0000 0.69177  0.69340  0.03449  Biso   1.000  H
  H67      1.0000 0.30448  0.70121  0.11520  Biso   1.000  H
  H68      1.0000 0.40835  0.73911  0.10919  Biso   1.000  H
  H69      1.0000 0.30456  0.70121  0.11520  Biso   1.000  H
  C63      1.0000 0.29887  0.73178  0.00659  Biso   1.000  C
  C64      1.0000 0.81760  0.05589  0.71608  Biso   1.000  C
  C65      1.0000 0.81768  0.05589  0.71608  Biso   1.000  C
  C66      1.0000 0.99537  0.10081  0.75909  Biso   1.000  C
  C67      1.0000 0.65140  0.74801  0.89968  Biso   1.000  C
  H70      1.0000 0.34541  0.70279  0.98903  Biso   1.000  H
  H71      1.0000 0.31160  0.76929  0.98401  Biso   1.000  H
  O20      1.0000 0.19163  0.71639  0.98167  Biso   1.000  O
  H72      1.0000 0.34539  0.70279  0.98897  Biso   1.000  H
  H73      1.0000 0.74097  0.05738  0.70797  Biso   1.000  H
  C68      1.0000 0.86879  0.00610  0.69682  Biso   1.000  C
  H74      1.0000 0.74107  0.05738  0.70803  Biso   1.000  H
  C69      1.0000 0.04615  0.05058  0.74088  Biso   1.000  C
  C70      1.0000 0.68710  0.79281  0.84809  Biso   1.000  C
  H75      1.0000 0.68521  0.71042  0.89332  Biso   1.000  H
  H76      1.0000 0.57178  0.74332  0.88596  Biso   1.000  H
  C71      1.0000 0.15703  0.70230  0.90721  Biso   1.000  C
  C72      1.0000 0.80867  0.95038  0.66180  Biso   1.000  C
  C73      1.0000 0.98239  0.00259  0.71007  Biso   1.000  C
  C74      1.0000 0.98249  0.00259  0.71013  Biso   1.000  C
  H77      1.0000 0.12285  0.04891  0.74923  Biso   1.000  H
  H78      1.0000 0.12275  0.04891  0.74917  Biso   1.000  H
  H79      1.0000 0.12277  0.04891  0.74923  Biso   1.000  H
  H80      1.0000 0.12283  0.04891  0.74917  Biso   1.000  H
  O21      1.0000 0.80537  0.79022  0.85970  Biso   1.000  O
  H81      1.0000 0.65329  0.78491  0.79399  Biso   1.000  H
  H82      1.0000 0.66447  0.83159  0.86122  Biso   1.000  H
  H83      1.0000 0.65337  0.78491  0.79399  Biso   1.000  H
  H84      1.0000 0.21983  0.68691  0.88871  Biso   1.000  H
  C75      1.0000 0.10706  0.74709  0.85381  Biso   1.000  C
  H85      1.0000 0.21975  0.68691  0.88871  Biso   1.000  H
  H86      1.0000 0.10415  0.67059  0.90417  Biso   1.000  H
  C76      1.0000 0.85822  0.90261  0.72098  Biso   1.000  C
  C77      1.0000 0.85814  0.90261  0.72098  Biso   1.000  C
  C78      1.0000 0.85638  0.93801  0.58920  Biso   1.000  C
  C79      1.0000 0.68338  0.95381  0.64651  Biso   1.000  C
  C80      1.0000 0.02665  0.94301  0.68871  Biso   1.000  C
  C81      1.0000 0.85487  0.82672  0.81471  Biso   1.000  C
  O22      1.0000 0.01817  0.77671  0.87540  Biso   1.000  O
  H87      1.0000 0.16326  0.77570  0.84891  Biso   1.000  H
  H88      1.0000 0.08084  0.72950  0.80292  Biso   1.000  H
  C82      1.0000 0.97246  0.89818  0.73312  Biso   1.000  C
  C83      1.0000 0.79984  0.86782  0.76248  Biso   1.000  C
  C84      1.0000 0.79433  0.93231  0.51258  Biso   1.000  C
  C85      1.0000 0.97007  0.93420  0.60298  Biso   1.000  C
  C86      1.0000 0.79425  0.93231  0.51258  Biso   1.000  C
  H89      1.0000 0.65215  0.91748  0.62422  Biso   1.000  H
  H90      1.0000 0.65787  0.98539  0.61091  Biso   1.000  H
  H91      1.0000 0.66087  0.96078  0.69478  Biso   1.000  H
  C87      1.0000 0.15117  0.93911  0.70441  Biso   1.000  C
  C88      1.0000 0.96907  0.81992  0.82381  Biso   1.000  C
  C89      1.0000 0.02733  0.85611  0.78378  Biso   1.000  C
  H92      1.0000 0.72378  0.87199  0.75541  Biso   1.000  H
  C90      1.0000 0.02360  0.92389  0.54211  Biso   1.000  C
  C91      1.0000 0.84991  0.92349  0.45258  Biso   1.000  C
  H93      1.0000 0.71755  0.93442  0.50207  Biso   1.000  H
  C92      1.0000 0.84999  0.92349  0.45258  Biso   1.000  C
  H94      1.0000 0.71763  0.93442  0.50207  Biso   1.000  H
  H95      1.0000 0.17252  0.90081  0.69023  Biso   1.000  H
  H96      1.0000 0.18115  0.94569  0.75892  Biso   1.000  H
  H97      1.0000 0.17915  0.96819  0.67412  Biso   1.000  H
  H98      1.0000 0.17250  0.90081  0.69017  Biso   1.000  H
  H99      1.0000 0.18107  0.94569  0.75892  Biso   1.000  H
  H100     1.0000 0.17907  0.96819  0.67412  Biso   1.000  H
  H101     1.0000 0.10361  0.85212  0.79101  Biso   1.000  H
  C93      1.0000 0.96231  0.91911  0.46741  Biso   1.000  C
  C94      1.0000 0.96239  0.91911  0.46741  Biso   1.000  C
  H102     1.0000 0.10011  0.92029  0.55197  Biso   1.000  H
  H103     1.0000 0.80981  0.92060  0.40140  Biso   1.000  H
  H104     1.0000 0.80989  0.92060  0.40140  Biso   1.000  H
  H105     1.0000 0.99771  0.91270  0.42650  Biso   1.000  H
  C95      1.0000 0.70292  0.28502  0.28439  Biso   1.000  C
  C96      1.0000 0.62319  0.32788  0.25492  Biso   1.000  C
  O23      1.0000 0.72472  0.27260  0.36212  Biso   1.000  O
  H106     1.0000 0.77177  0.29691  0.27120  Biso   1.000  H
  H107     1.0000 0.68023  0.24878  0.25649  Biso   1.000  H
  O24      1.0000 0.55625  0.35056  0.29057  Biso   1.000  O
  H108     1.0000 0.57857  0.31138  0.20747  Biso   1.000  H
  H109     1.0000 0.66368  0.36039  0.23869  Biso   1.000  H
  C97      1.0000 0.83402  0.25690  0.39171  Biso   1.000  C
  C98      1.0000 0.49528  0.39921  0.25912  Biso   1.000  C
  H110     1.0000 0.85736  0.22961  0.35600  Biso   1.000  H
  H111     1.0000 0.88018  0.29151  0.39492  Biso   1.000  H
  C99      1.0000 0.84987  0.22970  0.46927  Biso   1.000  C
  C100     1.0000 0.38141  0.39579  0.24791  Biso   1.000  C
  C101     1.0000 0.54622  0.44940  0.24091  Biso   1.000  C
  O25      1.0000 0.81522  0.26738  0.52220  Biso   1.000  O
  H112     1.0000 0.92750  0.22040  0.48812  Biso   1.000  H
  H113     1.0000 0.80829  0.19342  0.46548  Biso   1.000  H
  O26      1.0000 0.33870  0.34468  0.27120  Biso   1.000  O
  C102     1.0000 0.31759  0.44409  0.21611  Biso   1.000  C
  C103     1.0000 0.48238  0.49739  0.21010  Biso   1.000  C
  H114     1.0000 0.62282  0.45111  0.24920  Biso   1.000  H
  C104     1.0000 0.84858  0.24799  0.60029  Biso   1.000  C
  C105     1.0000 0.22350  0.34512  0.27207  Biso   1.000  C
  C106     1.0000 0.36868  0.49388  0.19679  Biso   1.000  C
  H115     1.0000 0.24096  0.44260  0.20799  Biso   1.000  H
  C107     1.0000 0.52670  0.55701  0.18868  Biso   1.000  C
  C108     1.0000 0.81287  0.29278  0.65188  Biso   1.000  C
  H116     1.0000 0.81478  0.21040  0.60671  Biso   1.000  H
  H117     1.0000 0.92819  0.24330  0.61400  Biso   1.000  H
  C109     1.0000 0.19090  0.29072  0.30680  Biso   1.000  C
  H118     1.0000 0.20740  0.37859  0.30190  Biso   1.000  H
  H119     1.0000 0.18067  0.34911  0.21908  Biso   1.000  H
  C110     1.0000 0.30872  0.54959  0.16177  Biso   1.000  C
  C111     1.0000 0.47251  0.60180  0.23309  Biso   1.000  C
  C112     1.0000 0.47014  0.56578  0.10301  Biso   1.000  C
  C113     1.0000 0.65122  0.56091  0.20438  Biso   1.000  C
  O27      1.0000 0.69468  0.29024  0.64027  Biso   1.000  O
  H120     1.0000 0.83560  0.33161  0.63881  Biso   1.000  H
  H121     1.0000 0.84668  0.28489  0.70598  Biso   1.000  H
  O28      1.0000 0.22430  0.28761  0.38477  Biso   1.000  O
  H122     1.0000 0.22118  0.25751  0.28380  Biso   1.000  H
  H123     1.0000 0.11107  0.28739  0.29320  Biso   1.000  H
  C114     1.0000 0.35821  0.59741  0.22101  Biso   1.000  C
  C115     1.0000 0.35643  0.56201  0.08917  Biso   1.000  C
  C116     1.0000 0.18327  0.54622  0.14648  Biso   1.000  C
  C117     1.0000 0.52740  0.64391  0.28380  Biso   1.000  C
  C118     1.0000 0.52357  0.57609  0.04208  Biso   1.000  C
  H124     1.0000 0.67249  0.59921  0.19019  Biso   1.000  H
  H125     1.0000 0.68112  0.55429  0.25888  Biso   1.000  H
  H126     1.0000 0.67913  0.53178  0.17409  Biso   1.000  H
  C119     1.0000 0.64520  0.32669  0.68532  Biso   1.000  C
  C120     1.0000 0.17105  0.23602  0.40811  Biso   1.000  C
  C121     1.0000 0.29991  0.63220  0.26250  Biso   1.000  C
  C122     1.0000 0.29432  0.56771  0.01261  Biso   1.000  C
  H127     1.0000 0.15776  0.51459  0.11088  Biso   1.000  H
  H128     1.0000 0.16078  0.53920  0.19481  Biso   1.000  H
  H129     1.0000 0.15220  0.58250  0.12419  Biso   1.000  H
  H130     1.0000 0.60358  0.64791  0.29098  Biso   1.000  H
  C123     1.0000 0.46896  0.68011  0.32378  Biso   1.000  C
  H131     1.0000 0.60010  0.57969  0.05200  Biso   1.000  H
  C124     1.0000 0.46228  0.58092  0.96738  Biso   1.000  C
  C125     1.0000 0.53100  0.31989  0.67622  Biso   1.000  C
  C126     1.0000 0.70005  0.36780  0.73749  Biso   1.000  C
  H132     1.0000 0.09154  0.23909  0.39078  Biso   1.000  H
  H133     1.0000 0.19550  0.20118  0.38477  Biso   1.000  H
  C127     1.0000 0.20118  0.23181  0.49337  Biso   1.000  C
  C128     1.0000 0.35476  0.67331  0.31468  Biso   1.000  C
  H134     1.0000 0.22367  0.62799  0.25538  Biso   1.000  H
  H135     1.0000 0.21762  0.56561  0.00210  Biso   1.000  H
  C129     1.0000 0.34990  0.57649  0.95261  Biso   1.000  C
  O29      1.0000 0.51814  0.72327  0.37537  Biso   1.000  O
  H136     1.0000 0.49762  0.58732  0.92652  Biso   1.000  H
  O30      1.0000 0.48180  0.27673  0.62457  Biso   1.000  O
  C130     1.0000 0.47256  0.35609  0.71619  Biso   1.000  C
  C131     1.0000 0.64175  0.40259  0.77899  Biso   1.000  C
  H137     1.0000 0.77629  0.37201  0.74461  Biso   1.000  H
  O31      1.0000 0.30826  0.21641  0.51829  Biso   1.000  O
  H138     1.0000 0.15458  0.20281  0.51100  Biso   1.000  H
  H139     1.0000 0.18839  0.26931  0.51602  Biso   1.000  H
  O32      1.0000 0.30527  0.70976  0.35967  Biso   1.000  O
  H140     1.0000 0.30980  0.57938  0.90143  Biso   1.000  H
  C132     1.0000 0.60711  0.75288  0.35378  Biso   1.000  C
  C133     1.0000 0.39285  0.24712  0.64622  Biso   1.000  C
  C134     1.0000 0.52745  0.39820  0.76691  Biso   1.000  C
  H141     1.0000 0.39638  0.35209  0.70901  Biso   1.000  H
  C135     1.0000 0.69122  0.45041  0.83816  Biso   1.000  C
  C136     1.0000 0.34287  0.20228  0.59282  Biso   1.000  C
  C137     1.0000 0.18709  0.70722  0.34812  Biso   1.000  C
  C138     1.0000 0.65709  0.79772  0.40718  Biso   1.000  C
  H142     1.0000 0.58090  0.77052  0.30289  Biso   1.000  H
  H143     1.0000 0.66331  0.72428  0.34888  Biso   1.000  H
  H144     1.0000 0.41906  0.22948  0.69711  Biso   1.000  H
  H145     1.0000 0.33665  0.27572  0.65112  Biso   1.000  H
  C139     1.0000 0.47326  0.44299  0.81132  Biso   1.000  C
  C140     1.0000 0.63128  0.50612  0.80321  Biso   1.000  C
  C141     1.0000 0.64351  0.43799  0.91076  Biso   1.000  C
  C142     1.0000 0.81669  0.45378  0.85351  Biso   1.000  C
  H146     1.0000 0.28016  0.18688  0.61132  Biso   1.000  H
  H147     1.0000 0.39574  0.17061  0.59580  Biso   1.000  H
  C143     1.0000 0.15138  0.75201  0.39971  Biso   1.000  C
  H148     1.0000 0.16436  0.66839  0.36119  Biso   1.000  H
  H149     1.0000 0.15328  0.71511  0.29402  Biso   1.000  H
  O33      1.0000 0.69170  0.78359  0.48170  Biso   1.000  O
  H150     1.0000 0.71980  0.81312  0.38868  Biso   1.000  H
  H151     1.0000 0.60422  0.82939  0.40420  Biso   1.000  H
  C144     1.0000 0.51758  0.50261  0.78990  Biso   1.000  C
  C145     1.0000 0.52983  0.43422  0.89699  Biso   1.000  C
  C146     1.0000 0.34872  0.43909  0.79556  Biso   1.000  C
  C147     1.0000 0.68238  0.55591  0.78389  Biso   1.000  C
  C148     1.0000 0.70564  0.43229  0.98739  Biso   1.000  C
  H152     1.0000 0.84220  0.48541  0.88911  Biso   1.000  H
  H153     1.0000 0.83918  0.46080  0.80519  Biso   1.000  H
  H154     1.0000 0.84776  0.41750  0.87581  Biso   1.000  H
  O34      1.0000 0.18474  0.73262  0.47779  Biso   1.000  O
  H155     1.0000 0.18518  0.78960  0.39329  Biso   1.000  H
  H156     1.0000 0.07177  0.75670  0.38599  Biso   1.000  H
  C149     1.0000 0.79878  0.76819  0.50662  Biso   1.000  C
  C150     1.0000 0.45374  0.55060  0.75909  Biso   1.000  C
  C151     1.0000 0.47637  0.42391  0.95786  Biso   1.000  C
  H157     1.0000 0.32747  0.40079  0.80980  Biso   1.000  H
  H158     1.0000 0.31884  0.44571  0.74111  Biso   1.000  H
  H159     1.0000 0.32084  0.46822  0.82591  Biso   1.000  H
  H160     1.0000 0.75900  0.55740  0.79200  Biso   1.000  H
  C152     1.0000 0.61855  0.60421  0.75208  Biso   1.000  C
  H161     1.0000 0.78234  0.43439  0.99790  Biso   1.000  H
  C153     1.0000 0.65006  0.42351  0.04738  Biso   1.000  C
  C154     1.0000 0.15008  0.77030  0.53067  Biso   1.000  C
  C155     1.0000 0.82891  0.76398  0.59189  Biso   1.000  C
  H162     1.0000 0.84538  0.79719  0.48900  Biso   1.000  H
  H163     1.0000 0.81158  0.73069  0.48398  Biso   1.000  H
  C156     1.0000 0.50468  0.60079  0.74088  Biso   1.000  C
  H164     1.0000 0.37714  0.54889  0.75080  Biso   1.000  H
  H165     1.0000 0.39986  0.42031  0.94800  Biso   1.000  H
  C157     1.0000 0.53767  0.41908  0.03256  Biso   1.000  C
  O35      1.0000 0.66126  0.65532  0.72880  Biso   1.000  O
  H166     1.0000 0.69016  0.42062  0.09857  Biso   1.000  H
  C158     1.0000 0.16594  0.74310  0.60829  Biso   1.000  C
  H167     1.0000 0.07246  0.77960  0.51187  Biso   1.000  H
  H168     1.0000 0.19167  0.80658  0.53452  Biso   1.000  H
  O36      1.0000 0.77564  0.71239  0.61517  Biso   1.000  O
  H169     1.0000 0.90842  0.76091  0.60922  Biso   1.000  H
  H170     1.0000 0.80445  0.79882  0.61517  Biso   1.000  H
  O37      1.0000 0.44369  0.64944  0.70936  Biso   1.000  O
  H171     1.0000 0.50234  0.41268  0.07347  Biso   1.000  H
  C159     1.0000 0.77644  0.65488  0.72786  Biso   1.000  C
  O38      1.0000 0.27525  0.72740  0.63787  Biso   1.000  O
  H172     1.0000 0.14260  0.77039  0.64400  Biso   1.000  H
  H173     1.0000 0.11978  0.70849  0.60508  Biso   1.000  H
  C160     1.0000 0.80906  0.70928  0.69320  Biso   1.000  C
  C161     1.0000 0.37677  0.67212  0.74508  Biso   1.000  C
  H174     1.0000 0.79256  0.62141  0.69810  Biso   1.000  H
  H175     1.0000 0.81929  0.65089  0.78091  Biso   1.000  H
  C162     1.0000 0.29704  0.71498  0.71561  Biso   1.000  C
  H176     1.0000 0.77878  0.74249  0.71619  Biso   1.000  H
  H177     1.0000 0.88889  0.71261  0.70680  Biso   1.000  H
  H178     1.0000 0.42137  0.68862  0.79247  Biso   1.000  H
  H179     1.0000 0.33628  0.63961  0.76130  Biso   1.000  H
  H180     1.0000 0.22819  0.70309  0.72880  Biso   1.000  H
  H181     1.0000 0.31973  0.75122  0.74350  Biso   1.000  H
  Ne1      1.0000 0.49998  0.50000  0.49999  Biso   1.000  Ne
  He1      1.0000 0.60530  0.49561  0.51458  Biso   1.000  He
  He2      1.0000 0.23056  0.50448  0.49353  Biso   1.000  He
  He3      1.0000 0.51061  0.70487  0.55660  Biso   1.000  He
  He4      1.0000 0.48701  0.30128  0.44496  Biso   1.000  He
  Ar1      1.0000 0.49998  0.50000  0.50000  Biso   1.000  Ar
  Ne2      1.0000 0.00075  0.00418  0.01315  Biso   1.000  Ne
  He5      1.0000 0.10650  0.00433  0.01456  Biso   1.000  He
  He6      1.0000 0.91376  0.99416  0.98613  Biso   1.000  He
  He7      1.0000 0.02286  0.73112  0.10709  Biso   1.000  He
  He8      1.0000 0.98689  0.19848  0.94504  Biso   1.000  He
  Ar2      1.0000 0.00390  0.00717  0.00564  Biso   1.000  Ar
