data_image0
_cell_length_a       11.843
_cell_length_b       12.239
_cell_length_c       21.236
_cell_angle_alpha    81.87
_cell_angle_beta     76.17
_cell_angle_gamma    64.06

_symmetry_space_group_name_H-M    "P 1"
_symmetry_int_tables_number       1

loop_
  _symmetry_equiv_pos_as_xyz
  'x, y, z'

loop_
  _atom_site_label
  _atom_site_occupancy
  _atom_site_fract_x
  _atom_site_fract_y
  _atom_site_fract_z
  _atom_site_thermal_displace_type
  _atom_site_B_iso_or_equiv
  _atom_site_type_symbol
  C1       1.0000 0.66534  0.51260  0.55534  Biso   1.000  C
  C2       1.0000 0.72016  0.52153  0.59985  Biso   1.000  C
  H1       1.0000 0.58801  0.49491  0.56529  Biso   1.000  H
  H2       1.0000 0.69601  0.52593  0.50971  Biso   1.000  H
  C3       1.0000 0.82956  0.55644  0.58577  Biso   1.000  C
  H3       1.0000 0.68881  0.50504  0.64290  Biso   1.000  H
  O1       1.0000 0.91803  0.48416  0.62659  Biso   1.000  O
  H4       1.0000 0.79855  0.64195  0.59373  Biso   1.000  H
  H5       1.0000 0.87179  0.54375  0.54063  Biso   1.000  H
  C4       1.0000 0.01725  0.51572  0.62499  Biso   1.000  C
  C5       1.0000 0.09973  0.45079  0.66712  Biso   1.000  C
  C6       1.0000 0.03662  0.60765  0.58392  Biso   1.000  C
  C7       1.0000 0.19925  0.48056  0.66751  Biso   1.000  C
  C8       1.0000 0.08127  0.35054  0.71348  Biso   1.000  C
  H6       1.0000 0.98219  0.64901  0.55500  Biso   1.000  H
  C9       1.0000 0.13545  0.63882  0.58504  Biso   1.000  C
  C10      1.0000 0.21636  0.57493  0.62776  Biso   1.000  C
  H7       1.0000 0.25616  0.43669  0.69488  Biso   1.000  H
  H8       1.0000 0.16431  0.28768  0.71901  Biso   1.000  H
  H9       1.0000 0.03908  0.31412  0.69488  Biso   1.000  H
  C11      1.0000 0.00160  0.39867  0.77925  Biso   1.000  C
  C12      1.0000 0.15140  0.74340  0.54136  Biso   1.000  C
  O2       1.0000 0.31279  0.60934  0.62810  Biso   1.000  O
  C13      1.0000 0.87085  0.43118  0.79332  Biso   1.000  C
  C14      1.0000 0.05712  0.41571  0.82579  Biso   1.000  C
  C15      1.0000 0.06964  0.86413  0.57266  Biso   1.000  C
  H10      1.0000 0.12749  0.74528  0.50039  Biso   1.000  H
  H11      1.0000 0.24053  0.72995  0.53218  Biso   1.000  H
  C16      1.0000 0.38287  0.55803  0.67828  Biso   1.000  C
  C17      1.0000 0.79552  0.48161  0.85186  Biso   1.000  C
  H12      1.0000 0.83285  0.41896  0.76289  Biso   1.000  H
  C18      1.0000 0.98130  0.46679  0.88419  Biso   1.000  C
  O3       1.0000 0.18777  0.37874  0.81075  Biso   1.000  O
  C19      1.0000 0.94310  0.93050  0.56640  Biso   1.000  C
  C20      1.0000 0.11906  0.91062  0.60984  Biso   1.000  C
  H13      1.0000 0.32463  0.57213  0.71949  Biso   1.000  H
  H14      1.0000 0.43102  0.47212  0.67309  Biso   1.000  H
  H15      1.0000 0.44027  0.59498  0.67639  Biso   1.000  H
  O4       1.0000 0.66513  0.51535  0.86870  Biso   1.000  O
  C21      1.0000 0.85066  0.50096  0.89783  Biso   1.000  C
  H16      1.0000 0.01938  0.47818  0.91472  Biso   1.000  H
  C22      1.0000 0.24507  0.39482  0.85788  Biso   1.000  C
  O5       1.0000 0.89856  0.88058  0.52893  Biso   1.000  O
  C23      1.0000 0.86943  0.04017  0.59620  Biso   1.000  C
  H17      1.0000 0.20416  0.86776  0.61412  Biso   1.000  H
  C24      1.0000 0.04490  0.01920  0.64076  Biso   1.000  C
  C25      1.0000 0.60424  0.49413  0.82453  Biso   1.000  C
  C26      1.0000 0.76942  0.56381  0.96020  Biso   1.000  C
  H18      1.0000 0.22856  0.35027  0.89729  Biso   1.000  H
  H19      1.0000 0.33592  0.36554  0.84210  Biso   1.000  H
  H20      1.0000 0.20986  0.47965  0.86632  Biso   1.000  H
  C27      1.0000 0.76663  0.93659  0.52844  Biso   1.000  C
  C28      1.0000 0.91807  0.08627  0.63368  Biso   1.000  C
  H21      1.0000 0.78513  0.08393  0.59091  Biso   1.000  H
  O6       1.0000 0.08864  0.06794  0.67940  Biso   1.000  O
  H22      1.0000 0.61817  0.53610  0.78323  Biso   1.000  H
  H23      1.0000 0.64031  0.40783  0.81740  Biso   1.000  H
  C29      1.0000 0.46623  0.53858  0.85181  Biso   1.000  C
  H24      1.0000 0.82071  0.53647  0.99350  Biso   1.000  H
  H25      1.0000 0.69822  0.54103  0.97481  Biso   1.000  H
  C30      1.0000 0.71842  0.70037  0.95112  Biso   1.000  C
  C31      1.0000 0.73609  0.86377  0.48995  Biso   1.000  C
  H26      1.0000 0.71705  0.93894  0.57111  Biso   1.000  H
  H27      1.0000 0.74299  0.01696  0.50830  Biso   1.000  H
  C32      1.0000 0.83346  0.20483  0.66722  Biso   1.000  C
  C33      1.0000 0.21839  0.00335  0.68493  Biso   1.000  C
  H28      1.0000 0.41711  0.53557  0.82439  Biso   1.000  H
  C34      1.0000 0.40657  0.57874  0.90472  Biso   1.000  C
  C35      1.0000 0.78423  0.76414  0.96161  Biso   1.000  C
  C36      1.0000 0.60439  0.76577  0.92952  Biso   1.000  C
  H29      1.0000 0.64989  0.88403  0.49219  Biso   1.000  H
  C37      1.0000 0.81907  0.77453  0.45331  Biso   1.000  C
  C38      1.0000 0.75970  0.18442  0.73338  Biso   1.000  C
  H30      1.0000 0.88596  0.24423  0.67222  Biso   1.000  H
  H31      1.0000 0.77333  0.25847  0.64042  Biso   1.000  H
  H32      1.0000 0.23194  0.92434  0.70513  Biso   1.000  H
  H33      1.0000 0.27227  0.99426  0.64251  Biso   1.000  H
  H34      1.0000 0.23930  0.04727  0.71100  Biso   1.000  H
  H35      1.0000 0.44914  0.58454  0.93481  Biso   1.000  H
  H36      1.0000 0.31825  0.60371  0.91520  Biso   1.000  H
  O7       1.0000 0.89929  0.69537  0.98102  Biso   1.000  O
  C39      1.0000 0.73440  0.88914  0.95272  Biso   1.000  C
  C40      1.0000 0.55686  0.89059  0.91821  Biso   1.000  C
  H37      1.0000 0.55861  0.72480  0.92253  Biso   1.000  H
  H38      1.0000 0.79009  0.73197  0.43088  Biso   1.000  H
  H39      1.0000 0.90412  0.75088  0.45141  Biso   1.000  H
  C41      1.0000 0.64323  0.17778  0.74046  Biso   1.000  C
  C42      1.0000 0.81081  0.16551  0.78871  Biso   1.000  C
  C43      1.0000 0.96955  0.75813  0.99044  Biso   1.000  C
  H40      1.0000 0.77798  0.93058  0.96180  Biso   1.000  H
  C44      1.0000 0.62069  0.95467  0.93064  Biso   1.000  C
  O8       1.0000 0.44549  0.95802  0.89516  Biso   1.000  O
  O9       1.0000 0.59398  0.20155  0.68450  Biso   1.000  O
  C45      1.0000 0.58242  0.14950  0.80046  Biso   1.000  C
  C46      1.0000 0.74857  0.13886  0.84875  Biso   1.000  C
  H41      1.0000 0.88808  0.17078  0.78531  Biso   1.000  H
  H42      1.0000 0.98790  0.80142  0.95083  Biso   1.000  H
  H43      1.0000 0.91996  0.81470  0.02422  Biso   1.000  H
  H44      1.0000 0.04837  0.70093  0.00262  Biso   1.000  H
  C47      1.0000 0.56975  0.09162  0.92001  Biso   1.000  C
  C48      1.0000 0.37309  0.89679  0.88812  Biso   1.000  C
  C49      1.0000 0.49054  0.17213  0.68658  Biso   1.000  C
  C50      1.0000 0.63376  0.12890  0.85526  Biso   1.000  C
  H45      1.0000 0.50505  0.14431  0.80400  Biso   1.000  H
  O10      1.0000 0.79515  0.12033  0.90501  Biso   1.000  O
  H46      1.0000 0.47816  0.12527  0.92190  Biso   1.000  H
  H47      1.0000 0.58351  0.12522  0.95471  Biso   1.000  H
  C51      1.0000 0.26054  0.98186  0.86142  Biso   1.000  C
  H48      1.0000 0.42303  0.83286  0.85773  Biso   1.000  H
  H49      1.0000 0.34504  0.86684  0.92899  Biso   1.000  H
  C52      1.0000 0.45916  0.19360  0.62072  Biso   1.000  C
  H50      1.0000 0.51607  0.08290  0.70163  Biso   1.000  H
  H51      1.0000 0.41307  0.21993  0.71979  Biso   1.000  H
  C53      1.0000 0.90901  0.12803  0.90074  Biso   1.000  C
  H52      1.0000 0.20717  0.95015  0.85332  Biso   1.000  H
  C54      1.0000 0.22864  0.09768  0.84798  Biso   1.000  C
  H53      1.0000 0.39785  0.16931  0.61543  Biso   1.000  H
  C55      1.0000 0.50856  0.24249  0.57014  Biso   1.000  C
  H54      1.0000 0.93074  0.11206  0.94292  Biso   1.000  H
  H55      1.0000 0.97540  0.06911  0.87142  Biso   1.000  H
  H56      1.0000 0.90064  0.20806  0.88492  Biso   1.000  H
  H57      1.0000 0.15103  0.14890  0.82982  Biso   1.000  H
  H58      1.0000 0.28407  0.13387  0.85443  Biso   1.000  H
  H59      1.0000 0.48501  0.25394  0.52869  Biso   1.000  H
  H60      1.0000 0.57103  0.27295  0.57213  Biso   1.000  H
  C56      1.0000 0.33475  0.48719  0.44467  Biso   1.000  C
  C57      1.0000 0.27996  0.47835  0.40020  Biso   1.000  C
  H61      1.0000 0.41204  0.50497  0.43472  Biso   1.000  H
  H62      1.0000 0.30404  0.47395  0.49029  Biso   1.000  H
  C58      1.0000 0.17050  0.44344  0.41423  Biso   1.000  C
  H63      1.0000 0.31124  0.49484  0.35710  Biso   1.000  H
  O11      1.0000 0.08205  0.51563  0.37346  Biso   1.000  O
  H64      1.0000 0.20148  0.35793  0.40632  Biso   1.000  H
  H65      1.0000 0.12825  0.45613  0.45942  Biso   1.000  H
  C59      1.0000 0.98280  0.48416  0.37501  Biso   1.000  C
  C60      1.0000 0.90036  0.54900  0.33288  Biso   1.000  C
  C61      1.0000 0.96344  0.39223  0.41608  Biso   1.000  C
  C62      1.0000 0.91878  0.64934  0.28653  Biso   1.000  C
  C63      1.0000 0.80082  0.51923  0.33254  Biso   1.000  C
  C64      1.0000 0.86459  0.36106  0.41501  Biso   1.000  C
  H66      1.0000 0.01786  0.35087  0.44501  Biso   1.000  H
  C65      1.0000 0.99850  0.60112  0.22076  Biso   1.000  C
  H67      1.0000 0.83578  0.71211  0.28099  Biso   1.000  H
  H68      1.0000 0.96097  0.68576  0.30512  Biso   1.000  H
  C66      1.0000 0.78369  0.42495  0.37225  Biso   1.000  C
  H69      1.0000 0.74394  0.56310  0.30512  Biso   1.000  H
  C67      1.0000 0.84874  0.25648  0.45865  Biso   1.000  C
  C68      1.0000 0.12923  0.56861  0.20673  Biso   1.000  C
  C69      1.0000 0.94294  0.58417  0.17421  Biso   1.000  C
  O12      1.0000 0.68726  0.39054  0.37191  Biso   1.000  O
  C70      1.0000 0.93042  0.13575  0.42734  Biso   1.000  C
  H70      1.0000 0.87260  0.25451  0.49961  Biso   1.000  H
  H71      1.0000 0.75953  0.26993  0.46782  Biso   1.000  H
  C71      1.0000 0.20454  0.51827  0.14814  Biso   1.000  C
  H72      1.0000 0.16725  0.58083  0.23711  Biso   1.000  H
  C72      1.0000 0.01873  0.53309  0.11586  Biso   1.000  C
  O13      1.0000 0.81237  0.62114  0.18925  Biso   1.000  O
  C73      1.0000 0.61727  0.44185  0.32172  Biso   1.000  C
  C74      1.0000 0.05702  0.06938  0.43365  Biso   1.000  C
  C75      1.0000 0.88099  0.08926  0.39016  Biso   1.000  C
  O14      1.0000 0.33490  0.48453  0.13135  Biso   1.000  O
  C76      1.0000 0.14943  0.49883  0.10217  Biso   1.000  C
  H73      1.0000 0.98067  0.52170  0.08528  Biso   1.000  H
  C77      1.0000 0.75498  0.60506  0.14212  Biso   1.000  C
  H74      1.0000 0.67542  0.42776  0.28051  Biso   1.000  H
  H75      1.0000 0.56903  0.52776  0.32691  Biso   1.000  H
  H76      1.0000 0.55983  0.40481  0.32361  Biso   1.000  H
  O15      1.0000 0.10148  0.11930  0.47112  Biso   1.000  O
  C78      1.0000 0.13062  0.95971  0.40380  Biso   1.000  C
  C79      1.0000 0.95519  0.98059  0.35924  Biso   1.000  C
  H77      1.0000 0.79594  0.13203  0.38589  Biso   1.000  H
  C80      1.0000 0.39581  0.50575  0.17547  Biso   1.000  C
  C81      1.0000 0.23063  0.43607  0.03980  Biso   1.000  C
  H78      1.0000 0.77162  0.64952  0.10271  Biso   1.000  H
  H79      1.0000 0.66414  0.63435  0.15790  Biso   1.000  H
  H80      1.0000 0.79021  0.52014  0.13373  Biso   1.000  H
  C82      1.0000 0.23355  0.06320  0.47156  Biso   1.000  C
  C83      1.0000 0.08197  0.91360  0.36637  Biso   1.000  C
  H81      1.0000 0.21492  0.91595  0.40909  Biso   1.000  H
  O16      1.0000 0.91154  0.93185  0.32060  Biso   1.000  O
  H82      1.0000 0.38195  0.46378  0.21682  Biso   1.000  H
  H83      1.0000 0.35974  0.59205  0.18260  Biso   1.000  H
  C84      1.0000 0.53383  0.46130  0.14819  Biso   1.000  C
  H84      1.0000 0.17935  0.46342  0.00650  Biso   1.000  H
  H85      1.0000 0.30187  0.45876  0.02519  Biso   1.000  H
  C85      1.0000 0.28163  0.29952  0.04888  Biso   1.000  C
  C86      1.0000 0.26399  0.13602  0.51010  Biso   1.000  C
  H86      1.0000 0.28300  0.06094  0.42889  Biso   1.000  H
  H87      1.0000 0.25706  0.98292  0.49170  Biso   1.000  H
  C87      1.0000 0.16667  0.79505  0.33278  Biso   1.000  C
  C88      1.0000 0.78166  0.99653  0.31507  Biso   1.000  C
  H88      1.0000 0.58298  0.46422  0.17561  Biso   1.000  H
  C89      1.0000 0.59353  0.42105  0.09528  Biso   1.000  C
  C90      1.0000 0.21586  0.23565  0.03839  Biso   1.000  C
  C91      1.0000 0.39575  0.23412  0.07048  Biso   1.000  C
  H89      1.0000 0.35016  0.11585  0.50782  Biso   1.000  H
  C92      1.0000 0.18096  0.22535  0.54674  Biso   1.000  C
  C93      1.0000 0.24034  0.81545  0.26667  Biso   1.000  C
  H90      1.0000 0.11410  0.75565  0.32778  Biso   1.000  H
  H91      1.0000 0.22670  0.74141  0.35963  Biso   1.000  H
  H92      1.0000 0.76076  0.95261  0.28900  Biso   1.000  H
  H93      1.0000 0.76813  0.07544  0.29492  Biso   1.000  H
  H94      1.0000 0.72783  0.00553  0.35749  Biso   1.000  H
  H95      1.0000 0.55095  0.41525  0.06519  Biso   1.000  H
  H96      1.0000 0.68189  0.39617  0.08480  Biso   1.000  H
  O17      1.0000 0.10077  0.30452  0.01898  Biso   1.000  O
  C94      1.0000 0.26569  0.11065  0.04728  Biso   1.000  C
  C95      1.0000 0.44317  0.10928  0.08184  Biso   1.000  C
  H97      1.0000 0.44143  0.27508  0.07752  Biso   1.000  H
  H98      1.0000 0.21005  0.26792  0.56912  Biso   1.000  H
  H99      1.0000 0.09606  0.24891  0.54859  Biso   1.000  H
  C96      1.0000 0.18924  0.83437  0.21129  Biso   1.000  C
  C97      1.0000 0.35687  0.82202  0.25954  Biso   1.000  C
  C98      1.0000 0.03052  0.24165  0.00961  Biso   1.000  C
  H100     1.0000 0.22208  0.06930  0.03820  Biso   1.000  H
  C99      1.0000 0.37937  0.04521  0.06936  Biso   1.000  C
  O18      1.0000 0.55460  0.04177  0.10484  Biso   1.000  O
  C100     1.0000 0.25152  0.86093  0.15125  Biso   1.000  C
  H101     1.0000 0.11210  0.82901  0.21469  Biso   1.000  H
  C101     1.0000 0.41768  0.85029  0.19954  Biso   1.000  C
  O19      1.0000 0.40607  0.79833  0.31550  Biso   1.000  O
  H102     1.0000 0.01226  0.19836  0.04922  Biso   1.000  H
  H103     1.0000 0.95175  0.29895  0.99743  Biso   1.000  H
  H104     1.0000 0.08012  0.18509  0.97583  Biso   1.000  H
  C102     1.0000 0.43039  0.90827  0.07999  Biso   1.000  C
  C103     1.0000 0.62705  0.10309  0.11188  Biso   1.000  C
  C104     1.0000 0.36637  0.87098  0.14474  Biso   1.000  C
  O20      1.0000 0.20490  0.87955  0.09499  Biso   1.000  O
  H105     1.0000 0.49500  0.85557  0.19600  Biso   1.000  H
  C105     1.0000 0.50951  0.82775  0.31342  Biso   1.000  C
  H106     1.0000 0.52194  0.87452  0.07810  Biso   1.000  H
  H107     1.0000 0.41654  0.87467  0.04529  Biso   1.000  H
  C106     1.0000 0.73949  0.01802  0.13863  Biso   1.000  C
  H108     1.0000 0.57700  0.16701  0.14232  Biso   1.000  H
  H109     1.0000 0.65505  0.13295  0.07101  Biso   1.000  H
  C107     1.0000 0.09104  0.87185  0.09926  Biso   1.000  C
  C108     1.0000 0.54093  0.80619  0.37928  Biso   1.000  C
  H110     1.0000 0.48409  0.91689  0.29842  Biso   1.000  H
  H111     1.0000 0.58707  0.77995  0.28022  Biso   1.000  H
  H112     1.0000 0.79293  0.04964  0.14668  Biso   1.000  H
  C109     1.0000 0.77143  0.90211  0.15207  Biso   1.000  C
  H113     1.0000 0.06935  0.88773  0.05708  Biso   1.000  H
  H114     1.0000 0.02465  0.93077  0.12858  Biso   1.000  H
  H115     1.0000 0.09945  0.79173  0.11509  Biso   1.000  H
  H116     1.0000 0.60222  0.83048  0.38462  Biso   1.000  H
  C110     1.0000 0.49151  0.75730  0.42991  Biso   1.000  C
  H117     1.0000 0.84902  0.85098  0.17018  Biso   1.000  H
  H118     1.0000 0.71609  0.86591  0.14562  Biso   1.000  H
  H119     1.0000 0.51504  0.74594  0.47131  Biso   1.000  H
  H120     1.0000 0.42901  0.72693  0.42792  Biso   1.000  H
  Ne1      1.0000 0.17246  0.20312  0.25181  Biso   1.000  Ne
  He1      1.0000 0.43960  0.19849  0.29436  Biso   1.000  He
  He2      1.0000 0.85858  0.22850  0.18752  Biso   1.000  He
  Ar1      1.0000 0.17321  0.20068  0.25127  Biso   1.000  Ar
  Ne2      1.0000 0.82761  0.79673  0.74820  Biso   1.000  Ne
  He3      1.0000 0.15119  0.76947  0.81491  Biso   1.000  He
  He4      1.0000 0.63423  0.79004  0.72395  Biso   1.000  He
  Ar2      1.0000 0.83074  0.79962  0.74880  Biso   1.000  Ar
