data_image0
_cell_length_a       12.345
_cell_length_b       20.641
_cell_length_c       23.255
_cell_angle_alpha    90
_cell_angle_beta     90
_cell_angle_gamma    90

_symmetry_space_group_name_H-M    "P 1"
_symmetry_int_tables_number       1

loop_
  _symmetry_equiv_pos_as_xyz
  'x, y, z'

loop_
  _atom_site_label
  _atom_site_occupancy
  _atom_site_fract_x
  _atom_site_fract_y
  _atom_site_fract_z
  _atom_site_thermal_displace_type
  _atom_site_B_iso_or_equiv
  _atom_site_type_symbol
  C1       1.0000 0.68619  0.51756  0.51744  Biso   1.000  C
  C2       1.0000 0.73908  0.49101  0.46958  Biso   1.000  C
  O1       1.0000 0.67290  0.47648  0.56358  Biso   1.000  O
  C3       1.0000 0.64966  0.58108  0.51653  Biso   1.000  C
  C4       1.0000 0.77205  0.42033  0.46915  Biso   1.000  C
  C5       1.0000 0.75650  0.53050  0.42236  Biso   1.000  C
  C6       1.0000 0.62876  0.49978  0.61750  Biso   1.000  C
  C7       1.0000 0.62706  0.50501  0.61217  Biso   1.000  C
  C8       1.0000 0.66545  0.62003  0.46816  Biso   1.000  C
  H1       1.0000 0.61353  0.59828  0.54917  Biso   1.000  H
  C9       1.0000 0.68279  0.37755  0.44588  Biso   1.000  C
  H2       1.0000 0.83767  0.41505  0.44515  Biso   1.000  H
  H3       1.0000 0.79012  0.40662  0.50879  Biso   1.000  H
  H4       1.0000 0.79392  0.51364  0.38998  Biso   1.000  H
  C10      1.0000 0.72045  0.59440  0.42120  Biso   1.000  C
  H5       1.0000 0.67760  0.53302  0.63389  Biso   1.000  H
  H6       1.0000 0.55739  0.52023  0.61049  Biso   1.000  H
  C11      1.0000 0.61709  0.45022  0.65569  Biso   1.000  C
  H7       1.0000 0.54694  0.50458  0.61002  Biso   1.000  H
  H8       1.0000 0.65200  0.55031  0.61677  Biso   1.000  H
  C12      1.0000 0.67266  0.45700  0.66837  Biso   1.000  C
  C13      1.0000 0.61928  0.68790  0.46682  Biso   1.000  C
  C14      1.0000 0.66861  0.36849  0.38684  Biso   1.000  C
  C15      1.0000 0.61021  0.34800  0.48338  Biso   1.000  C
  O2       1.0000 0.73512  0.63524  0.37480  Biso   1.000  O
  H9       1.0000 0.57351  0.41500  0.63827  Biso   1.000  H
  H10      1.0000 0.57910  0.46568  0.69056  Biso   1.000  H
  C16      1.0000 0.72434  0.42590  0.67100  Biso   1.000  C
  C17      1.0000 0.63046  0.39092  0.66300  Biso   1.000  C
  H11      1.0000 0.75277  0.45599  0.66824  Biso   1.000  H
  H12      1.0000 0.64868  0.47585  0.70544  Biso   1.000  H
  C18      1.0000 0.50288  0.68965  0.44614  Biso   1.000  C
  H13      1.0000 0.66416  0.71513  0.44115  Biso   1.000  H
  H14      1.0000 0.62292  0.70670  0.50596  Biso   1.000  H
  C19      1.0000 0.58315  0.33138  0.36646  Biso   1.000  C
  O3       1.0000 0.74427  0.39790  0.35214  Biso   1.000  O
  C20      1.0000 0.52442  0.31098  0.46287  Biso   1.000  C
  H15      1.0000 0.61936  0.35323  0.52367  Biso   1.000  H
  C21      1.0000 0.79368  0.61082  0.32716  Biso   1.000  C
  H16      1.0000 0.77797  0.45657  0.68179  Biso   1.000  H
  C22      1.0000 0.75164  0.36442  0.67069  Biso   1.000  C
  H17      1.0000 0.55496  0.38714  0.65573  Biso   1.000  H
  C23      1.0000 0.68254  0.33802  0.66670  Biso   1.000  C
  C24      1.0000 0.48011  0.69086  0.38753  Biso   1.000  C
  C25      1.0000 0.41685  0.69008  0.48497  Biso   1.000  C
  C26      1.0000 0.50936  0.30270  0.40378  Biso   1.000  C
  H18      1.0000 0.57489  0.32547  0.32621  Biso   1.000  H
  C27      1.0000 0.72888  0.39349  0.29172  Biso   1.000  C
  O4       1.0000 0.45014  0.28032  0.49817  Biso   1.000  O
  H19      1.0000 0.79935  0.64445  0.29757  Biso   1.000  H
  H20      1.0000 0.75577  0.57308  0.31133  Biso   1.000  H
  H21      1.0000 0.86642  0.59794  0.33963  Biso   1.000  H
  H22      1.0000 0.70004  0.33245  0.66012  Biso   1.000  H
  H23      1.0000 0.82309  0.35187  0.68114  Biso   1.000  H
  H24      1.0000 0.75828  0.33850  0.67383  Biso   1.000  H
  H25      1.0000 0.64569  0.29785  0.66231  Biso   1.000  H
  C28      1.0000 0.37432  0.69212  0.36762  Biso   1.000  C
  H26      1.0000 0.53811  0.69081  0.36070  Biso   1.000  H
  C29      1.0000 0.31049  0.69091  0.46463  Biso   1.000  C
  O5       1.0000 0.44350  0.68950  0.54255  Biso   1.000  O
  C30      1.0000 0.41385  0.26433  0.38035  Biso   1.000  C
  H27      1.0000 0.78453  0.41912  0.27207  Biso   1.000  H
  H28      1.0000 0.65703  0.41025  0.28170  Biso   1.000  H
  H29      1.0000 0.73447  0.34809  0.27972  Biso   1.000  H
  C31      1.0000 0.46480  0.28753  0.55859  Biso   1.000  C
  C32      1.0000 0.28773  0.69183  0.40615  Biso   1.000  C
  O6       1.0000 0.34759  0.69439  0.30983  Biso   1.000  O
  H30      1.0000 0.25233  0.69081  0.49142  Biso   1.000  H
  C33      1.0000 0.36282  0.71295  0.58134  Biso   1.000  C
  C34      1.0000 0.31462  0.30614  0.37084  Biso   1.000  C
  H31      1.0000 0.43499  0.24403  0.34345  Biso   1.000  H
  H32      1.0000 0.39563  0.22920  0.40770  Biso   1.000  H
  H33      1.0000 0.45840  0.33375  0.56955  Biso   1.000  H
  H34      1.0000 0.53755  0.27193  0.56994  Biso   1.000  H
  C35      1.0000 0.37829  0.24815  0.58835  Biso   1.000  C
  C36      1.0000 0.17100  0.69246  0.38508  Biso   1.000  C
  C37      1.0000 0.43167  0.70966  0.27087  Biso   1.000  C
  H35      1.0000 0.30077  0.68257  0.58254  Biso   1.000  H
  H36      1.0000 0.33609  0.75573  0.56831  Biso   1.000  H
  C38      1.0000 0.41288  0.71881  0.64025  Biso   1.000  C
  C39      1.0000 0.29129  0.33303  0.31705  Biso   1.000  C
  C40      1.0000 0.24366  0.31859  0.41587  Biso   1.000  C
  H37      1.0000 0.30612  0.26675  0.57975  Biso   1.000  H
  H38      1.0000 0.37975  0.20314  0.57368  Biso   1.000  H
  C41      1.0000 0.39627  0.24790  0.65242  Biso   1.000  C
  C42      1.0000 0.12677  0.62502  0.37411  Biso   1.000  C
  H39      1.0000 0.12507  0.71431  0.41415  Biso   1.000  H
  H40      1.0000 0.16687  0.71794  0.34909  Biso   1.000  H
  H41      1.0000 0.46432  0.75117  0.28162  Biso   1.000  H
  H42      1.0000 0.40203  0.71271  0.23186  Biso   1.000  H
  H43      1.0000 0.48692  0.67560  0.27207  Biso   1.000  H
  H44      1.0000 0.35950  0.73834  0.66687  Biso   1.000  H
  H45      1.0000 0.47614  0.74827  0.63814  Biso   1.000  H
  C43      1.0000 0.44957  0.65321  0.66433  Biso   1.000  C
  O7       1.0000 0.36525  0.31999  0.27366  Biso   1.000  O
  C44      1.0000 0.19822  0.36960  0.30918  Biso   1.000  C
  C45      1.0000 0.15277  0.35720  0.40834  Biso   1.000  C
  H46      1.0000 0.25759  0.30023  0.45255  Biso   1.000  H
  H47      1.0000 0.45727  0.22441  0.66609  Biso   1.000  H
  C46      1.0000 0.33949  0.27528  0.68910  Biso   1.000  C
  C47      1.0000 0.13649  0.59668  0.32036  Biso   1.000  C
  C48      1.0000 0.07825  0.58922  0.41797  Biso   1.000  C
  H48      1.0000 0.40089  0.61790  0.66007  Biso   1.000  H
  C49      1.0000 0.53852  0.64149  0.68936  Biso   1.000  C
  C50      1.0000 0.34800  0.34989  0.22004  Biso   1.000  C
  C51      1.0000 0.12831  0.38273  0.35429  Biso   1.000  C
  H49      1.0000 0.18202  0.38603  0.27198  Biso   1.000  H
  O8       1.0000 0.08198  0.37207  0.45242  Biso   1.000  O
  H50      1.0000 0.27760  0.29936  0.67766  Biso   1.000  H
  H51      1.0000 0.35796  0.27213  0.72870  Biso   1.000  H
  C52      1.0000 0.10190  0.53389  0.31034  Biso   1.000  C
  H52      1.0000 0.16760  0.62085  0.28974  Biso   1.000  H
  C53      1.0000 0.04569  0.52590  0.40817  Biso   1.000  C
  O9       1.0000 0.06821  0.61993  0.47044  Biso   1.000  O
  H53      1.0000 0.58996  0.67521  0.69465  Biso   1.000  H
  H54      1.0000 0.55383  0.59905  0.70282  Biso   1.000  H
  H55      1.0000 0.34670  0.39707  0.22503  Biso   1.000  H
  H56      1.0000 0.27866  0.33545  0.20409  Biso   1.000  H
  H57      1.0000 0.40672  0.33816  0.19368  Biso   1.000  H
  C54      1.0000 0.02973  0.42595  0.34543  Biso   1.000  C
  C55      1.0000 0.11697  0.35725  0.50957  Biso   1.000  C
  C56      1.0000 0.05776  0.49668  0.35476  Biso   1.000  C
  O10      1.0000 0.10741  0.50380  0.25719  Biso   1.000  O
  H58      1.0000 0.01434  0.50182  0.43874  Biso   1.000  H
  C57      1.0000 0.99984  0.59154  0.51193  Biso   1.000  C
  H59      1.0000 0.00170  0.42004  0.30587  Biso   1.000  H
  H60      1.0000 0.97181  0.41306  0.37261  Biso   1.000  H
  H61      1.0000 0.18923  0.37629  0.51688  Biso   1.000  H
  H62      1.0000 0.12175  0.30972  0.51490  Biso   1.000  H
  C58      1.0000 0.03451  0.38564  0.55020  Biso   1.000  C
  C59      1.0000 0.16306  0.53641  0.21299  Biso   1.000  C
  H63      1.0000 0.02819  0.54847  0.52307  Biso   1.000  H
  H64      1.0000 0.92620  0.58578  0.49581  Biso   1.000  H
  C60      1.0000 0.99522  0.63514  0.56371  Biso   1.000  C
  H65      1.0000 0.02762  0.43273  0.54289  Biso   1.000  H
  C61      1.0000 0.06642  0.37479  0.61152  Biso   1.000  C
  H66      1.0000 0.96290  0.36539  0.54302  Biso   1.000  H
  H67      1.0000 0.16784  0.50836  0.17910  Biso   1.000  H
  H68      1.0000 0.23621  0.54750  0.22614  Biso   1.000  H
  H69      1.0000 0.12394  0.57618  0.20297  Biso   1.000  H
  H70      1.0000 0.07023  0.64396  0.57674  Biso   1.000  H
  H71      1.0000 0.96266  0.67695  0.55218  Biso   1.000  H
  C62      1.0000 0.93325  0.60869  0.61217  Biso   1.000  C
  H72      1.0000 0.08595  0.33191  0.62202  Biso   1.000  H
  C63      1.0000 0.06991  0.41742  0.65096  Biso   1.000  C
  H73      1.0000 0.95958  0.56819  0.62571  Biso   1.000  H
  C64      1.0000 0.85411  0.62870  0.63862  Biso   1.000  C
  H74      1.0000 0.05103  0.46102  0.64261  Biso   1.000  H
  H75      1.0000 0.09129  0.40560  0.68876  Biso   1.000  H
  H76      1.0000 0.82195  0.66881  0.62829  Biso   1.000  H
  H77      1.0000 0.82511  0.60399  0.66945  Biso   1.000  H
  C65      1.0000 0.33690  0.46359  0.71301  Biso   1.000  C
  O11      1.0000 0.39255  0.49620  0.75717  Biso   1.000  O
  H78      1.0000 0.33212  0.49164  0.67912  Biso   1.000  H
  H79      1.0000 0.26375  0.45250  0.72612  Biso   1.000  H
  H80      1.0000 0.37602  0.42382  0.70295  Biso   1.000  H
  C66      1.0000 0.39806  0.46611  0.81032  Biso   1.000  C
  C67      1.0000 0.44220  0.50332  0.85474  Biso   1.000  C
  C68      1.0000 0.36347  0.40332  0.82034  Biso   1.000  C
  C69      1.0000 0.45427  0.47410  0.90815  Biso   1.000  C
  C70      1.0000 0.47031  0.57405  0.84541  Biso   1.000  C
  C71      1.0000 0.37319  0.37498  0.87413  Biso   1.000  C
  H81      1.0000 0.33244  0.37915  0.78972  Biso   1.000  H
  H82      1.0000 0.48570  0.49818  0.93877  Biso   1.000  H
  C72      1.0000 0.42171  0.41078  0.91795  Biso   1.000  C
  H83      1.0000 0.49826  0.57996  0.80585  Biso   1.000  H
  H84      1.0000 0.52807  0.58694  0.87263  Biso   1.000  H
  C73      1.0000 0.37165  0.61727  0.85427  Biso   1.000  C
  C74      1.0000 0.32896  0.30754  0.88510  Biso   1.000  C
  O12      1.0000 0.43175  0.38007  0.97041  Biso   1.000  O
  C75      1.0000 0.34727  0.64280  0.90832  Biso   1.000  C
  C76      1.0000 0.30182  0.63040  0.80916  Biso   1.000  C
  C77      1.0000 0.21231  0.30817  0.90617  Biso   1.000  C
  H85      1.0000 0.37489  0.28569  0.91413  Biso   1.000  H
  H86      1.0000 0.33317  0.28206  0.84906  Biso   1.000  H
  C78      1.0000 0.50004  0.40846  0.01191  Biso   1.000  C
  O13      1.0000 0.41798  0.62793  0.95244  Biso   1.000  O
  C79      1.0000 0.25630  0.68141  0.91585  Biso   1.000  C
  H87      1.0000 0.31794  0.61397  0.77196  Biso   1.000  H
  C80      1.0000 0.20867  0.66697  0.81707  Biso   1.000  C
  C81      1.0000 0.12572  0.30788  0.86764  Biso   1.000  C
  C82      1.0000 0.18947  0.30909  0.96465  Biso   1.000  C
  H88      1.0000 0.57367  0.41422  0.99583  Biso   1.000  H
  H89      1.0000 0.47177  0.45153  0.02305  Biso   1.000  H
  C83      1.0000 0.50466  0.36486  0.06369  Biso   1.000  C
  C84      1.0000 0.38299  0.64275  0.00955  Biso   1.000  C
  C85      1.0000 0.18534  0.69386  0.87082  Biso   1.000  C
  H90      1.0000 0.24237  0.69977  0.95257  Biso   1.000  H
  O14      1.0000 0.13479  0.68001  0.77368  Biso   1.000  O
  O15      1.0000 0.15237  0.30561  0.80985  Biso   1.000  O
  C86      1.0000 0.01993  0.30914  0.88751  Biso   1.000  C
  H91      1.0000 0.24763  0.30919  0.99140  Biso   1.000  H
  C87      1.0000 0.08311  0.30992  0.98495  Biso   1.000  C
  H92      1.0000 0.42973  0.35604  0.07671  Biso   1.000  H
  H93      1.0000 0.53730  0.32305  0.05216  Biso   1.000  H
  C88      1.0000 0.56671  0.39131  0.11219  Biso   1.000  C
  H94      1.0000 0.31073  0.62371  0.01686  Biso   1.000  H
  H95      1.0000 0.37821  0.69028  0.01488  Biso   1.000  H
  C89      1.0000 0.46545  0.61436  0.05018  Biso   1.000  C
  C90      1.0000 0.08611  0.73567  0.88037  Biso   1.000  C
  C91      1.0000 0.15196  0.65011  0.72002  Biso   1.000  C
  C92      1.0000 0.06829  0.29034  0.77084  Biso   1.000  C
  C93      1.0000 0.99700  0.31035  0.94612  Biso   1.000  C
  H96      1.0000 0.96177  0.30919  0.86068  Biso   1.000  H
  O16      1.0000 0.05646  0.31050  0.04257  Biso   1.000  O
  H97      1.0000 0.54038  0.43181  0.12569  Biso   1.000  H
  C94      1.0000 0.64577  0.37130  0.13864  Biso   1.000  C
  H98      1.0000 0.47242  0.56727  0.04292  Biso   1.000  H
  H99      1.0000 0.53698  0.63461  0.04300  Biso   1.000  H
  C95      1.0000 0.43362  0.62521  0.11155  Biso   1.000  C
  H100     1.0000 0.06497  0.75597  0.84343  Biso   1.000  H
  H101     1.0000 0.10433  0.77080  0.90768  Biso   1.000  H
  C96      1.0000 0.99052  0.69730  0.90381  Biso   1.000  C
  H102     1.0000 0.15326  0.60293  0.72505  Biso   1.000  H
  H103     1.0000 0.22130  0.66455  0.70406  Biso   1.000  H
  H104     1.0000 0.09324  0.66184  0.69370  Biso   1.000  H
  H105     1.0000 0.03564  0.24883  0.78160  Biso   1.000  H
  H106     1.0000 0.09802  0.28729  0.73184  Biso   1.000  H
  H107     1.0000 0.01304  0.32440  0.77209  Biso   1.000  H
  C97      1.0000 0.88060  0.31210  0.96680  Biso   1.000  C
  C98      1.0000 0.13722  0.28705  0.08132  Biso   1.000  C
  H108     1.0000 0.67793  0.33119  0.12827  Biso   1.000  H
  H109     1.0000 0.67485  0.39601  0.16947  Biso   1.000  H
  H110     1.0000 0.41401  0.66809  0.12204  Biso   1.000  H
  C99      1.0000 0.43005  0.58258  0.15098  Biso   1.000  C
  C100     1.0000 0.91673  0.66862  0.86644  Biso   1.000  C
  C101     1.0000 0.97554  0.68902  0.96285  Biso   1.000  C
  C102     1.0000 0.83459  0.37997  0.96814  Biso   1.000  C
  H111     1.0000 0.83572  0.28487  0.94113  Biso   1.000  H
  H112     1.0000 0.87695  0.29330  0.00593  Biso   1.000  H
  H113     1.0000 0.19919  0.31743  0.08252  Biso   1.000  H
  H114     1.0000 0.16387  0.24427  0.06829  Biso   1.000  H
  C103     1.0000 0.08708  0.28119  0.14023  Biso   1.000  C
  H115     1.0000 0.44893  0.53898  0.14264  Biso   1.000  H
  H116     1.0000 0.40867  0.59440  0.18878  Biso   1.000  H
  H117     1.0000 0.92507  0.67453  0.82619  Biso   1.000  H
  C104     1.0000 0.83135  0.63151  0.88682  Biso   1.000  C
  O17      1.0000 0.04982  0.71968  0.99819  Biso   1.000  O
  C105     1.0000 0.88967  0.65200  0.98336  Biso   1.000  C
  C106     1.0000 0.77942  0.40560  0.92122  Biso   1.000  C
  C107     1.0000 0.85022  0.41892  0.01651  Biso   1.000  C
  H118     1.0000 0.14046  0.26166  0.16685  Biso   1.000  H
  H119     1.0000 0.02382  0.25173  0.13812  Biso   1.000  H
  C108     1.0000 0.05038  0.34679  0.16435  Biso   1.000  C
  O18      1.0000 0.75569  0.60210  0.85216  Biso   1.000  O
  C109     1.0000 0.81709  0.62245  0.94590  Biso   1.000  C
  C110     1.0000 0.03524  0.71247  0.05857  Biso   1.000  C
  H120     1.0000 0.88052  0.64677  0.02365  Biso   1.000  H
  O19      1.0000 0.76476  0.36476  0.87482  Biso   1.000  O
  C111     1.0000 0.74346  0.46950  0.92234  Biso   1.000  C
  H121     1.0000 0.88643  0.40172  0.04919  Biso   1.000  H
  C112     1.0000 0.81377  0.48244  0.01746  Biso   1.000  C
  C113     1.0000 0.96152  0.35851  0.18934  Biso   1.000  C
  H122     1.0000 0.09915  0.38210  0.16009  Biso   1.000  H
  C114     1.0000 0.77100  0.60651  0.79174  Biso   1.000  C
  C115     1.0000 0.72791  0.57967  0.96912  Biso   1.000  C
  H123     1.0000 0.96233  0.72807  0.06996  Biso   1.000  H
  H124     1.0000 0.04156  0.66625  0.06953  Biso   1.000  H
  C116     1.0000 0.12167  0.75185  0.08833  Biso   1.000  C
  C117     1.0000 0.70620  0.38918  0.82718  Biso   1.000  C
  C118     1.0000 0.76087  0.50899  0.96955  Biso   1.000  C
  H125     1.0000 0.70603  0.48636  0.88996  Biso   1.000  H
  O20      1.0000 0.82697  0.52352  0.06356  Biso   1.000  O
  H126     1.0000 0.90992  0.32479  0.19462  Biso   1.000  H
  H127     1.0000 0.94605  0.40095  0.20284  Biso   1.000  H
  H128     1.0000 0.71543  0.58088  0.77205  Biso   1.000  H
  H129     1.0000 0.84293  0.58975  0.78172  Biso   1.000  H
  H130     1.0000 0.76541  0.65191  0.77975  Biso   1.000  H
  H131     1.0000 0.66221  0.58495  0.94517  Biso   1.000  H
  H132     1.0000 0.70976  0.59338  0.00877  Biso   1.000  H
  H133     1.0000 0.19384  0.73325  0.07972  Biso   1.000  H
  H134     1.0000 0.12029  0.79686  0.07366  Biso   1.000  H
  C119     1.0000 0.10369  0.75210  0.15240  Biso   1.000  C
  H135     1.0000 0.70053  0.35555  0.79759  Biso   1.000  H
  H136     1.0000 0.74427  0.42692  0.81135  Biso   1.000  H
  H137     1.0000 0.63362  0.40206  0.83960  Biso   1.000  H
  C120     1.0000 0.87120  0.50022  0.11748  Biso   1.000  C
  C121     1.0000 0.87290  0.49499  0.11219  Biso   1.000  C
  H138     1.0000 0.04269  0.77559  0.16607  Biso   1.000  H
  C122     1.0000 0.16047  0.72472  0.18912  Biso   1.000  C
  H139     1.0000 0.82236  0.46698  0.13386  Biso   1.000  H
  H140     1.0000 0.94249  0.47977  0.11047  Biso   1.000  H
  C123     1.0000 0.88287  0.54978  0.15567  Biso   1.000  C
  H141     1.0000 0.95302  0.49542  0.11000  Biso   1.000  H
  H142     1.0000 0.84795  0.44969  0.11675  Biso   1.000  H
  C124     1.0000 0.82730  0.54300  0.16839  Biso   1.000  C
  H143     1.0000 0.22236  0.70064  0.17764  Biso   1.000  H
  H144     1.0000 0.14208  0.72787  0.22868  Biso   1.000  H
  H145     1.0000 0.92653  0.58500  0.13825  Biso   1.000  H
  H146     1.0000 0.92078  0.53432  0.19054  Biso   1.000  H
  C125     1.0000 0.77562  0.57410  0.17097  Biso   1.000  C
  C126     1.0000 0.86950  0.60908  0.16298  Biso   1.000  C
  H147     1.0000 0.74710  0.54401  0.16822  Biso   1.000  H
  H148     1.0000 0.85128  0.52415  0.20542  Biso   1.000  H
  H149     1.0000 0.72191  0.54343  0.18177  Biso   1.000  H
  C127     1.0000 0.74824  0.63558  0.17067  Biso   1.000  C
  H150     1.0000 0.94500  0.61286  0.15575  Biso   1.000  H
  C128     1.0000 0.81733  0.66198  0.16667  Biso   1.000  C
  H151     1.0000 0.79984  0.66755  0.16014  Biso   1.000  H
  H152     1.0000 0.67679  0.64813  0.18117  Biso   1.000  H
  H153     1.0000 0.74168  0.66150  0.17386  Biso   1.000  H
  H154     1.0000 0.85419  0.70215  0.16233  Biso   1.000  H
  C129     1.0000 0.87825  0.25183  0.41165  Biso   1.000  C
  C130     1.0000 0.96476  0.21244  0.44141  Biso   1.000  C
  H155     1.0000 0.80616  0.23323  0.42025  Biso   1.000  H
  H156     1.0000 0.87971  0.29688  0.42627  Biso   1.000  H
  C131     1.0000 0.89623  0.25212  0.34758  Biso   1.000  C
  O21      1.0000 0.95018  0.21966  0.50178  Biso   1.000  O
  H157     1.0000 0.95836  0.16627  0.43045  Biso   1.000  H
  H158     1.0000 0.03751  0.22804  0.43002  Biso   1.000  H
  H159     1.0000 0.95731  0.27557  0.33391  Biso   1.000  H
  C132     1.0000 0.83945  0.22470  0.31086  Biso   1.000  C
  C133     1.0000 0.02446  0.18904  0.53713  Biso   1.000  C
  H160     1.0000 0.77756  0.20062  0.32234  Biso   1.000  H
  H161     1.0000 0.85792  0.22785  0.27130  Biso   1.000  H
  C134     1.0000 0.00948  0.19733  0.59617  Biso   1.000  C
  C135     1.0000 0.11017  0.15198  0.51662  Biso   1.000  C
  C136     1.0000 0.91389  0.23565  0.61961  Biso   1.000  C
  C137     1.0000 0.08319  0.16860  0.63350  Biso   1.000  C
  C138     1.0000 0.18283  0.12243  0.55407  Biso   1.000  C
  H162     1.0000 0.11932  0.14675  0.47633  Biso   1.000  H
  C139     1.0000 0.81458  0.19384  0.62916  Biso   1.000  C
  H163     1.0000 0.93495  0.25600  0.65650  Biso   1.000  H
  H164     1.0000 0.89559  0.27077  0.59230  Biso   1.000  H
  H165     1.0000 0.07485  0.17451  0.67379  Biso   1.000  H
  C140     1.0000 0.16857  0.13153  0.61316  Biso   1.000  C
  C141     1.0000 0.27201  0.07965  0.53081  Biso   1.000  C
  C142     1.0000 0.74370  0.18144  0.58413  Biso   1.000  C
  C143     1.0000 0.79125  0.16695  0.68291  Biso   1.000  C
  O22      1.0000 0.24423  0.10208  0.64782  Biso   1.000  O
  H166     1.0000 0.33771  0.08498  0.55481  Biso   1.000  H
  H167     1.0000 0.29016  0.09341  0.49121  Biso   1.000  H
  C144     1.0000 0.23904  0.00901  0.53038  Biso   1.000  C
  C145     1.0000 0.65273  0.14277  0.59166  Biso   1.000  C
  H168     1.0000 0.75763  0.19980  0.54741  Biso   1.000  H
  C146     1.0000 0.69818  0.13037  0.69082  Biso   1.000  C
  O23      1.0000 0.86521  0.17998  0.72630  Biso   1.000  O
  C147     1.0000 0.22884  0.10649  0.70823  Biso   1.000  C
  C148     1.0000 0.25646  0.96948  0.57764  Biso   1.000  C
  C149     1.0000 0.18615  0.98241  0.48252  Biso   1.000  C
  O24      1.0000 0.58194  0.12790  0.54754  Biso   1.000  O
  C150     1.0000 0.62827  0.11724  0.64571  Biso   1.000  C
  H169     1.0000 0.68198  0.11400  0.72802  Biso   1.000  H
  C151     1.0000 0.84795  0.15009  0.77992  Biso   1.000  C
  H170     1.0000 0.28449  0.08091  0.72793  Biso   1.000  H
  H171     1.0000 0.15699  0.08977  0.71825  Biso   1.000  H
  H172     1.0000 0.23451  0.15188  0.72023  Biso   1.000  H
  H173     1.0000 0.29397  0.98639  0.61002  Biso   1.000  H
  C152     1.0000 0.22041  0.90558  0.57876  Biso   1.000  C
  C153     1.0000 0.14970  0.91895  0.48347  Biso   1.000  C
  O25      1.0000 0.17286  0.02350  0.43642  Biso   1.000  O
  C154     1.0000 0.61701  0.14277  0.49043  Biso   1.000  C
  C155     1.0000 0.52969  0.07403  0.65457  Biso   1.000  C
  H174     1.0000 0.84666  0.10290  0.77493  Biso   1.000  H
  H175     1.0000 0.77861  0.16453  0.79591  Biso   1.000  H
  H176     1.0000 0.90668  0.16186  0.80628  Biso   1.000  H
  O26      1.0000 0.23516  0.86474  0.62516  Biso   1.000  O
  C156     1.0000 0.16541  0.87995  0.53180  Biso   1.000  C
  H177     1.0000 0.11357  0.90170  0.45078  Biso   1.000  H
  C157     1.0000 0.12710  0.99501  0.38779  Biso   1.000  C
  C158     1.0000 0.12872  0.00019  0.38250  Biso   1.000  C
  C159     1.0000 0.53447  0.11438  0.44980  Biso   1.000  C
  H178     1.0000 0.68927  0.12373  0.48308  Biso   1.000  H
  H179     1.0000 0.62171  0.19025  0.48506  Biso   1.000  H
  C160     1.0000 0.55772  0.00329  0.64524  Biso   1.000  C
  H180     1.0000 0.50174  0.07999  0.69413  Biso   1.000  H
  H181     1.0000 0.47185  0.08691  0.62735  Biso   1.000  H
  C161     1.0000 0.29364  0.88920  0.67280  Biso   1.000  C
  C162     1.0000 0.11924  0.81207  0.53318  Biso   1.000  C
  H182     1.0000 0.17764  0.96701  0.36611  Biso   1.000  H
  H183     1.0000 0.05751  0.97975  0.38951  Biso   1.000  H
  H184     1.0000 0.04698  0.99545  0.38998  Biso   1.000  H
  H185     1.0000 0.15205  0.94966  0.38323  Biso   1.000  H
  C163     1.0000 0.11705  0.04980  0.34431  Biso   1.000  C
  C164     1.0000 0.17270  0.04302  0.33158  Biso   1.000  C
  C165     1.0000 0.56638  0.12519  0.38843  Biso   1.000  C
  H186     1.0000 0.52758  0.06729  0.45706  Biso   1.000  H
  H187     1.0000 0.46302  0.13459  0.45698  Biso   1.000  H
  C166     1.0000 0.60186  0.96609  0.68966  Biso   1.000  C
  C167     1.0000 0.54565  0.97413  0.59183  Biso   1.000  C
  H188     1.0000 0.29931  0.85558  0.70239  Biso   1.000  H
  H189     1.0000 0.25581  0.92689  0.68863  Biso   1.000  H
  H190     1.0000 0.36638  0.90209  0.66037  Biso   1.000  H
  C168     1.0000 0.00292  0.81033  0.55386  Biso   1.000  C
  H191     1.0000 0.16420  0.78489  0.55885  Biso   1.000  H
  H192     1.0000 0.12296  0.79328  0.49404  Biso   1.000  H
  H193     1.0000 0.07347  0.08498  0.36173  Biso   1.000  H
  H194     1.0000 0.07906  0.03435  0.30944  Biso   1.000  H
  C169     1.0000 0.22438  0.07408  0.32900  Biso   1.000  C
  C170     1.0000 0.13050  0.10910  0.33700  Biso   1.000  C
  H195     1.0000 0.25281  0.04399  0.33176  Biso   1.000  H
  H196     1.0000 0.14864  0.02413  0.29456  Biso   1.000  H
  H197     1.0000 0.58599  0.16811  0.37794  Biso   1.000  H
  C171     1.0000 0.56987  0.08260  0.34900  Biso   1.000  C
  O27      1.0000 0.60745  0.99617  0.74281  Biso   1.000  O
  C172     1.0000 0.63645  0.90330  0.67964  Biso   1.000  C
  H198     1.0000 0.51430  0.99816  0.56121  Biso   1.000  H
  C173     1.0000 0.57821  0.91076  0.58198  Biso   1.000  C
  C174     1.0000 0.98007  0.80912  0.61247  Biso   1.000  C
  C175     1.0000 0.91689  0.80989  0.51503  Biso   1.000  C
  H199     1.0000 0.27793  0.04341  0.31821  Biso   1.000  H
  C176     1.0000 0.25168  0.13560  0.32931  Biso   1.000  C
  H200     1.0000 0.05500  0.11288  0.34423  Biso   1.000  H
  C177     1.0000 0.18258  0.16201  0.33330  Biso   1.000  C
  H201     1.0000 0.55099  0.03900  0.35734  Biso   1.000  H
  H202     1.0000 0.59133  0.09442  0.31120  Biso   1.000  H
  C178     1.0000 0.66310  0.96357  0.78697  Biso   1.000  C
  C179     1.0000 0.62673  0.87496  0.62584  Biso   1.000  C
  H203     1.0000 0.66756  0.87917  0.71026  Biso   1.000  H
  O28      1.0000 0.56825  0.88009  0.52956  Biso   1.000  O
  C180     1.0000 0.87428  0.80786  0.63234  Biso   1.000  C
  H204     1.0000 0.03807  0.80917  0.63930  Biso   1.000  H
  C181     1.0000 0.81045  0.80907  0.53533  Biso   1.000  C
  O29      1.0000 0.94346  0.81052  0.45741  Biso   1.000  O
  H205     1.0000 0.20008  0.16758  0.33984  Biso   1.000  H
  H206     1.0000 0.32305  0.14810  0.31881  Biso   1.000  H
  H207     1.0000 0.25832  0.16147  0.32612  Biso   1.000  H
  H208     1.0000 0.14573  0.20217  0.33765  Biso   1.000  H
  H209     1.0000 0.66780  0.99167  0.82086  Biso   1.000  H
  H210     1.0000 0.73617  0.95252  0.77386  Biso   1.000  H
  H211     1.0000 0.62398  0.92384  0.79703  Biso   1.000  H
  C182     1.0000 0.67096  0.80752  0.61488  Biso   1.000  C
  C183     1.0000 0.49988  0.90843  0.48807  Biso   1.000  C
  C184     1.0000 0.78769  0.80815  0.59381  Biso   1.000  C
  O30      1.0000 0.84755  0.80558  0.69013  Biso   1.000  O
  H212     1.0000 0.75237  0.80917  0.50858  Biso   1.000  H
  C185     1.0000 0.86278  0.78707  0.41866  Biso   1.000  C
  H213     1.0000 0.62511  0.78567  0.58585  Biso   1.000  H
  H214     1.0000 0.66683  0.78208  0.65091  Biso   1.000  H
  H215     1.0000 0.52815  0.95150  0.47693  Biso   1.000  H
  H216     1.0000 0.42625  0.91425  0.50415  Biso   1.000  H
  C186     1.0000 0.49526  0.86488  0.43629  Biso   1.000  C
  C187     1.0000 0.93163  0.79037  0.72913  Biso   1.000  C
  H217     1.0000 0.80081  0.81740  0.41746  Biso   1.000  H
  H218     1.0000 0.83605  0.74430  0.43165  Biso   1.000  H
  C188     1.0000 0.91284  0.78116  0.35975  Biso   1.000  C
  H219     1.0000 0.57019  0.85606  0.42326  Biso   1.000  H
  H220     1.0000 0.46270  0.82302  0.44782  Biso   1.000  H
  C189     1.0000 0.43329  0.89133  0.38779  Biso   1.000  C
  H221     1.0000 0.96428  0.74880  0.71838  Biso   1.000  H
  H222     1.0000 0.90198  0.78732  0.76809  Biso   1.000  H
  H223     1.0000 0.98696  0.82438  0.72789  Biso   1.000  H
  H224     1.0000 0.85946  0.76164  0.33313  Biso   1.000  H
  H225     1.0000 0.97610  0.75176  0.36186  Biso   1.000  H
  C190     1.0000 0.94953  0.84681  0.33563  Biso   1.000  C
  H226     1.0000 0.45962  0.93179  0.37429  Biso   1.000  H
  C191     1.0000 0.35415  0.87132  0.36134  Biso   1.000  C
  H227     1.0000 0.90085  0.88213  0.33988  Biso   1.000  H
  C192     1.0000 0.03848  0.85849  0.31064  Biso   1.000  C
  H228     1.0000 0.32199  0.83121  0.37171  Biso   1.000  H
  H229     1.0000 0.32515  0.89598  0.33051  Biso   1.000  H
  H230     1.0000 0.08991  0.82477  0.30535  Biso   1.000  H
  H231     1.0000 0.05387  0.90097  0.29714  Biso   1.000  H
  C193     1.0000 0.65200  0.84991  0.27994  Biso   1.000  C
  O31      1.0000 0.63475  0.82002  0.22632  Biso   1.000  O
  H232     1.0000 0.65322  0.89710  0.27495  Biso   1.000  H
  H233     1.0000 0.72126  0.83547  0.29589  Biso   1.000  H
  H234     1.0000 0.59320  0.83814  0.30630  Biso   1.000  H
  C194     1.0000 0.70871  0.83305  0.18293  Biso   1.000  C
  C195     1.0000 0.68530  0.80616  0.12918  Biso   1.000  C
  C196     1.0000 0.80178  0.86963  0.19080  Biso   1.000  C
  C197     1.0000 0.58607  0.76435  0.11963  Biso   1.000  C
  C198     1.0000 0.75626  0.81856  0.08415  Biso   1.000  C
  C199     1.0000 0.87169  0.88276  0.14569  Biso   1.000  C
  H235     1.0000 0.81790  0.88600  0.22799  Biso   1.000  H
  H236     1.0000 0.56501  0.74400  0.15653  Biso   1.000  H
  H237     1.0000 0.60429  0.72923  0.09228  Biso   1.000  H
  C200     1.0000 0.49056  0.80267  0.09619  Biso   1.000  C
  C201     1.0000 0.84723  0.85723  0.09164  Biso   1.000  C
  H238     1.0000 0.74232  0.80020  0.04743  Biso   1.000  H
  C202     1.0000 0.97027  0.92597  0.15459  Biso   1.000  C
  C203     1.0000 0.41677  0.83140  0.13352  Biso   1.000  C
  C204     1.0000 0.47558  0.81096  0.03711  Biso   1.000  C
  O32      1.0000 0.91794  0.87210  0.04756  Biso   1.000  O
  C205     1.0000 0.94216  0.99671  0.14526  Biso   1.000  C
  H239     1.0000 0.99822  0.92001  0.19411  Biso   1.000  H
  H240     1.0000 0.02811  0.91309  0.12737  Biso   1.000  H
  H241     1.0000 0.42511  0.82549  0.17381  Biso   1.000  H
  C206     1.0000 0.33139  0.86847  0.11314  Biso   1.000  C
  O33      1.0000 0.54978  0.78034  0.00181  Biso   1.000  O
  C207     1.0000 0.38979  0.84802  0.01660  Biso   1.000  C
  C208     1.0000 0.88295  0.85723  0.99041  Biso   1.000  C
  C209     1.0000 0.89810  0.03391  0.18964  Biso   1.000  C
  C210     1.0000 0.95431  0.02587  0.09181  Biso   1.000  C
  O34      1.0000 0.25573  0.89792  0.14784  Biso   1.000  O
  C211     1.0000 0.31713  0.87757  0.05410  Biso   1.000  C
  C212     1.0000 0.53520  0.78756  0.94139  Biso   1.000  C
  H242     1.0000 0.38056  0.85325  0.97635  Biso   1.000  H
  H243     1.0000 0.81069  0.87627  0.98310  Biso   1.000  H
  H244     1.0000 0.87817  0.80975  0.98508  Biso   1.000  H
  C213     1.0000 0.96549  0.88562  0.94982  Biso   1.000  C
  O35      1.0000 0.89251  0.00383  0.24279  Biso   1.000  O
  C214     1.0000 0.86343  0.09670  0.17962  Biso   1.000  C
  H245     1.0000 0.98566  0.00184  0.06123  Biso   1.000  H
  C215     1.0000 0.92167  0.08924  0.08200  Biso   1.000  C
  C216     1.0000 0.27112  0.89351  0.20826  Biso   1.000  C
  C217     1.0000 0.22795  0.92035  0.03083  Biso   1.000  C
  H246     1.0000 0.54151  0.83373  0.93047  Biso   1.000  H
  H247     1.0000 0.46245  0.77196  0.93004  Biso   1.000  H
  C218     1.0000 0.62171  0.74817  0.91163  Biso   1.000  C
  H248     1.0000 0.97238  0.93271  0.95708  Biso   1.000  H
  C219     1.0000 0.93358  0.87481  0.88845  Biso   1.000  C
  H249     1.0000 0.03702  0.86541  0.95696  Biso   1.000  H
  C220     1.0000 0.83686  0.03643  0.28699  Biso   1.000  C
  C221     1.0000 0.87323  0.12504  0.12587  Biso   1.000  C
  H250     1.0000 0.83240  0.12083  0.21023  Biso   1.000  H
  O36      1.0000 0.93171  0.11991  0.02954  Biso   1.000  O
  H251     1.0000 0.21547  0.91909  0.22791  Biso   1.000  H
  H252     1.0000 0.34297  0.91023  0.21828  Biso   1.000  H
  H253     1.0000 0.26545  0.84812  0.22025  Biso   1.000  H
  H254     1.0000 0.16225  0.91502  0.05483  Biso   1.000  H
  C222     1.0000 0.26092  0.99099  0.03040  Biso   1.000  C
  H255     1.0000 0.20988  0.90659  0.99118  Biso   1.000  H
  H256     1.0000 0.69380  0.76677  0.92028  Biso   1.000  H
  H257     1.0000 0.62025  0.70312  0.92630  Biso   1.000  H
  C223     1.0000 0.60365  0.74788  0.84756  Biso   1.000  C
  H258     1.0000 0.91397  0.83189  0.87796  Biso   1.000  H
  C224     1.0000 0.93009  0.91740  0.84902  Biso   1.000  C
  H259     1.0000 0.83216  0.00833  0.32088  Biso   1.000  H
  H260     1.0000 0.76371  0.04748  0.27388  Biso   1.000  H
  H261     1.0000 0.87598  0.07616  0.29701  Biso   1.000  H
  C225     1.0000 0.82900  0.19248  0.11490  Biso   1.000  C
  C226     1.0000 0.00016  0.09157  0.98805  Biso   1.000  C
  C227     1.0000 0.31381  0.01759  0.98254  Biso   1.000  C
  C228     1.0000 0.24350  0.03052  0.07762  Biso   1.000  C
  H262     1.0000 0.54265  0.72443  0.83389  Biso   1.000  H
  C229     1.0000 0.66051  0.77530  0.81088  Biso   1.000  C
  H263     1.0000 0.94897  0.96100  0.85736  Biso   1.000  H
  H264     1.0000 0.90863  0.90558  0.81122  Biso   1.000  H
  C230     1.0000 0.71227  0.19185  0.09383  Biso   1.000  C
  H265     1.0000 0.87485  0.21433  0.08587  Biso   1.000  H
  H266     1.0000 0.83313  0.21792  0.15094  Biso   1.000  H
  H267     1.0000 0.97173  0.04850  0.97691  Biso   1.000  H
  C231     1.0000 0.00470  0.13512  0.93631  Biso   1.000  C
  H268     1.0000 0.07380  0.08575  0.00417  Biso   1.000  H
  O37      1.0000 0.32701  0.97650  0.93644  Biso   1.000  O
  C232     1.0000 0.35026  0.08105  0.98344  Biso   1.000  C
  H269     1.0000 0.20608  0.01361  0.11000  Biso   1.000  H
  C233     1.0000 0.27947  0.09442  0.07878  Biso   1.000  C
  H270     1.0000 0.72240  0.79938  0.82232  Biso   1.000  H
  H271     1.0000 0.64204  0.77215  0.77132  Biso   1.000  H
  C234     1.0000 0.62568  0.19214  0.13236  Biso   1.000  C
  C235     1.0000 0.68951  0.19093  0.03535  Biso   1.000  C
  H272     1.0000 0.92977  0.14394  0.92324  Biso   1.000  H
  H273     1.0000 0.03734  0.17698  0.94784  Biso   1.000  H
  C236     1.0000 0.06667  0.10867  0.88781  Biso   1.000  C
  C237     1.0000 0.37116  0.99981  0.88252  Biso   1.000  C
  C238     1.0000 0.37286  0.00499  0.88781  Biso   1.000  C
  H274     1.0000 0.38647  0.09830  0.95081  Biso   1.000  H
  C239     1.0000 0.33455  0.12005  0.03182  Biso   1.000  C
  O38      1.0000 0.26480  0.13526  0.12518  Biso   1.000  O
  C240     1.0000 0.51989  0.19088  0.11245  Biso   1.000  C
  O39      1.0000 0.65241  0.19442  0.19015  Biso   1.000  O
  C241     1.0000 0.58307  0.19011  0.01501  Biso   1.000  C
  H275     1.0000 0.74759  0.19083  0.00856  Biso   1.000  H
  H276     1.0000 0.04042  0.06821  0.87431  Biso   1.000  H
  C242     1.0000 0.14573  0.12868  0.86136  Biso   1.000  C
  C243     1.0000 0.38291  0.95020  0.84429  Biso   1.000  C
  C244     1.0000 0.32726  0.95698  0.83161  Biso   1.000  C
  H277     1.0000 0.32232  0.03299  0.86609  Biso   1.000  H
  H278     1.0000 0.44253  0.02025  0.88953  Biso   1.000  H
  H279     1.0000 0.45298  0.00455  0.89000  Biso   1.000  H
  H280     1.0000 0.34791  0.05034  0.88321  Biso   1.000  H
  C245     1.0000 0.38072  0.18793  0.03315  Biso   1.000  C
  C246     1.0000 0.20632  0.11080  0.17282  Biso   1.000  C
  C247     1.0000 0.49704  0.18967  0.05384  Biso   1.000  C
  H281     1.0000 0.46181  0.19083  0.13932  Biso   1.000  H
  C248     1.0000 0.56825  0.20963  0.22911  Biso   1.000  C
  O40      1.0000 0.55650  0.18948  0.95743  Biso   1.000  O
  H282     1.0000 0.17789  0.16879  0.87168  Biso   1.000  H
  H283     1.0000 0.17481  0.10402  0.83053  Biso   1.000  H
  H284     1.0000 0.42649  0.91502  0.86175  Biso   1.000  H
  H285     1.0000 0.42082  0.96565  0.80942  Biso   1.000  H
  C249     1.0000 0.27558  0.92592  0.82898  Biso   1.000  C
  C250     1.0000 0.36946  0.89090  0.83702  Biso   1.000  C
  H286     1.0000 0.24714  0.95601  0.83174  Biso   1.000  H
  H287     1.0000 0.35132  0.97587  0.79458  Biso   1.000  H
  H288     1.0000 0.37699  0.20672  0.99407  Biso   1.000  H
  H289     1.0000 0.33576  0.21511  0.05887  Biso   1.000  H
  H290     1.0000 0.20057  0.14442  0.20241  Biso   1.000  H
  H291     1.0000 0.24423  0.07311  0.18865  Biso   1.000  H
  H292     1.0000 0.13358  0.09791  0.16040  Biso   1.000  H
  H293     1.0000 0.53560  0.25120  0.21836  Biso   1.000  H
  H294     1.0000 0.59797  0.21268  0.26811  Biso   1.000  H
  H295     1.0000 0.51300  0.17562  0.22791  Biso   1.000  H
  C251     1.0000 0.63718  0.21293  0.91868  Biso   1.000  C
  H296     1.0000 0.22203  0.95659  0.81823  Biso   1.000  H
  C252     1.0000 0.24828  0.86440  0.82928  Biso   1.000  C
  H297     1.0000 0.44496  0.88712  0.84425  Biso   1.000  H
  C253     1.0000 0.31738  0.83799  0.83328  Biso   1.000  C
  H298     1.0000 0.69915  0.18260  0.91748  Biso   1.000  H
  H299     1.0000 0.66391  0.25570  0.93167  Biso   1.000  H
  C254     1.0000 0.58704  0.21884  0.85977  Biso   1.000  C
  H300     1.0000 0.29988  0.83242  0.83986  Biso   1.000  H
  H301     1.0000 0.17683  0.85190  0.81883  Biso   1.000  H
  H302     1.0000 0.24164  0.83853  0.82614  Biso   1.000  H
  H303     1.0000 0.35423  0.79783  0.83767  Biso   1.000  H
  H304     1.0000 0.64042  0.23836  0.83315  Biso   1.000  H
  H305     1.0000 0.52386  0.24824  0.86188  Biso   1.000  H
  C255     1.0000 0.55034  0.15319  0.83565  Biso   1.000  C
  H306     1.0000 0.59911  0.11787  0.83991  Biso   1.000  H
  C256     1.0000 0.46148  0.14151  0.81066  Biso   1.000  C
  H307     1.0000 0.41004  0.17523  0.80533  Biso   1.000  H
  H308     1.0000 0.44609  0.09903  0.79716  Biso   1.000  H
  Ne1      1.0000 0.39613  0.49006  0.46847  Biso   1.000  Ne
  He1      1.0000 0.33494  0.48109  0.67419  Biso   1.000  He
  He2      1.0000 0.48829  0.52261  0.25253  Biso   1.000  He
  Ar1      1.0000 0.36676  0.49494  0.46497  Biso   1.000  Ar
  Ne2      1.0000 0.89612  0.00993  0.53151  Biso   1.000  Ne
  He3      1.0000 0.98990  0.97712  0.74995  Biso   1.000  He
  He4      1.0000 0.83482  0.01898  0.32293  Biso   1.000  He
  Ar2      1.0000 0.86654  0.00489  0.53501  Biso   1.000  Ar
  Ne3      1.0000 0.10382  0.50994  0.96847  Biso   1.000  Ne
  He5      1.0000 0.17623  0.51301  0.23401  Biso   1.000  He
  He6      1.0000 0.01565  0.47801  0.75879  Biso   1.000  He
  Ar3      1.0000 0.13384  0.50504  0.96575  Biso   1.000  Ar
  Ne4      1.0000 0.60383  0.99007  0.03151  Biso   1.000  Ne
  He7      1.0000 0.51321  0.02239  0.24498  Biso   1.000  He
  He8      1.0000 0.66716  0.98288  0.84136  Biso   1.000  He
  Ar4      1.0000 0.63394  0.99502  0.03416  Biso   1.000  Ar
