data_image0
_cell_length_a       12.043
_cell_length_b       13.829
_cell_length_c       19.662
_cell_angle_alpha    78.72
_cell_angle_beta     83.61
_cell_angle_gamma    78.59

_symmetry_space_group_name_H-M    "P 1"
_symmetry_int_tables_number       1

loop_
  _symmetry_equiv_pos_as_xyz
  'x, y, z'

loop_
  _atom_site_label
  _atom_site_occupancy
  _atom_site_fract_x
  _atom_site_fract_y
  _atom_site_fract_z
  _atom_site_thermal_displace_type
  _atom_site_B_iso_or_equiv
  _atom_site_type_symbol
  C1       1.0000 0.72026  0.46159  0.62979  Biso   1.000  C
  C2       1.0000 0.72227  0.49231  0.68450  Biso   1.000  C
  H1       1.0000 0.66651  0.42359  0.62578  Biso   1.000  H
  H2       1.0000 0.77271  0.47645  0.59260  Biso   1.000  H
  C3       1.0000 0.64277  0.47382  0.74847  Biso   1.000  C
  H3       1.0000 0.77748  0.52999  0.68632  Biso   1.000  H
  O1       1.0000 0.63282  0.55611  0.78306  Biso   1.000  O
  H4       1.0000 0.56909  0.46849  0.73563  Biso   1.000  H
  H5       1.0000 0.67296  0.41186  0.77859  Biso   1.000  H
  C4       1.0000 0.55554  0.55997  0.84069  Biso   1.000  C
  C5       1.0000 0.48509  0.49017  0.86373  Biso   1.000  C
  C6       1.0000 0.55041  0.63996  0.87538  Biso   1.000  C
  C7       1.0000 0.40620  0.49997  0.92005  Biso   1.000  C
  H6       1.0000 0.49094  0.43608  0.84110  Biso   1.000  H
  C8       1.0000 0.47110  0.64970  0.93134  Biso   1.000  C
  C9       1.0000 0.62832  0.71526  0.85244  Biso   1.000  C
  C10      1.0000 0.32620  0.42558  0.94289  Biso   1.000  C
  C11      1.0000 0.39796  0.58146  0.95261  Biso   1.000  C
  H7       1.0000 0.46669  0.70249  0.95501  Biso   1.000  H
  C12      1.0000 0.58133  0.80036  0.79716  Biso   1.000  C
  H8       1.0000 0.70113  0.68151  0.83481  Biso   1.000  H
  H9       1.0000 0.64103  0.74211  0.89239  Biso   1.000  H
  C13      1.0000 0.22192  0.45811  0.90123  Biso   1.000  C
  H10      1.0000 0.36478  0.35949  0.93566  Biso   1.000  H
  H11      1.0000 0.30342  0.42216  0.99209  Biso   1.000  H
  O2       1.0000 0.31424  0.58969  0.00644  Biso   1.000  O
  C14      1.0000 0.50849  0.88597  0.81364  Biso   1.000  C
  C15      1.0000 0.60562  0.79461  0.72736  Biso   1.000  C
  C16      1.0000 0.12927  0.52453  0.92411  Biso   1.000  C
  C17      1.0000 0.21984  0.42753  0.83850  Biso   1.000  C
  C18      1.0000 0.29968  0.67386  0.03890  Biso   1.000  C
  C19      1.0000 0.46152  0.96156  0.76236  Biso   1.000  C
  O3       1.0000 0.48991  0.88839  0.88406  Biso   1.000  O
  C20      1.0000 0.55906  0.86960  0.67550  Biso   1.000  C
  H12      1.0000 0.65452  0.73868  0.71503  Biso   1.000  H
  C21      1.0000 0.03556  0.55983  0.88432  Biso   1.000  C
  H13      1.0000 0.12970  0.54568  0.96614  Biso   1.000  H
  C22      1.0000 0.12509  0.46134  0.79991  Biso   1.000  C
  O4       1.0000 0.31466  0.36205  0.81801  Biso   1.000  O
  C23      1.0000 0.19595  0.67389  0.08560  Biso   1.000  C
  H14      1.0000 0.34721  0.72095  0.03193  Biso   1.000  H
  C24      1.0000 0.48403  0.95378  0.69210  Biso   1.000  C
  H15      1.0000 0.41440  0.01835  0.77474  Biso   1.000  H
  C25      1.0000 0.40819  0.96840  0.90430  Biso   1.000  C
  O5       1.0000 0.58179  0.86519  0.60623  Biso   1.000  O
  C26      1.0000 0.03210  0.52744  0.82233  Biso   1.000  C
  O6       1.0000 0.94121  0.62628  0.90419  Biso   1.000  O
  H16      1.0000 0.12407  0.43922  0.75825  Biso   1.000  H
  C27      1.0000 0.32470  0.34376  0.74905  Biso   1.000  C
  C28      1.0000 0.11056  0.67378  0.12107  Biso   1.000  C
  C29      1.0000 0.42416  0.03261  0.63650  Biso   1.000  C
  C30      1.0000 0.38768  0.94389  0.98018  Biso   1.000  C
  H17      1.0000 0.33843  0.97530  0.88204  Biso   1.000  H
  H18      1.0000 0.43667  0.03088  0.89109  Biso   1.000  H
  C31      1.0000 0.66146  0.78002  0.58771  Biso   1.000  C
  C32      1.0000 0.93124  0.56391  0.77885  Biso   1.000  C
  C33      1.0000 0.95283  0.67670  0.95865  Biso   1.000  C
  C34      1.0000 0.43475  0.27592  0.73688  Biso   1.000  C
  H19      1.0000 0.32175  0.40657  0.71649  Biso   1.000  H
  H20      1.0000 0.26216  0.31299  0.74192  Biso   1.000  H
  H21      1.0000 0.04322  0.67356  0.14921  Biso   1.000  H
  C35      1.0000 0.31333  0.00821  0.62121  Biso   1.000  C
  H22      1.0000 0.47386  0.03819  0.59411  Biso   1.000  H
  H23      1.0000 0.40921  0.09698  0.65158  Biso   1.000  H
  C36      1.0000 0.36639  0.92590  0.04077  Biso   1.000  C
  C37      1.0000 0.68928  0.78982  0.51739  Biso   1.000  C
  H24      1.0000 0.62894  0.72002  0.60357  Biso   1.000  H
  H25      1.0000 0.73021  0.77209  0.61138  Biso   1.000  H
  C38      1.0000 0.94271  0.65823  0.72668  Biso   1.000  C
  H26      1.0000 0.86296  0.57697  0.80927  Biso   1.000  H
  H27      1.0000 0.92299  0.51173  0.75425  Biso   1.000  H
  H28      1.0000 0.02055  0.70657  0.94892  Biso   1.000  H
  C39      1.0000 0.85144  0.75459  0.96270  Biso   1.000  C
  H29      1.0000 0.95885  0.62985  0.00233  Biso   1.000  H
  C40      1.0000 0.50626  0.23181  0.78368  Biso   1.000  C
  H30      1.0000 0.45449  0.26382  0.69178  Biso   1.000  H
  C41      1.0000 0.30964  0.95226  0.57024  Biso   1.000  C
  C42      1.0000 0.21058  0.04039  0.65792  Biso   1.000  C
  H31      1.0000 0.34971  0.91169  0.08862  Biso   1.000  H
  C43      1.0000 0.65571  0.73195  0.47932  Biso   1.000  C
  H32      1.0000 0.73226  0.83766  0.49571  Biso   1.000  H
  C44      1.0000 0.99439  0.65431  0.66011  Biso   1.000  C
  C45      1.0000 0.90614  0.75235  0.74541  Biso   1.000  C
  C46      1.0000 0.77158  0.81761  0.96608  Biso   1.000  C
  H33      1.0000 0.49013  0.24165  0.82951  Biso   1.000  H
  H34      1.0000 0.57319  0.19050  0.77131  Biso   1.000  H
  C47      1.0000 0.20938  0.92632  0.55718  Biso   1.000  C
  H35      1.0000 0.37627  0.93177  0.54402  Biso   1.000  H
  C48      1.0000 0.11052  0.01635  0.64409  Biso   1.000  C
  O7       1.0000 0.21753  0.09642  0.70775  Biso   1.000  O
  H36      1.0000 0.61264  0.68390  0.50039  Biso   1.000  H
  H37      1.0000 0.67549  0.73998  0.43168  Biso   1.000  H
  O8       1.0000 0.02795  0.55892  0.64404  Biso   1.000  O
  C49      1.0000 0.01020  0.74156  0.61392  Biso   1.000  C
  C50      1.0000 0.92254  0.83943  0.69932  Biso   1.000  C
  H38      1.0000 0.87021  0.75692  0.78935  Biso   1.000  H
  H39      1.0000 0.70799  0.86767  0.96879  Biso   1.000  H
  C51      1.0000 0.10793  0.95849  0.59452  Biso   1.000  C
  O9       1.0000 0.20356  0.86922  0.50840  Biso   1.000  O
  H40      1.0000 0.04325  0.03955  0.66864  Biso   1.000  H
  C52      1.0000 0.11829  0.11650  0.75305  Biso   1.000  C
  C53      1.0000 0.07921  0.54996  0.57783  Biso   1.000  C
  H41      1.0000 0.04463  0.73731  0.56961  Biso   1.000  H
  C54      1.0000 0.97547  0.83455  0.63301  Biso   1.000  C
  O10      1.0000 0.89008  0.93415  0.71571  Biso   1.000  O
  C55      1.0000 0.99722  0.92857  0.58319  Biso   1.000  C
  C56      1.0000 0.29170  0.86361  0.45441  Biso   1.000  C
  C57      1.0000 0.14932  0.15368  0.81135  Biso   1.000  C
  H42      1.0000 0.08755  0.05571  0.76975  Biso   1.000  H
  H43      1.0000 0.06095  0.16606  0.72840  Biso   1.000  H
  C58      1.0000 0.10775  0.44169  0.57258  Biso   1.000  C
  H44      1.0000 0.14767  0.57875  0.56998  Biso   1.000  H
  H45      1.0000 0.02789  0.58565  0.54283  Biso   1.000  H
  C59      1.0000 0.82817  0.94359  0.78004  Biso   1.000  C
  H46      1.0000 0.93472  0.98305  0.58938  Biso   1.000  H
  H47      1.0000 0.99990  0.91736  0.53581  Biso   1.000  H
  C60      1.0000 0.25762  0.81775  0.40001  Biso   1.000  C
  H48      1.0000 0.36089  0.82353  0.47287  Biso   1.000  H
  H49      1.0000 0.30625  0.93022  0.43459  Biso   1.000  H
  C61      1.0000 0.17177  0.18329  0.85920  Biso   1.000  C
  C62      1.0000 0.07778  0.36737  0.61751  Biso   1.000  C
  H50      1.0000 0.15165  0.42559  0.53300  Biso   1.000  H
  H51      1.0000 0.86626  0.89668  0.81734  Biso   1.000  H
  H52      1.0000 0.75277  0.92895  0.77958  Biso   1.000  H
  C63      1.0000 0.81995  0.04540  0.79123  Biso   1.000  C
  C64      1.0000 0.16208  0.78788  0.39970  Biso   1.000  C
  H53      1.0000 0.30989  0.80949  0.36209  Biso   1.000  H
  H54      1.0000 0.18969  0.20675  0.89712  Biso   1.000  H
  H55      1.0000 0.03381  0.37940  0.65798  Biso   1.000  H
  H56      1.0000 0.10033  0.30215  0.60919  Biso   1.000  H
  C65      1.0000 0.81611  0.12664  0.80262  Biso   1.000  C
  H57      1.0000 0.10691  0.79446  0.43641  Biso   1.000  H
  H58      1.0000 0.14878  0.75976  0.36272  Biso   1.000  H
  H59      1.0000 0.81294  0.19080  0.81161  Biso   1.000  H
  C66      1.0000 0.27983  0.53837  0.37021  Biso   1.000  C
  C67      1.0000 0.27781  0.50772  0.31549  Biso   1.000  C
  H60      1.0000 0.33366  0.57637  0.37421  Biso   1.000  H
  H61      1.0000 0.22746  0.52351  0.40739  Biso   1.000  H
  C68      1.0000 0.35730  0.52622  0.25152  Biso   1.000  C
  H62      1.0000 0.22268  0.46996  0.31372  Biso   1.000  H
  O11      1.0000 0.36727  0.44385  0.21693  Biso   1.000  O
  H63      1.0000 0.43108  0.53147  0.26437  Biso   1.000  H
  H64      1.0000 0.32713  0.58810  0.22141  Biso   1.000  H
  C69      1.0000 0.44463  0.43999  0.15931  Biso   1.000  C
  C70      1.0000 0.44967  0.36000  0.12462  Biso   1.000  C
  C71      1.0000 0.51500  0.50979  0.13627  Biso   1.000  C
  C72      1.0000 0.37177  0.28470  0.14755  Biso   1.000  C
  C73      1.0000 0.52897  0.35033  0.06865  Biso   1.000  C
  C74      1.0000 0.59389  0.49999  0.07994  Biso   1.000  C
  H65      1.0000 0.50923  0.56388  0.15889  Biso   1.000  H
  C75      1.0000 0.41884  0.19960  0.20284  Biso   1.000  C
  H66      1.0000 0.29902  0.31853  0.16518  Biso   1.000  H
  H67      1.0000 0.35912  0.25792  0.10761  Biso   1.000  H
  C76      1.0000 0.60221  0.41850  0.04738  Biso   1.000  C
  H68      1.0000 0.53340  0.29747  0.04499  Biso   1.000  H
  C77      1.0000 0.67389  0.57438  0.05711  Biso   1.000  C
  C78      1.0000 0.39454  0.20543  0.27264  Biso   1.000  C
  C79      1.0000 0.49160  0.11399  0.18635  Biso   1.000  C
  O12      1.0000 0.68584  0.41034  0.99355  Biso   1.000  O
  C80      1.0000 0.77824  0.54192  0.09877  Biso   1.000  C
  H69      1.0000 0.63531  0.64047  0.06434  Biso   1.000  H
  H70      1.0000 0.69667  0.57780  0.00791  Biso   1.000  H
  C81      1.0000 0.44103  0.13036  0.32449  Biso   1.000  C
  H71      1.0000 0.34565  0.26128  0.28496  Biso   1.000  H
  C82      1.0000 0.53865  0.03840  0.23763  Biso   1.000  C
  O13      1.0000 0.51026  0.11157  0.11593  Biso   1.000  O
  C83      1.0000 0.70049  0.32610  0.96110  Biso   1.000  C
  C84      1.0000 0.78032  0.57251  0.16149  Biso   1.000  C
  C85      1.0000 0.87090  0.47543  0.07588  Biso   1.000  C
  O14      1.0000 0.41839  0.13477  0.39377  Biso   1.000  O
  C86      1.0000 0.51614  0.04618  0.30790  Biso   1.000  C
  H72      1.0000 0.58568  0.98161  0.22525  Biso   1.000  H
  C87      1.0000 0.59188  0.03163  0.09570  Biso   1.000  C
  C88      1.0000 0.80414  0.32607  0.91439  Biso   1.000  C
  H73      1.0000 0.65296  0.27901  0.96807  Biso   1.000  H
  O15      1.0000 0.68551  0.63791  0.18198  Biso   1.000  O
  C89      1.0000 0.87499  0.53860  0.20013  Biso   1.000  C
  C90      1.0000 0.96461  0.44013  0.11567  Biso   1.000  C
  H74      1.0000 0.87039  0.45428  0.03386  Biso   1.000  H
  C91      1.0000 0.33861  0.22002  0.41228  Biso   1.000  C
  C92      1.0000 0.57591  0.96742  0.36350  Biso   1.000  C
  C93      1.0000 0.61249  0.05607  0.01982  Biso   1.000  C
  H75      1.0000 0.66165  0.02473  0.11796  Biso   1.000  H
  H76      1.0000 0.56350  0.96908  0.10891  Biso   1.000  H
  C94      1.0000 0.88953  0.32618  0.87892  Biso   1.000  C
  C95      1.0000 0.67547  0.65620  0.25095  Biso   1.000  C
  C96      1.0000 0.96797  0.47260  0.17767  Biso   1.000  C
  H77      1.0000 0.87602  0.56074  0.24174  Biso   1.000  H
  O16      1.0000 0.05888  0.37368  0.09580  Biso   1.000  O
  C97      1.0000 0.31087  0.21022  0.48260  Biso   1.000  C
  H78      1.0000 0.37113  0.28001  0.39642  Biso   1.000  H
  H79      1.0000 0.26997  0.22787  0.38862  Biso   1.000  H
  C98      1.0000 0.68683  0.99182  0.37879  Biso   1.000  C
  H80      1.0000 0.52623  0.96177  0.40588  Biso   1.000  H
  H81      1.0000 0.59088  0.90298  0.34841  Biso   1.000  H
  C99      1.0000 0.63378  0.07406  0.95922  Biso   1.000  C
  H82      1.0000 0.95695  0.32640  0.85078  Biso   1.000  H
  C100     1.0000 0.56533  0.72411  0.26312  Biso   1.000  C
  H83      1.0000 0.67834  0.59339  0.28351  Biso   1.000  H
  H84      1.0000 0.73793  0.68698  0.25807  Biso   1.000  H
  C101     1.0000 0.06893  0.43605  0.22115  Biso   1.000  C
  C102     1.0000 0.04724  0.32334  0.04135  Biso   1.000  C
  C103     1.0000 0.34446  0.26800  0.52072  Biso   1.000  C
  H85      1.0000 0.26783  0.16230  0.50429  Biso   1.000  H
  C104     1.0000 0.69053  0.04770  0.42976  Biso   1.000  C
  C105     1.0000 0.78951  0.95957  0.34207  Biso   1.000  C
  H86      1.0000 0.65044  0.08835  0.91138  Biso   1.000  H
  C106     1.0000 0.49381  0.76823  0.21631  Biso   1.000  C
  H87      1.0000 0.54566  0.73621  0.30821  Biso   1.000  H
  C107     1.0000 0.05738  0.34173  0.27331  Biso   1.000  C
  H88      1.0000 0.13721  0.42299  0.19072  Biso   1.000  H
  H89      1.0000 0.07709  0.48831  0.24575  Biso   1.000  H
  H90      1.0000 0.97962  0.29339  0.05107  Biso   1.000  H
  H91      1.0000 0.04123  0.37011  0.99766  Biso   1.000  H
  C108     1.0000 0.14864  0.24537  0.03729  Biso   1.000  C
  H92      1.0000 0.38745  0.31606  0.49961  Biso   1.000  H
  H93      1.0000 0.32468  0.25998  0.56831  Biso   1.000  H
  C109     1.0000 0.79070  0.07371  0.44281  Biso   1.000  C
  H94      1.0000 0.62382  0.06819  0.45597  Biso   1.000  H
  O17      1.0000 0.78256  0.90354  0.29224  Biso   1.000  O
  C110     1.0000 0.88965  0.98361  0.35590  Biso   1.000  C
  H95      1.0000 0.51004  0.75831  0.17049  Biso   1.000  H
  H96      1.0000 0.42696  0.80953  0.22869  Biso   1.000  H
  C111     1.0000 0.00570  0.34565  0.33988  Biso   1.000  C
  C112     1.0000 0.09404  0.24761  0.25459  Biso   1.000  C
  C113     1.0000 0.22857  0.18243  0.03391  Biso   1.000  C
  O18      1.0000 0.79653  0.13074  0.49160  Biso   1.000  O
  C114     1.0000 0.89224  0.04147  0.40547  Biso   1.000  C
  C115     1.0000 0.88178  0.88353  0.24694  Biso   1.000  C
  H97      1.0000 0.95692  0.96041  0.33135  Biso   1.000  H
  C116     1.0000 0.98989  0.25840  0.38607  Biso   1.000  C
  O19      1.0000 0.97222  0.44104  0.35596  Biso   1.000  O
  C117     1.0000 0.07761  0.16060  0.30067  Biso   1.000  C
  H98      1.0000 0.12988  0.24304  0.21064  Biso   1.000  H
  H99      1.0000 0.29219  0.13229  0.03121  Biso   1.000  H
  C118     1.0000 0.70845  0.13643  0.54558  Biso   1.000  C
  C119     1.0000 0.00296  0.07139  0.41681  Biso   1.000  C
  C120     1.0000 0.85076  0.84628  0.18864  Biso   1.000  C
  H100     1.0000 0.91260  0.94433  0.23025  Biso   1.000  H
  H101     1.0000 0.93923  0.83390  0.27160  Biso   1.000  H
  C121     1.0000 0.02461  0.16541  0.36698  Biso   1.000  C
  H102     1.0000 0.95553  0.26273  0.43038  Biso   1.000  H
  C122     1.0000 0.92096  0.45000  0.42216  Biso   1.000  C
  O20      1.0000 0.11001  0.06581  0.28429  Biso   1.000  O
  C123     1.0000 0.74255  0.18221  0.59999  Biso   1.000  C
  H103     1.0000 0.63926  0.17650  0.52712  Biso   1.000  H
  H104     1.0000 0.69383  0.06981  0.56540  Biso   1.000  H
  H105     1.0000 0.06545  0.01691  0.41062  Biso   1.000  H
  H106     1.0000 0.00019  0.08260  0.46419  Biso   1.000  H
  C124     1.0000 0.82840  0.81667  0.14079  Biso   1.000  C
  C125     1.0000 0.89233  0.55827  0.42742  Biso   1.000  C
  H107     1.0000 0.85242  0.42121  0.43002  Biso   1.000  H
  H108     1.0000 0.97228  0.41431  0.45717  Biso   1.000  H
  C126     1.0000 0.17201  0.05637  0.21995  Biso   1.000  C
  C127     1.0000 0.83810  0.21208  0.60030  Biso   1.000  C
  H109     1.0000 0.69028  0.19047  0.63790  Biso   1.000  H
  H110     1.0000 0.81048  0.79321  0.10288  Biso   1.000  H
  C128     1.0000 0.92231  0.63259  0.38248  Biso   1.000  C
  H111     1.0000 0.84844  0.57437  0.46700  Biso   1.000  H
  C129     1.0000 0.18014  0.95457  0.20877  Biso   1.000  C
  H112     1.0000 0.13392  0.10328  0.18266  Biso   1.000  H
  H113     1.0000 0.24740  0.07101  0.22042  Biso   1.000  H
  H114     1.0000 0.89326  0.20550  0.56358  Biso   1.000  H
  H115     1.0000 0.85139  0.24020  0.63728  Biso   1.000  H
  H116     1.0000 0.96636  0.62056  0.34202  Biso   1.000  H
  H117     1.0000 0.89984  0.69781  0.39080  Biso   1.000  H
  C130     1.0000 0.18406  0.87332  0.19738  Biso   1.000  C
  H118     1.0000 0.18715  0.80916  0.18838  Biso   1.000  H
