data_image0
_cell_length_a       11.994
_cell_length_b       12.931
_cell_length_c       21.517
_cell_angle_alpha    87.54
_cell_angle_beta     76.49
_cell_angle_gamma    71.42

_symmetry_space_group_name_H-M    "P 1"
_symmetry_int_tables_number       1

loop_
  _symmetry_equiv_pos_as_xyz
  'x, y, z'

loop_
  _atom_site_label
  _atom_site_occupancy
  _atom_site_fract_x
  _atom_site_fract_y
  _atom_site_fract_z
  _atom_site_thermal_displace_type
  _atom_site_B_iso_or_equiv
  _atom_site_type_symbol
  C1       1.0000 0.74433  0.17631  0.58290  Biso   1.000  C
  C2       1.0000 0.84078  0.10981  0.60800  Biso   1.000  C
  Br1      1.0000 0.78273  0.30380  0.54196  Biso   1.000  Br
  H1       1.0000 0.71449  0.13641  0.55631  Biso   1.000  H
  Br2      1.0000 0.62474  0.28545  0.63436  Biso   1.000  Br
  C3       1.0000 0.81123  0.02778  0.65483  Biso   1.000  C
  H2       1.0000 0.90571  0.07112  0.57271  Biso   1.000  H
  H3       1.0000 0.87110  0.15672  0.62890  Biso   1.000  H
  O1       1.0000 0.76653  0.95921  0.62771  Biso   1.000  O
  H4       1.0000 0.82156  0.02360  0.69648  Biso   1.000  H
  C4       1.0000 0.76252  0.86159  0.65621  Biso   1.000  C
  C5       1.0000 0.74507  0.78656  0.61771  Biso   1.000  C
  C6       1.0000 0.77447  0.83676  0.71729  Biso   1.000  C
  C7       1.0000 0.72116  0.81547  0.55238  Biso   1.000  C
  C8       1.0000 0.74438  0.68578  0.64249  Biso   1.000  C
  H5       1.0000 0.78526  0.88783  0.74239  Biso   1.000  H
  C9       1.0000 0.77077  0.73730  0.74239  Biso   1.000  C
  C10      1.0000 0.58521  0.85878  0.55779  Biso   1.000  C
  H6       1.0000 0.75759  0.87056  0.53469  Biso   1.000  H
  H7       1.0000 0.75687  0.75139  0.52388  Biso   1.000  H
  C11      1.0000 0.75543  0.66190  0.70433  Biso   1.000  C
  H8       1.0000 0.73619  0.63355  0.61709  Biso   1.000  H
  C12      1.0000 0.78195  0.71180  0.81141  Biso   1.000  C
  C13      1.0000 0.52144  0.96540  0.57859  Biso   1.000  C
  C14      1.0000 0.52275  0.79236  0.54502  Biso   1.000  C
  O2       1.0000 0.75428  0.56397  0.73182  Biso   1.000  O
  H9       1.0000 0.82274  0.75778  0.82480  Biso   1.000  H
  H10      1.0000 0.83148  0.63633  0.81279  Biso   1.000  H
  C15      1.0000 0.66163  0.72975  0.85761  Biso   1.000  C
  C16      1.0000 0.39651  0.00622  0.58739  Biso   1.000  C
  H11      1.0000 0.56307  0.01100  0.58691  Biso   1.000  H
  C17      1.0000 0.39801  0.83337  0.55162  Biso   1.000  C
  O3       1.0000 0.59054  0.68555  0.52531  Biso   1.000  O
  C18      1.0000 0.73938  0.48382  0.69361  Biso   1.000  C
  C19      1.0000 0.61503  0.64404  0.87511  Biso   1.000  C
  C20      1.0000 0.59111  0.83377  0.88410  Biso   1.000  C
  O4       1.0000 0.32733  0.10939  0.61059  Biso   1.000  O
  C21      1.0000 0.33381  0.94006  0.57218  Biso   1.000  C
  H12      1.0000 0.35736  0.78818  0.54201  Biso   1.000  H
  C22      1.0000 0.53018  0.61548  0.51570  Biso   1.000  C
  H13      1.0000 0.74594  0.41786  0.71671  Biso   1.000  H
  H14      1.0000 0.66122  0.51059  0.68390  Biso   1.000  H
  H15      1.0000 0.80111  0.46923  0.65459  Biso   1.000  H
  C23      1.0000 0.50488  0.65862  0.91791  Biso   1.000  C
  H16      1.0000 0.65949  0.57456  0.85741  Biso   1.000  H
  C24      1.0000 0.48180  0.84782  0.92772  Biso   1.000  C
  O5       1.0000 0.63876  0.91674  0.86454  Biso   1.000  O
  C25      1.0000 0.38778  0.17818  0.62900  Biso   1.000  C
  C26      1.0000 0.19693  0.98288  0.58180  Biso   1.000  C
  H17      1.0000 0.47685  0.60775  0.55521  Biso   1.000  H
  H18      1.0000 0.48397  0.64440  0.48428  Biso   1.000  H
  H19      1.0000 0.58757  0.54551  0.50078  Biso   1.000  H
  C27      1.0000 0.43583  0.76142  0.94589  Biso   1.000  C
  O6       1.0000 0.45379  0.57698  0.93523  Biso   1.000  O
  H20      1.0000 0.43741  0.91722  0.94551  Biso   1.000  H
  C28      1.0000 0.58770  0.01726  0.90098  Biso   1.000  C
  C29      1.0000 0.29049  0.27708  0.66430  Biso   1.000  C
  H21      1.0000 0.44001  0.13982  0.65660  Biso   1.000  H
  H22      1.0000 0.43668  0.20015  0.59160  Biso   1.000  H
  H23      1.0000 0.17341  0.05847  0.56979  Biso   1.000  H
  C30      1.0000 0.13031  0.97531  0.64909  Biso   1.000  C
  H24      1.0000 0.17304  0.94167  0.55363  Biso   1.000  H
  C31      1.0000 0.31469  0.78048  0.99013  Biso   1.000  C
  C32      1.0000 0.52489  0.46925  0.91079  Biso   1.000  C
  H25      1.0000 0.59451  0.01692  0.94551  Biso   1.000  H
  C33      1.0000 0.60051  0.11697  0.86071  Biso   1.000  C
  C34      1.0000 0.50498  0.09823  0.88338  Biso   1.000  C
  C35      1.0000 0.20518  0.33585  0.62412  Biso   1.000  C
  H26      1.0000 0.32811  0.32645  0.67692  Biso   1.000  H
  H27      1.0000 0.24549  0.25396  0.70289  Biso   1.000  H
  C36      1.0000 0.08293  0.06407  0.69098  Biso   1.000  C
  C37      1.0000 0.11338  0.87640  0.67109  Biso   1.000  C
  C38      1.0000 0.21415  0.82441  0.95450  Biso   1.000  C
  H28      1.0000 0.31002  0.71250  0.00945  Biso   1.000  H
  H29      1.0000 0.30423  0.83230  0.02394  Biso   1.000  H
  H30      1.0000 0.60020  0.44847  0.92380  Biso   1.000  H
  H31      1.0000 0.48170  0.41913  0.92719  Biso   1.000  H
  H32      1.0000 0.54058  0.46788  0.86492  Biso   1.000  H
  C39      1.0000 0.54373  0.13916  0.81031  Biso   1.000  C
  Br3      1.0000 0.66970  0.20432  0.81122  Biso   1.000  Br
  H33      1.0000 0.24815  0.36646  0.58801  Biso   1.000  H
  H34      1.0000 0.17426  0.28470  0.60753  Biso   1.000  H
  Br4      1.0000 0.07035  0.45280  0.67372  Biso   1.000  Br
  C40      1.0000 0.02070  0.05720  0.75359  Biso   1.000  C
  H35      1.0000 0.09237  0.13058  0.67721  Biso   1.000  H
  C41      1.0000 0.05339  0.86918  0.73321  Biso   1.000  C
  O7       1.0000 0.16050  0.79033  0.62642  Biso   1.000  O
  C42      1.0000 0.16177  0.93624  0.94843  Biso   1.000  C
  C43      1.0000 0.17748  0.75261  0.92499  Biso   1.000  C
  Br5      1.0000 0.58954  0.27097  0.76224  Biso   1.000  Br
  O8       1.0000 0.97073  0.14407  0.79663  Biso   1.000  O
  C44      1.0000 0.00746  0.95894  0.77539  Biso   1.000  C
  H36      1.0000 0.04346  0.80285  0.74722  Biso   1.000  H
  C45      1.0000 0.12955  0.69530  0.64349  Biso   1.000  C
  C46      1.0000 0.07571  0.97475  0.91351  Biso   1.000  C
  O9       1.0000 0.20445  0.00297  0.97908  Biso   1.000  O
  C47      1.0000 0.08851  0.79166  0.88960  Biso   1.000  C
  H37      1.0000 0.21170  0.67793  0.92863  Biso   1.000  H
  C48      1.0000 0.96768  0.24928  0.77219  Biso   1.000  C
  C49      1.0000 0.94519  0.94767  0.84369  Biso   1.000  C
  H38      1.0000 0.16534  0.66208  0.67802  Biso   1.000  H
  H39      1.0000 0.04312  0.71364  0.65703  Biso   1.000  H
  H40      1.0000 0.15888  0.64498  0.60738  Biso   1.000  H
  C50      1.0000 0.03733  0.90418  0.88410  Biso   1.000  C
  H41      1.0000 0.04285  0.04959  0.90969  Biso   1.000  H
  C51      1.0000 0.16004  0.11783  0.97043  Biso   1.000  C
  O10      1.0000 0.04684  0.72458  0.86000  Biso   1.000  O
  H42      1.0000 0.04925  0.25267  0.75760  Biso   1.000  H
  C52      1.0000 0.89674  0.33405  0.82542  Biso   1.000  C
  H43      1.0000 0.92939  0.26301  0.73632  Biso   1.000  H
  H44      1.0000 0.89851  0.89838  0.84488  Biso   1.000  H
  H45      1.0000 0.88996  0.01828  0.86110  Biso   1.000  H
  H46      1.0000 0.18189  0.13414  0.92561  Biso   1.000  H
  H47      1.0000 0.07278  0.14496  0.98511  Biso   1.000  H
  C53      1.0000 0.21895  0.16924  0.00974  Biso   1.000  C
  C54      1.0000 0.10331  0.61186  0.86043  Biso   1.000  C
  H48      1.0000 0.81608  0.32889  0.84048  Biso   1.000  H
  H49      1.0000 0.88938  0.40645  0.80911  Biso   1.000  H
  C55      1.0000 0.95885  0.31725  0.87999  Biso   1.000  C
  H50      1.0000 0.30594  0.13988  0.99453  Biso   1.000  H
  H51      1.0000 0.19852  0.14889  0.05388  Biso   1.000  H
  C56      1.0000 0.18135  0.29229  0.00735  Biso   1.000  C
  H52      1.0000 0.08730  0.58744  0.90333  Biso   1.000  H
  H53      1.0000 0.07232  0.57523  0.83388  Biso   1.000  H
  H54      1.0000 0.18896  0.59541  0.84421  Biso   1.000  H
  H55      1.0000 0.04256  0.31403  0.86392  Biso   1.000  H
  Br6      1.0000 0.87826  0.43561  0.94403  Biso   1.000  Br
  H56      1.0000 0.95803  0.24838  0.89941  Biso   1.000  H
  Br7      1.0000 0.24827  0.34102  0.92389  Biso   1.000  Br
  H57      1.0000 0.09368  0.32156  0.01667  Biso   1.000  H
  H58      1.0000 0.20851  0.32064  0.04006  Biso   1.000  H
  C57      1.0000 0.79478  0.66402  0.37591  Biso   1.000  C
  C58      1.0000 0.70946  0.72286  0.33569  Biso   1.000  C
  H59      1.0000 0.75169  0.63349  0.41202  Biso   1.000  H
  H60      1.0000 0.82567  0.71525  0.39250  Biso   1.000  H
  Br8      1.0000 0.92960  0.54715  0.32627  Biso   1.000  Br
  C59      1.0000 0.61217  0.82176  0.37098  Biso   1.000  C
  H61      1.0000 0.67183  0.67350  0.32311  Biso   1.000  H
  H62      1.0000 0.75446  0.74598  0.29709  Biso   1.000  H
  O11      1.0000 0.67262  0.89056  0.38939  Biso   1.000  O
  H63      1.0000 0.55995  0.86013  0.34339  Biso   1.000  H
  H64      1.0000 0.56319  0.79980  0.40838  Biso   1.000  H
  C60      1.0000 0.60344  0.99373  0.41259  Biso   1.000  C
  C61      1.0000 0.47851  0.03455  0.42139  Biso   1.000  C
  C62      1.0000 0.66606  0.05988  0.42780  Biso   1.000  C
  C63      1.0000 0.41466  0.14117  0.44219  Biso   1.000  C
  H65      1.0000 0.43678  0.98895  0.41312  Biso   1.000  H
  C64      1.0000 0.60184  0.16658  0.44841  Biso   1.000  C
  C65      1.0000 0.80302  0.01706  0.41819  Biso   1.000  C
  C66      1.0000 0.27879  0.18448  0.44760  Biso   1.000  C
  C67      1.0000 0.47718  0.20759  0.45501  Biso   1.000  C
  H66      1.0000 0.64257  0.21177  0.45802  Biso   1.000  H
  H67      1.0000 0.82654  0.94148  0.43019  Biso   1.000  H
  C68      1.0000 0.86964  0.02464  0.35090  Biso   1.000  C
  H68      1.0000 0.82689  0.05828  0.44640  Biso   1.000  H
  C69      1.0000 0.25486  0.21339  0.38232  Biso   1.000  C
  H69      1.0000 0.24236  0.12938  0.46529  Biso   1.000  H
  H70      1.0000 0.24308  0.24856  0.47610  Biso   1.000  H
  O12      1.0000 0.40930  0.31440  0.47472  Biso   1.000  O
  C70      1.0000 0.91702  0.93588  0.30900  Biso   1.000  C
  C71      1.0000 0.88649  0.12354  0.32890  Biso   1.000  C
  C72      1.0000 0.23741  0.13836  0.34382  Biso   1.000  C
  C73      1.0000 0.25558  0.31416  0.35750  Biso   1.000  C
  C74      1.0000 0.46977  0.38447  0.48428  Biso   1.000  C
  C75      1.0000 0.97925  0.94275  0.24640  Biso   1.000  C
  H71      1.0000 0.90756  0.86937  0.32282  Biso   1.000  H
  C76      1.0000 0.94646  0.13077  0.26682  Biso   1.000  C
  O13      1.0000 0.83935  0.20961  0.37361  Biso   1.000  O
  O14      1.0000 0.23340  0.04074  0.37232  Biso   1.000  O
  C77      1.0000 0.22548  0.16319  0.28270  Biso   1.000  C
  C78      1.0000 0.24450  0.33805  0.29570  Biso   1.000  C
  H72      1.0000 0.26376  0.36639  0.38289  Biso   1.000  H
  H73      1.0000 0.52300  0.39220  0.44482  Biso   1.000  H
  H74      1.0000 0.51598  0.35554  0.51570  Biso   1.000  H
  H75      1.0000 0.41238  0.45444  0.49920  Biso   1.000  H
  C79      1.0000 0.99249  0.04101  0.22459  Biso   1.000  C
  O15      1.0000 0.02911  0.85588  0.20340  Biso   1.000  O
  H76      1.0000 0.95648  0.19710  0.25281  Biso   1.000  H
  C80      1.0000 0.87041  0.30464  0.35649  Biso   1.000  C
  C81      1.0000 0.18870  0.97217  0.34520  Biso   1.000  C
  H77      1.0000 0.21469  0.11212  0.25759  Biso   1.000  H
  C82      1.0000 0.22919  0.26264  0.25759  Biso   1.000  C
  O16      1.0000 0.24565  0.43598  0.26821  Biso   1.000  O
  C83      1.0000 0.05468  0.05228  0.15629  Biso   1.000  C
  C84      1.0000 0.03227  0.75067  0.22779  Biso   1.000  C
  H78      1.0000 0.83459  0.33787  0.32201  Biso   1.000  H
  H79      1.0000 0.95681  0.28631  0.34300  Biso   1.000  H
  H80      1.0000 0.84107  0.35497  0.39260  Biso   1.000  H
  C85      1.0000 0.15907  0.89014  0.39203  Biso   1.000  C
  H81      1.0000 0.17839  0.97635  0.30350  Biso   1.000  H
  C86      1.0000 0.21798  0.28815  0.18862  Biso   1.000  C
  C87      1.0000 0.26055  0.51613  0.30642  Biso   1.000  C
  C88      1.0000 0.96262  0.09577  0.11588  Biso   1.000  C
  H82      1.0000 0.10999  0.98167  0.13889  Biso   1.000  H
  H83      1.0000 0.10144  0.10157  0.15510  Biso   1.000  H
  H84      1.0000 0.95062  0.74728  0.24238  Biso   1.000  H
  C89      1.0000 0.10311  0.66590  0.17461  Biso   1.000  C
  H85      1.0000 0.07054  0.73694  0.26371  Biso   1.000  H
  C90      1.0000 0.25562  0.82364  0.41709  Biso   1.000  C
  H86      1.0000 0.09422  0.92883  0.42732  Biso   1.000  H
  H87      1.0000 0.12883  0.84323  0.37113  Biso   1.000  H
  H88      1.0000 0.17721  0.24217  0.17518  Biso   1.000  H
  H89      1.0000 0.16848  0.36362  0.18719  Biso   1.000  H
  C91      1.0000 0.33822  0.27020  0.14242  Biso   1.000  C
  H90      1.0000 0.25391  0.58209  0.28332  Biso   1.000  H
  H91      1.0000 0.33865  0.48936  0.31608  Biso   1.000  H
  H92      1.0000 0.19885  0.53072  0.34540  Biso   1.000  H
  C92      1.0000 0.91144  0.20828  0.11038  Biso   1.000  C
  C93      1.0000 0.92422  0.02520  0.08652  Biso   1.000  C
  H93      1.0000 0.18387  0.67105  0.15950  Biso   1.000  H
  H94      1.0000 0.11055  0.59350  0.19092  Biso   1.000  H
  C94      1.0000 0.04102  0.68270  0.11999  Biso   1.000  C
  Br9      1.0000 0.21723  0.69614  0.45802  Biso   1.000  Br
  H95      1.0000 0.28544  0.86354  0.44372  Biso   1.000  H
  Br10     1.0000 0.37519  0.71450  0.36567  Biso   1.000  Br
  C95      1.0000 0.38482  0.35590  0.12492  Biso   1.000  C
  C96      1.0000 0.40876  0.16618  0.11588  Biso   1.000  C
  C97      1.0000 0.82248  0.24734  0.07499  Biso   1.000  C
  O17      1.0000 0.95309  0.27536  0.14003  Biso   1.000  O
  C98      1.0000 0.83808  0.06371  0.05160  Biso   1.000  C
  H96      1.0000 0.95702  0.95036  0.09029  Biso   1.000  H
  H97      1.0000 0.95740  0.68584  0.13611  Biso   1.000  H
  Br11     1.0000 0.12167  0.56433  0.05600  Biso   1.000  Br
  H98      1.0000 0.04184  0.75156  0.10058  Biso   1.000  H
  C99      1.0000 0.49506  0.34133  0.08212  Biso   1.000  C
  H99      1.0000 0.34044  0.42539  0.14262  Biso   1.000  H
  C100     1.0000 0.51805  0.15213  0.07231  Biso   1.000  C
  O18      1.0000 0.36117  0.08321  0.13549  Biso   1.000  O
  C101     1.0000 0.78581  0.17553  0.04548  Biso   1.000  C
  H100     1.0000 0.78815  0.32202  0.07140  Biso   1.000  H
  C102     1.0000 0.89662  0.38809  0.13960  Biso   1.000  C
  O19      1.0000 0.79540  0.99698  0.02095  Biso   1.000  O
  C103     1.0000 0.56404  0.23853  0.05409  Biso   1.000  C
  O20      1.0000 0.54605  0.42297  0.06480  Biso   1.000  O
  H101     1.0000 0.56244  0.08273  0.05452  Biso   1.000  H
  C104     1.0000 0.41225  0.98269  0.09900  Biso   1.000  C
  C105     1.0000 0.68524  0.21947  0.00990  Biso   1.000  C
  H102     1.0000 0.91255  0.41251  0.09670  Biso   1.000  H
  H103     1.0000 0.92754  0.42472  0.16610  Biso   1.000  H
  H104     1.0000 0.81100  0.40446  0.15582  Biso   1.000  H
  C106     1.0000 0.83981  0.88212  0.02960  Biso   1.000  C
  C107     1.0000 0.47506  0.53070  0.08919  Biso   1.000  C
  H105     1.0000 0.40543  0.98303  0.05452  Biso   1.000  H
  C108     1.0000 0.39942  0.88298  0.13932  Biso   1.000  C
  C109     1.0000 0.49488  0.90172  0.11660  Biso   1.000  C
  H106     1.0000 0.68994  0.28744  0.99053  Biso   1.000  H
  H107     1.0000 0.69573  0.16764  0.97604  Biso   1.000  H
  H108     1.0000 0.81805  0.86581  0.07442  Biso   1.000  H
  H109     1.0000 0.92715  0.85499  0.01492  Biso   1.000  H
  C110     1.0000 0.78100  0.83071  0.99024  Biso   1.000  C
  H110     1.0000 0.39976  0.55148  0.07619  Biso   1.000  H
  H111     1.0000 0.51825  0.58081  0.07279  Biso   1.000  H
  H112     1.0000 0.45935  0.53207  0.13511  Biso   1.000  H
  C111     1.0000 0.45620  0.86079  0.18972  Biso   1.000  C
  Br12     1.0000 0.33014  0.79563  0.18881  Biso   1.000  Br
  H113     1.0000 0.69391  0.86007  0.00550  Biso   1.000  H
  H114     1.0000 0.80136  0.85098  0.94615  Biso   1.000  H
  C112     1.0000 0.81863  0.70757  0.99263  Biso   1.000  C
  Br13     1.0000 0.41030  0.72898  0.23779  Biso   1.000  Br
  Br14     1.0000 0.75160  0.65892  0.07609  Biso   1.000  Br
  H115     1.0000 0.90617  0.67839  0.98336  Biso   1.000  H
  H116     1.0000 0.79134  0.67931  0.95997  Biso   1.000  H
