data_image0
_cell_length_a       12.626
_cell_length_b       14.718
_cell_length_c       17.313
_cell_angle_alpha    77.33
_cell_angle_beta     80.66
_cell_angle_gamma    80.01

_symmetry_space_group_name_H-M    "P 1"
_symmetry_int_tables_number       1

loop_
  _symmetry_equiv_pos_as_xyz
  'x, y, z'

loop_
  _atom_site_label
  _atom_site_occupancy
  _atom_site_fract_x
  _atom_site_fract_y
  _atom_site_fract_z
  _atom_site_thermal_displace_type
  _atom_site_B_iso_or_equiv
  _atom_site_type_symbol
  C1       1.0000 0.61444  0.43421  0.54753  Biso   1.000  C
  C2       1.0000 0.53185  0.37850  0.56109  Biso   1.000  C
  C3       1.0000 0.70777  0.41726  0.49446  Biso   1.000  C
  H1       1.0000 0.60703  0.48359  0.57440  Biso   1.000  H
  C4       1.0000 0.54013  0.30612  0.51918  Biso   1.000  C
  O1       1.0000 0.43942  0.39052  0.61458  Biso   1.000  O
  C5       1.0000 0.71707  0.34363  0.45410  Biso   1.000  C
  C6       1.0000 0.79744  0.47808  0.48150  Biso   1.000  C
  C7       1.0000 0.45203  0.24386  0.53386  Biso   1.000  C
  C8       1.0000 0.63317  0.28981  0.46574  Biso   1.000  C
  C9       1.0000 0.43265  0.46095  0.66073  Biso   1.000  C
  O2       1.0000 0.81129  0.32882  0.40222  Biso   1.000  O
  C10      1.0000 0.87696  0.44164  0.54198  Biso   1.000  C
  H2       1.0000 0.76555  0.54199  0.48556  Biso   1.000  H
  H3       1.0000 0.83613  0.47934  0.42819  Biso   1.000  H
  C11      1.0000 0.47158  0.16131  0.60216  Biso   1.000  C
  H4       1.0000 0.45047  0.22065  0.48580  Biso   1.000  H
  H5       1.0000 0.38220  0.28058  0.54628  Biso   1.000  H
  H6       1.0000 0.63936  0.24206  0.43720  Biso   1.000  H
  C12      1.0000 0.32594  0.46060  0.71488  Biso   1.000  C
  H7       1.0000 0.49243  0.44717  0.69220  Biso   1.000  H
  H8       1.0000 0.43567  0.52210  0.62610  Biso   1.000  H
  C13      1.0000 0.82891  0.24557  0.37058  Biso   1.000  C
  C14      1.0000 0.86062  0.46921  0.61530  Biso   1.000  C
  C15      1.0000 0.96826  0.37834  0.52485  Biso   1.000  C
  C16      1.0000 0.54202  0.08014  0.58897  Biso   1.000  C
  C17      1.0000 0.42463  0.16646  0.67966  Biso   1.000  C
  H9       1.0000 0.26694  0.47062  0.68300  Biso   1.000  H
  H10      1.0000 0.32486  0.39978  0.75046  Biso   1.000  H
  C18      1.0000 0.30987  0.53699  0.76360  Biso   1.000  C
  H11      1.0000 0.82408  0.19202  0.41350  Biso   1.000  H
  H12      1.0000 0.77478  0.24862  0.33660  Biso   1.000  H
  H13      1.0000 0.89945  0.23958  0.34019  Biso   1.000  H
  O3       1.0000 0.76893  0.53276  0.62861  Biso   1.000  O
  C19      1.0000 0.93484  0.43438  0.66969  Biso   1.000  C
  H14      1.0000 0.98059  0.35964  0.47577  Biso   1.000  H
  C20      1.0000 0.04170  0.34235  0.57954  Biso   1.000  C
  O4       1.0000 0.58480  0.07840  0.51076  Biso   1.000  O
  C21      1.0000 0.56473  0.00700  0.65267  Biso   1.000  C
  C22      1.0000 0.44724  0.09255  0.74342  Biso   1.000  C
  H15      1.0000 0.37746  0.21990  0.68927  Biso   1.000  H
  N1       1.0000 0.20517  0.54069  0.81608  Biso   1.000  N
  H16      1.0000 0.31325  0.59741  0.72766  Biso   1.000  H
  H17      1.0000 0.36832  0.52604  0.79596  Biso   1.000  H
  C23      1.0000 0.74371  0.55808  0.70360  Biso   1.000  C
  H18      1.0000 0.92373  0.45457  0.71799  Biso   1.000  H
  C24      1.0000 0.02525  0.36997  0.65291  Biso   1.000  C
  O5       1.0000 0.13322  0.27913  0.56562  Biso   1.000  O
  C25      1.0000 0.65351  0.99575  0.49529  Biso   1.000  C
  C26      1.0000 0.51861  0.01283  0.73076  Biso   1.000  C
  H19      1.0000 0.61147  0.95328  0.64306  Biso   1.000  H
  O6       1.0000 0.40153  0.09361  0.82187  Biso   1.000  O
  N2       1.0000 0.12376  0.56372  0.78193  Biso   1.000  N
  H20      1.0000 0.73869  0.50268  0.74557  Biso   1.000  H
  H21      1.0000 0.79883  0.59148  0.71279  Biso   1.000  H
  C27      1.0000 0.63444  0.62161  0.70127  Biso   1.000  C
  C28      1.0000 0.10174  0.32890  0.71488  Biso   1.000  C
  C29      1.0000 0.15434  0.25166  0.49070  Biso   1.000  C
  H22      1.0000 0.67242  0.00052  0.43870  Biso   1.000  H
  H23      1.0000 0.71811  0.98839  0.51989  Biso   1.000  H
  H24      1.0000 0.61640  0.94213  0.51679  Biso   1.000  H
  C30      1.0000 0.55090  0.93460  0.79948  Biso   1.000  C
  C31      1.0000 0.33512  0.17704  0.83841  Biso   1.000  C
  N3       1.0000 0.04214  0.58470  0.75811  Biso   1.000  N
  H25      1.0000 0.58064  0.58729  0.69130  Biso   1.000  H
  H26      1.0000 0.64063  0.67562  0.65787  Biso   1.000  H
  C32      1.0000 0.59862  0.65439  0.77799  Biso   1.000  C
  C33      1.0000 0.06576  0.24072  0.76879  Biso   1.000  C
  H27      1.0000 0.17443  0.31395  0.68831  Biso   1.000  H
  H28      1.0000 0.10336  0.37511  0.74676  Biso   1.000  H
  H29      1.0000 0.21796  0.20526  0.48968  Biso   1.000  H
  H30      1.0000 0.09356  0.22547  0.48228  Biso   1.000  H
  H31      1.0000 0.16601  0.30544  0.44920  Biso   1.000  H
  C34      1.0000 0.65278  0.94813  0.82832  Biso   1.000  C
  H32      1.0000 0.56270  0.87467  0.78241  Biso   1.000  H
  H33      1.0000 0.49217  0.93279  0.84330  Biso   1.000  H
  H34      1.0000 0.37874  0.22708  0.83148  Biso   1.000  H
  H35      1.0000 0.28046  0.19712  0.80241  Biso   1.000  H
  C35      1.0000 0.28198  0.15519  0.92372  Biso   1.000  C
  N4       1.0000 0.48532  0.69928  0.78581  Biso   1.000  N
  H36      1.0000 0.64481  0.69883  0.78241  Biso   1.000  H
  H37      1.0000 0.60775  0.60097  0.82181  Biso   1.000  H
  C36      1.0000 0.99856  0.24392  0.84008  Biso   1.000  C
  C37      1.0000 0.09764  0.15384  0.74539  Biso   1.000  C
  C38      1.0000 0.64715  0.00564  0.88289  Biso   1.000  C
  C39      1.0000 0.75447  0.90463  0.79990  Biso   1.000  C
  H38      1.0000 0.23597  0.10731  0.92880  Biso   1.000  H
  H39      1.0000 0.33773  0.12972  0.95829  Biso   1.000  H
  C40      1.0000 0.21413  0.24059  0.95172  Biso   1.000  C
  N5       1.0000 0.45668  0.76258  0.72706  Biso   1.000  N
  C41      1.0000 0.96145  0.16252  0.88647  Biso   1.000  C
  O7       1.0000 0.97252  0.33076  0.86217  Biso   1.000  O
  C42      1.0000 0.06043  0.07283  0.79154  Biso   1.000  C
  H40      1.0000 0.14440  0.15017  0.69840  Biso   1.000  H
  C43      1.0000 0.74026  0.02066  0.90886  Biso   1.000  C
  H41      1.0000 0.57988  0.03460  0.90259  Biso   1.000  H
  O8       1.0000 0.75614  0.84923  0.74485  Biso   1.000  O
  C44      1.0000 0.84796  0.91799  0.82677  Biso   1.000  C
  H42      1.0000 0.16239  0.26942  0.91459  Biso   1.000  H
  N6       1.0000 0.28026  0.31181  0.95817  Biso   1.000  N
  H43      1.0000 0.17353  0.22023  0.00355  Biso   1.000  H
  N7       1.0000 0.41787  0.82383  0.68246  Biso   1.000  N
  C45      1.0000 0.99043  0.07637  0.86229  Biso   1.000  C
  H44      1.0000 0.91670  0.16592  0.93429  Biso   1.000  H
  C46      1.0000 0.91518  0.33335  0.94056  Biso   1.000  C
  O9       1.0000 0.08821  0.98612  0.77041  Biso   1.000  O
  O10      1.0000 0.74045  0.07794  0.96205  Biso   1.000  O
  C47      1.0000 0.84205  0.97579  0.88157  Biso   1.000  C
  C48      1.0000 0.85881  0.80307  0.71661  Biso   1.000  C
  H45      1.0000 0.91504  0.88797  0.80778  Biso   1.000  H
  N8       1.0000 0.33563  0.28627  0.01268  Biso   1.000  N
  C49      1.0000 0.94371  0.98967  0.91041  Biso   1.000  C
  C50      1.0000 0.91329  0.43071  0.95596  Biso   1.000  C
  H46      1.0000 0.84189  0.32012  0.94348  Biso   1.000  H
  H47      1.0000 0.95164  0.28649  0.98020  Biso   1.000  H
  C51      1.0000 0.16310  0.98127  0.70025  Biso   1.000  C
  C52      1.0000 0.63945  0.11742  0.99883  Biso   1.000  C
  H48      1.0000 0.89266  0.76530  0.76109  Biso   1.000  H
  H49      1.0000 0.84932  0.76350  0.68169  Biso   1.000  H
  H50      1.0000 0.90378  0.84910  0.68802  Biso   1.000  H
  N9       1.0000 0.38993  0.27003  0.06104  Biso   1.000  N
  H51      1.0000 0.92719  0.99534  0.96599  Biso   1.000  H
  H52      1.0000 0.99778  0.93460  0.90719  Biso   1.000  H
  H53      1.0000 0.98732  0.44413  0.94569  Biso   1.000  H
  C53      1.0000 0.85269  0.50374  0.91566  Biso   1.000  C
  H54      1.0000 0.88942  0.42866  0.01244  Biso   1.000  H
  H55      1.0000 0.17816  0.91760  0.69220  Biso   1.000  H
  H56      1.0000 0.22906  0.00177  0.70587  Biso   1.000  H
  H57      1.0000 0.13249  0.02125  0.65518  Biso   1.000  H
  H58      1.0000 0.59463  0.15253  0.95871  Biso   1.000  H
  H59      1.0000 0.60130  0.06792  0.03232  Biso   1.000  H
  C54      1.0000 0.66329  0.18202  0.04904  Biso   1.000  C
  N10      1.0000 0.73232  0.49302  0.92319  Biso   1.000  N
  H60      1.0000 0.85797  0.55995  0.93447  Biso   1.000  H
  H61      1.0000 0.88213  0.51258  0.85966  Biso   1.000  H
  H62      1.0000 0.59518  0.21085  0.07405  Biso   1.000  H
  H63      1.0000 0.69919  0.23196  0.01423  Biso   1.000  H
  C55      1.0000 0.73327  0.13305  0.11292  Biso   1.000  C
  N11      1.0000 0.68558  0.47904  0.98647  Biso   1.000  N
  N12      1.0000 0.75036  0.19922  0.16140  Biso   1.000  N
  H64      1.0000 0.80277  0.10626  0.08832  Biso   1.000  H
  H65      1.0000 0.69879  0.08203  0.14731  Biso   1.000  H
  N13      1.0000 0.61943  0.47195  0.04176  Biso   1.000  N
  N14      1.0000 0.83846  0.22353  0.15059  Biso   1.000  N
  N15      1.0000 0.91832  0.25045  0.14665  Biso   1.000  N
  C56      1.0000 0.38546  0.56587  0.45249  Biso   1.000  C
  C57      1.0000 0.29211  0.58289  0.50556  Biso   1.000  C
  C58      1.0000 0.46805  0.62167  0.43888  Biso   1.000  C
  H66      1.0000 0.39286  0.51657  0.42562  Biso   1.000  H
  C59      1.0000 0.20246  0.52208  0.51846  Biso   1.000  C
  C60      1.0000 0.28283  0.65654  0.54586  Biso   1.000  C
  C61      1.0000 0.45978  0.69398  0.48079  Biso   1.000  C
  O11      1.0000 0.56047  0.60964  0.38544  Biso   1.000  O
  C62      1.0000 0.12293  0.55853  0.45798  Biso   1.000  C
  H67      1.0000 0.23434  0.45817  0.51440  Biso   1.000  H
  H68      1.0000 0.16378  0.52076  0.57177  Biso   1.000  H
  O12      1.0000 0.18861  0.67126  0.59780  Biso   1.000  O
  C63      1.0000 0.36671  0.71035  0.53428  Biso   1.000  C
  C64      1.0000 0.54786  0.75629  0.46616  Biso   1.000  C
  C65      1.0000 0.56725  0.53922  0.33923  Biso   1.000  C
  C66      1.0000 0.13928  0.53096  0.38467  Biso   1.000  C
  C67      1.0000 0.03164  0.62174  0.47518  Biso   1.000  C
  C68      1.0000 0.17107  0.75459  0.62939  Biso   1.000  C
  H69      1.0000 0.36053  0.75809  0.56282  Biso   1.000  H
  C69      1.0000 0.52840  0.83877  0.39786  Biso   1.000  C
  H70      1.0000 0.54943  0.77943  0.51422  Biso   1.000  H
  H71      1.0000 0.61777  0.71958  0.45368  Biso   1.000  H
  C70      1.0000 0.67396  0.53956  0.28508  Biso   1.000  C
  H72      1.0000 0.50748  0.55293  0.30777  Biso   1.000  H
  H73      1.0000 0.56430  0.47805  0.37392  Biso   1.000  H
  O13      1.0000 0.23105  0.46740  0.37135  Biso   1.000  O
  C71      1.0000 0.06505  0.56577  0.33034  Biso   1.000  C
  H74      1.0000 0.01940  0.64045  0.52419  Biso   1.000  H
  C72      1.0000 0.95829  0.65775  0.42043  Biso   1.000  C
  H75      1.0000 0.17583  0.80808  0.58646  Biso   1.000  H
  H76      1.0000 0.22511  0.75146  0.66342  Biso   1.000  H
  H77      1.0000 0.10045  0.76059  0.65978  Biso   1.000  H
  C73      1.0000 0.45796  0.92003  0.41099  Biso   1.000  C
  C74      1.0000 0.57527  0.83371  0.32031  Biso   1.000  C
  H78      1.0000 0.73295  0.52953  0.31702  Biso   1.000  H
  H79      1.0000 0.67505  0.60031  0.24950  Biso   1.000  H
  C75      1.0000 0.69010  0.46316  0.23642  Biso   1.000  C
  C76      1.0000 0.25619  0.44202  0.29637  Biso   1.000  C
  H80      1.0000 0.07618  0.54553  0.28198  Biso   1.000  H
  C77      1.0000 0.97464  0.63020  0.34705  Biso   1.000  C
  O14      1.0000 0.86667  0.72102  0.43440  Biso   1.000  O
  O15      1.0000 0.41509  0.92176  0.48921  Biso   1.000  O
  C78      1.0000 0.43525  0.99308  0.34735  Biso   1.000  C
  C79      1.0000 0.55265  0.90762  0.25654  Biso   1.000  C
  H81      1.0000 0.62243  0.78026  0.31069  Biso   1.000  H
  N16      1.0000 0.79482  0.45940  0.18388  Biso   1.000  N
  H82      1.0000 0.68664  0.40275  0.27230  Biso   1.000  H
  H83      1.0000 0.63157  0.47412  0.20400  Biso   1.000  H
  C80      1.0000 0.36545  0.37856  0.29869  Biso   1.000  C
  H84      1.0000 0.26130  0.49742  0.25439  Biso   1.000  H
  H85      1.0000 0.20108  0.40862  0.28717  Biso   1.000  H
  C81      1.0000 0.89816  0.67118  0.28514  Biso   1.000  C
  C82      1.0000 0.84555  0.74849  0.50933  Biso   1.000  C
  C83      1.0000 0.34647  0.00442  0.50467  Biso   1.000  C
  C84      1.0000 0.48136  0.98732  0.26926  Biso   1.000  C
  H86      1.0000 0.38842  0.04689  0.35690  Biso   1.000  H
  O16      1.0000 0.59836  0.90656  0.17809  Biso   1.000  O
  N17      1.0000 0.87620  0.43643  0.21809  Biso   1.000  N
  C85      1.0000 0.40129  0.34571  0.22198  Biso   1.000  C
  H87      1.0000 0.41925  0.41287  0.30872  Biso   1.000  H
  H88      1.0000 0.35927  0.32455  0.34210  Biso   1.000  H
  C86      1.0000 0.93414  0.75945  0.23117  Biso   1.000  C
  H89      1.0000 0.82546  0.68613  0.31171  Biso   1.000  H
  H90      1.0000 0.89654  0.62505  0.25320  Biso   1.000  H
  H91      1.0000 0.78193  0.79490  0.51028  Biso   1.000  H
  H92      1.0000 0.90634  0.77470  0.51768  Biso   1.000  H
  H93      1.0000 0.83397  0.69464  0.55082  Biso   1.000  H
  H94      1.0000 0.32756  0.99957  0.56127  Biso   1.000  H
  H95      1.0000 0.28186  0.01178  0.48007  Biso   1.000  H
  H96      1.0000 0.38351  0.05797  0.48318  Biso   1.000  H
  C87      1.0000 0.44899  0.06555  0.20054  Biso   1.000  C
  C88      1.0000 0.66476  0.82311  0.16162  Biso   1.000  C
  N18      1.0000 0.95776  0.41547  0.24186  Biso   1.000  N
  N19      1.0000 0.51458  0.30080  0.21421  Biso   1.000  N
  H97      1.0000 0.35508  0.30132  0.21762  Biso   1.000  H
  H98      1.0000 0.39215  0.39911  0.17821  Biso   1.000  H
  C89      1.0000 0.00134  0.75616  0.15994  Biso   1.000  C
  C90      1.0000 0.90225  0.84633  0.25457  Biso   1.000  C
  C91      1.0000 0.34719  0.05204  0.17165  Biso   1.000  C
  H99      1.0000 0.43728  0.12541  0.21762  Biso   1.000  H
  H100     1.0000 0.50772  0.06736  0.15672  Biso   1.000  H
  H101     1.0000 0.62117  0.77302  0.16848  Biso   1.000  H
  H102     1.0000 0.71942  0.80303  0.19762  Biso   1.000  H
  C92      1.0000 0.71793  0.84490  0.07624  Biso   1.000  C
  N20      1.0000 0.54330  0.23752  0.27290  Biso   1.000  N
  O17      1.0000 0.02739  0.66933  0.13779  Biso   1.000  O
  C93      1.0000 0.03843  0.83763  0.11355  Biso   1.000  C
  C94      1.0000 0.93947  0.92733  0.20842  Biso   1.000  C
  H103     1.0000 0.85556  0.84998  0.30162  Biso   1.000  H
  C95      1.0000 0.35283  0.99453  0.11708  Biso   1.000  C
  C96      1.0000 0.24542  0.09553  0.20006  Biso   1.000  C
  H104     1.0000 0.76392  0.89284  0.07123  Biso   1.000  H
  H105     1.0000 0.66216  0.87044  0.04167  Biso   1.000  H
  C97      1.0000 0.78578  0.75950  0.04824  Biso   1.000  C
  N21      1.0000 0.58211  0.17633  0.31750  Biso   1.000  N
  C98      1.0000 0.08479  0.66681  0.05940  Biso   1.000  C
  C99      1.0000 0.00948  0.92373  0.13767  Biso   1.000  C
  H106     1.0000 0.08328  0.83425  0.06567  Biso   1.000  H
  O18      1.0000 0.91168  0.01405  0.22956  Biso   1.000  O
  C100     1.0000 0.25964  0.97942  0.09117  Biso   1.000  C
  H107     1.0000 0.42009  0.96557  0.09738  Biso   1.000  H
  C101     1.0000 0.15195  0.08210  0.17320  Biso   1.000  C
  O19      1.0000 0.24374  0.15092  0.25517  Biso   1.000  O
  H108     1.0000 0.83759  0.73075  0.08538  Biso   1.000  H
  N22      1.0000 0.71963  0.68835  0.04179  Biso   1.000  N
  H109     1.0000 0.82637  0.77994  0.99642  Biso   1.000  H
  C102     1.0000 0.08669  0.56938  0.04400  Biso   1.000  C
  H110     1.0000 0.15809  0.68005  0.05648  Biso   1.000  H
  H111     1.0000 0.04826  0.71359  0.01982  Biso   1.000  H
  C103     1.0000 0.05627  0.01043  0.08955  Biso   1.000  C
  C104     1.0000 0.83687  0.01888  0.29977  Biso   1.000  C
  C105     1.0000 0.15792  0.02437  0.11839  Biso   1.000  C
  O20      1.0000 0.25945  0.92223  0.03791  Biso   1.000  O
  H112     1.0000 0.08486  0.11213  0.19218  Biso   1.000  H
  C106     1.0000 0.14116  0.19708  0.28341  Biso   1.000  C
  N23      1.0000 0.66426  0.71389  0.98728  Biso   1.000  N
  H113     1.0000 0.01258  0.55603  0.05427  Biso   1.000  H
  C107     1.0000 0.14729  0.49643  0.08430  Biso   1.000  C
  H114     1.0000 0.11048  0.57151  0.98752  Biso   1.000  H
  H115     1.0000 0.07279  0.00483  0.03397  Biso   1.000  H
  H116     1.0000 0.00211  0.06556  0.09278  Biso   1.000  H
  H117     1.0000 0.77085  0.99833  0.29410  Biso   1.000  H
  H118     1.0000 0.86742  0.97885  0.34478  Biso   1.000  H
  H119     1.0000 0.82173  0.08257  0.30777  Biso   1.000  H
  C108     1.0000 0.36044  0.88274  0.00113  Biso   1.000  C
  H120     1.0000 0.10723  0.23487  0.23887  Biso   1.000  H
  H121     1.0000 0.15066  0.23667  0.31828  Biso   1.000  H
  H122     1.0000 0.09611  0.15106  0.31201  Biso   1.000  H
  N24      1.0000 0.60998  0.73007  0.93892  Biso   1.000  N
  N25      1.0000 0.26758  0.50714  0.07678  Biso   1.000  N
  H123     1.0000 0.14201  0.44022  0.06549  Biso   1.000  H
  H124     1.0000 0.11778  0.48752  0.14030  Biso   1.000  H
  H125     1.0000 0.40525  0.84762  0.04131  Biso   1.000  H
  H126     1.0000 0.39869  0.93218  0.96764  Biso   1.000  H
  C109     1.0000 0.33670  0.81808  0.95092  Biso   1.000  C
  N26      1.0000 0.31439  0.52113  0.01349  Biso   1.000  N
  H127     1.0000 0.40478  0.78930  0.92597  Biso   1.000  H
  H128     1.0000 0.30078  0.76820  0.98573  Biso   1.000  H
  C110     1.0000 0.26663  0.86711  0.88704  Biso   1.000  C
  N27      1.0000 0.38046  0.52821  0.95827  Biso   1.000  N
  N28      1.0000 0.24954  0.80086  0.83862  Biso   1.000  N
  H129     1.0000 0.19713  0.89390  0.91164  Biso   1.000  H
  H130     1.0000 0.30120  0.91807  0.85265  Biso   1.000  H
  N29      1.0000 0.16144  0.77664  0.84937  Biso   1.000  N
  N30      1.0000 0.08157  0.74970  0.85337  Biso   1.000  N
  Ne1      1.0000 0.31136  0.72952  0.23971  Biso   1.000  Ne
  He1      1.0000 0.07025  0.94798  0.44122  Biso   1.000  He
  He2      1.0000 0.52788  0.55519  0.07812  Biso   1.000  He
  Ar1      1.0000 0.30688  0.72823  0.24157  Biso   1.000  Ar
  Ne2      1.0000 0.68856  0.27062  0.76028  Biso   1.000  Ne
  He3      1.0000 0.44475  0.46516  0.93547  Biso   1.000  He
  He4      1.0000 0.46722  0.04451  0.99611  Biso   1.000  He
  He5      1.0000 0.93047  0.05156  0.55807  Biso   1.000  He
  Ar2      1.0000 0.69307  0.27187  0.75843  Biso   1.000  Ar
