data_image0
_cell_length_a       11.871
_cell_length_b       17.419
_cell_length_c       20.145
_cell_angle_alpha    87.26
_cell_angle_beta     80.7
_cell_angle_gamma    74.95

_symmetry_space_group_name_H-M    "P 1"
_symmetry_int_tables_number       1

loop_
  _symmetry_equiv_pos_as_xyz
  'x, y, z'

loop_
  _atom_site_label
  _atom_site_occupancy
  _atom_site_fract_x
  _atom_site_fract_y
  _atom_site_fract_z
  _atom_site_thermal_displace_type
  _atom_site_B_iso_or_equiv
  _atom_site_type_symbol
  C1       1.0000 0.54302  0.59126  0.76409  Biso   1.000  C
  O1       1.0000 0.44394  0.59284  0.73461  Biso   1.000  O
  O2       1.0000 0.64903  0.54668  0.72239  Biso   1.000  O
  H1       1.0000 0.54930  0.65132  0.76957  Biso   1.000  H
  H2       1.0000 0.53507  0.56314  0.81309  Biso   1.000  H
  C2       1.0000 0.38443  0.53463  0.75267  Biso   1.000  C
  C3       1.0000 0.68981  0.46605  0.74191  Biso   1.000  C
  C4       1.0000 0.42397  0.45984  0.72098  Biso   1.000  C
  C5       1.0000 0.28199  0.55125  0.79779  Biso   1.000  C
  C6       1.0000 0.63999  0.41134  0.71147  Biso   1.000  C
  C7       1.0000 0.77318  0.44103  0.78170  Biso   1.000  C
  C8       1.0000 0.53923  0.43956  0.67259  Biso   1.000  C
  C9       1.0000 0.35634  0.40513  0.73889  Biso   1.000  C
  C10      1.0000 0.21404  0.49786  0.81409  Biso   1.000  C
  O3       1.0000 0.25176  0.62364  0.83200  Biso   1.000  O
  C11      1.0000 0.68493  0.33136  0.72999  Biso   1.000  C
  C12      1.0000 0.81844  0.36412  0.79568  Biso   1.000  C
  O4       1.0000 0.81398  0.50022  0.80871  Biso   1.000  O
  C13      1.0000 0.53492  0.38283  0.61660  Biso   1.000  C
  H3       1.0000 0.55382  0.49207  0.64568  Biso   1.000  H
  H4       1.0000 0.38701  0.34716  0.71590  Biso   1.000  H
  C14      1.0000 0.25233  0.42014  0.78492  Biso   1.000  C
  O5       1.0000 0.11048  0.51865  0.85780  Biso   1.000  O
  C15      1.0000 0.15385  0.68024  0.81550  Biso   1.000  C
  H5       1.0000 0.64829  0.28697  0.71238  Biso   1.000  H
  C16      1.0000 0.77223  0.30647  0.76937  Biso   1.000  C
  O6       1.0000 0.90230  0.34313  0.83698  Biso   1.000  O
  C17      1.0000 0.88353  0.54152  0.76188  Biso   1.000  C
  C18      1.0000 0.63992  0.37786  0.56409  Biso   1.000  C
  H6       1.0000 0.45553  0.40588  0.59457  Biso   1.000  H
  H7       1.0000 0.53555  0.32466  0.63768  Biso   1.000  H
  C19      1.0000 0.18308  0.35952  0.80710  Biso   1.000  C
  C20      1.0000 0.11208  0.49343  0.92481  Biso   1.000  C
  H8       1.0000 0.13543  0.66584  0.76751  Biso   1.000  H
  H9       1.0000 0.07874  0.68002  0.85378  Biso   1.000  H
  C21      1.0000 0.17488  0.76152  0.81329  Biso   1.000  C
  C22      1.0000 0.81589  0.22093  0.79291  Biso   1.000  C
  C23      1.0000 0.86737  0.33212  0.90469  Biso   1.000  C
  C24      1.0000 0.84573  0.63035  0.77662  Biso   1.000  C
  H10      1.0000 0.87216  0.53107  0.71127  Biso   1.000  H
  H11      1.0000 0.97536  0.51925  0.76731  Biso   1.000  H
  C25      1.0000 0.63862  0.32699  0.50468  Biso   1.000  C
  H12      1.0000 0.64142  0.43709  0.54608  Biso   1.000  H
  H13      1.0000 0.71835  0.35179  0.58617  Biso   1.000  H
  C26      1.0000 0.22439  0.31913  0.86832  Biso   1.000  C
  H14      1.0000 0.09057  0.38963  0.81907  Biso   1.000  H
  C27      1.0000 0.18644  0.30226  0.75091  Biso   1.000  C
  O7       1.0000 0.07938  0.41956  0.93809  Biso   1.000  O
  H15      1.0000 0.19999  0.48616  0.93628  Biso   1.000  H
  H16      1.0000 0.05054  0.53862  0.95680  Biso   1.000  H
  H17      1.0000 0.17877  0.79135  0.76500  Biso   1.000  H
  C28      1.0000 0.18907  0.79782  0.86590  Biso   1.000  C
  C29      1.0000 0.74540  0.20453  0.85740  Biso   1.000  C
  H18      1.0000 0.90405  0.21145  0.80468  Biso   1.000  H
  C30      1.0000 0.82839  0.16197  0.73371  Biso   1.000  C
  H19      1.0000 0.92448  0.35171  0.93311  Biso   1.000  H
  H20      1.0000 0.77761  0.36661  0.91897  Biso   1.000  H
  O8       1.0000 0.87428  0.24932  0.91927  Biso   1.000  O
  C31      1.0000 0.81409  0.66183  0.83748  Biso   1.000  C
  H21      1.0000 0.84492  0.67013  0.73381  Biso   1.000  H
  C32      1.0000 0.57695  0.35496  0.45141  Biso   1.000  C
  C33      1.0000 0.70145  0.24738  0.50690  Biso   1.000  C
  C34      1.0000 0.31909  0.24965  0.86590  Biso   1.000  C
  C35      1.0000 0.17937  0.35041  0.93190  Biso   1.000  C
  H22      1.0000 0.14078  0.25836  0.77169  Biso   1.000  H
  H23      1.0000 0.27768  0.27326  0.73280  Biso   1.000  H
  C36      1.0000 0.12985  0.34312  0.69070  Biso   1.000  C
  H24      1.0000 0.21094  0.85396  0.85408  Biso   1.000  H
  C37      1.0000 0.18170  0.77791  0.93889  Biso   1.000  C
  C38      1.0000 0.64394  0.17693  0.85931  Biso   1.000  C
  C39      1.0000 0.77239  0.22205  0.91711  Biso   1.000  C
  H25      1.0000 0.87538  0.18144  0.68829  Biso   1.000  H
  H26      1.0000 0.74140  0.16043  0.72531  Biso   1.000  H
  C40      1.0000 0.89439  0.07937  0.75338  Biso   1.000  C
  C41      1.0000 0.80262  0.61991  0.90408  Biso   1.000  C
  H27      1.0000 0.79410  0.72583  0.84020  Biso   1.000  H
  C42      1.0000 0.57805  0.30349  0.40031  Biso   1.000  C
  H28      1.0000 0.52822  0.41656  0.44980  Biso   1.000  H
  C43      1.0000 0.70252  0.19585  0.45569  Biso   1.000  C
  H29      1.0000 0.74922  0.22568  0.54809  Biso   1.000  H
  H30      1.0000 0.36368  0.22396  0.81791  Biso   1.000  H
  C44      1.0000 0.35571  0.21481  0.92390  Biso   1.000  C
  C45      1.0000 0.21382  0.31664  0.98990  Biso   1.000  C
  H31      1.0000 0.16423  0.39406  0.67551  Biso   1.000  H
  H32      1.0000 0.03552  0.36274  0.70639  Biso   1.000  H
  C46      1.0000 0.15374  0.28886  0.63170  Biso   1.000  C
  H33      1.0000 0.15657  0.72245  0.94598  Biso   1.000  H
  H34      1.0000 0.11550  0.82383  0.96781  Biso   1.000  H
  O9       1.0000 0.28055  0.77016  0.95811  Biso   1.000  O
  H35      1.0000 0.61840  0.16515  0.81248  Biso   1.000  H
  C47      1.0000 0.57779  0.16516  0.91721  Biso   1.000  C
  C48      1.0000 0.71054  0.20872  0.97622  Biso   1.000  C
  H36      1.0000 0.97585  0.08367  0.76832  Biso   1.000  H
  H37      1.0000 0.84113  0.05826  0.79538  Biso   1.000  H
  C49      1.0000 0.92508  0.01803  0.69568  Biso   1.000  C
  O10      1.0000 0.85573  0.65632  0.95011  Biso   1.000  O
  H38      1.0000 0.71060  0.62524  0.92350  Biso   1.000  H
  H39      1.0000 0.84833  0.55796  0.89719  Biso   1.000  H
  C50      1.0000 0.64083  0.22388  0.40242  Biso   1.000  C
  H40      1.0000 0.53023  0.32519  0.35901  Biso   1.000  H
  H41      1.0000 0.75125  0.13425  0.45730  Biso   1.000  H
  C51      1.0000 0.30945  0.24896  0.98587  Biso   1.000  C
  C52      1.0000 0.46158  0.13981  0.92098  Biso   1.000  C
  O11      1.0000 0.14429  0.34361  0.04991  Biso   1.000  O
  C53      1.0000 0.06957  0.24988  0.62078  Biso   1.000  C
  C54      1.0000 0.26142  0.27567  0.58879  Biso   1.000  C
  C55      1.0000 0.28956  0.79120  0.02380  Biso   1.000  C
  C56      1.0000 0.60801  0.17970  0.97788  Biso   1.000  C
  O12      1.0000 0.71953  0.22983  0.04191  Biso   1.000  O
  C57      1.0000 0.88794  0.03453  0.63310  Biso   1.000  C
  C58      1.0000 0.98775  0.94135  0.71072  Biso   1.000  C
  C59      1.0000 0.78629  0.68329  0.01012  Biso   1.000  C
  H42      1.0000 0.64172  0.18398  0.36278  Biso   1.000  H
  O13      1.0000 0.34014  0.21351  0.04543  Biso   1.000  O
  H43      1.0000 0.45109  0.10583  0.96681  Biso   1.000  H
  C60      1.0000 0.46386  0.08256  0.86409  Biso   1.000  C
  C61      1.0000 0.19750  0.38002  0.09588  Biso   1.000  C
  C62      1.0000 0.09314  0.19754  0.56701  Biso   1.000  C
  H44      1.0000 0.98614  0.26004  0.65408  Biso   1.000  H
  C63      1.0000 0.28502  0.22333  0.53491  Biso   1.000  C
  H45      1.0000 0.32663  0.30587  0.59719  Biso   1.000  H
  C64      1.0000 0.39210  0.82023  0.02209  Biso   1.000  C
  C65      1.0000 0.22769  0.77793  0.08291  Biso   1.000  C
  O14      1.0000 0.54713  0.16588  0.03909  Biso   1.000  O
  C66      1.0000 0.81841  0.22202  0.06113  Biso   1.000  C
  H46      1.0000 0.83934  0.09394  0.62148  Biso   1.000  H
  C67      1.0000 0.91345  0.97442  0.58552  Biso   1.000  C
  C68      1.0000 0.01327  0.88124  0.66308  Biso   1.000  C
  H47      1.0000 0.01655  0.92863  0.75911  Biso   1.000  H
  C69      1.0000 0.82073  0.64952  0.06812  Biso   1.000  C
  C70      1.0000 0.69065  0.75103  0.01409  Biso   1.000  C
  C71      1.0000 0.44283  0.22330  0.06470  Biso   1.000  C
  H48      1.0000 0.49341  0.10751  0.81630  Biso   1.000  H
  H49      1.0000 0.37566  0.07595  0.86470  Biso   1.000  H
  C72      1.0000 0.54712  0.00003  0.87330  Biso   1.000  C
  H50      1.0000 0.28950  0.37469  0.07652  Biso   1.000  H
  H51      1.0000 0.15175  0.44203  0.10283  Biso   1.000  H
  C73      1.0000 0.18602  0.33810  0.16248  Biso   1.000  C
  C74      1.0000 0.20095  0.18424  0.52410  Biso   1.000  C
  H52      1.0000 0.02804  0.16728  0.55861  Biso   1.000  H
  H53      1.0000 0.36855  0.21305  0.50171  Biso   1.000  H
  O15      1.0000 0.45299  0.83405  0.96087  Biso   1.000  O
  C75      1.0000 0.42229  0.83483  0.08281  Biso   1.000  C
  O16      1.0000 0.12583  0.75060  0.08069  Biso   1.000  O
  C76      1.0000 0.25470  0.79540  0.14262  Biso   1.000  C
  C77      1.0000 0.81103  0.20211  0.13411  Biso   1.000  C
  H54      1.0000 0.84351  0.27753  0.05403  Biso   1.000  H
  H55      1.0000 0.88461  0.17610  0.03220  Biso   1.000  H
  C78      1.0000 0.97604  0.89774  0.60051  Biso   1.000  C
  H56      1.0000 0.88461  0.98725  0.53708  Biso   1.000  H
  H57      1.0000 0.06174  0.82194  0.67470  Biso   1.000  H
  C79      1.0000 0.77571  0.68080  0.13170  Biso   1.000  C
  O17      1.0000 0.92070  0.58042  0.06193  Biso   1.000  O
  O18      1.0000 0.65996  0.78641  0.95459  Biso   1.000  O
  C80      1.0000 0.64439  0.78512  0.07612  Biso   1.000  C
  H58      1.0000 0.45292  0.28121  0.04759  Biso   1.000  H
  H59      1.0000 0.43254  0.22071  0.11902  Biso   1.000  H
  H60      1.0000 0.63348  0.00732  0.87692  Biso   1.000  H
  H61      1.0000 0.51331  0.97313  0.91907  Biso   1.000  H
  C81      1.0000 0.55826  0.94559  0.81429  Biso   1.000  C
  H62      1.0000 0.20600  0.27409  0.15982  Biso   1.000  H
  C82      1.0000 0.15437  0.36958  0.22340  Biso   1.000  C
  H63      1.0000 0.21926  0.14388  0.48240  Biso   1.000  H
  C83      1.0000 0.55727  0.77663  0.93532  Biso   1.000  C
  C84      1.0000 0.35616  0.82299  0.14070  Biso   1.000  C
  C85      1.0000 0.53854  0.86012  0.07898  Biso   1.000  C
  C86      1.0000 0.13273  0.66781  0.09533  Biso   1.000  C
  C87      1.0000 0.18422  0.77900  0.20710  Biso   1.000  C
  C88      1.0000 0.82523  0.23841  0.18673  Biso   1.000  C
  H64      1.0000 0.78916  0.14603  0.14588  Biso   1.000  H
  H65      1.0000 0.99589  0.85122  0.56359  Biso   1.000  H
  C89      1.0000 0.68102  0.75028  0.13411  Biso   1.000  C
  C90      1.0000 0.81702  0.64041  0.19292  Biso   1.000  C
  C91      1.0000 0.88803  0.50649  0.07521  Biso   1.000  C
  C92      1.0000 0.46716  0.91080  0.80841  Biso   1.000  C
  C93      1.0000 0.66076  0.92965  0.76681  Biso   1.000  C
  H66      1.0000 0.15518  0.32980  0.26621  Biso   1.000  H
  C94      1.0000 0.11659  0.45841  0.23809  Biso   1.000  C
  H67      1.0000 0.54719  0.71872  0.95237  Biso   1.000  H
  H68      1.0000 0.56756  0.77922  0.88099  Biso   1.000  H
  H69      1.0000 0.38172  0.83478  0.18748  Biso   1.000  H
  H70      1.0000 0.54901  0.89410  0.03321  Biso   1.000  H
  C95      1.0000 0.53621  0.91743  0.13592  Biso   1.000  C
  O19      1.0000 0.09782  0.65679  0.16299  Biso   1.000  O
  H71      1.0000 0.07563  0.64822  0.06691  Biso   1.000  H
  H72      1.0000 0.22250  0.63331  0.08099  Biso   1.000  H
  C96      1.0000 0.22786  0.69352  0.23059  Biso   1.000  C
  H73      1.0000 0.09606  0.78847  0.19533  Biso   1.000  H
  C97      1.0000 0.17169  0.83802  0.26631  Biso   1.000  C
  C98      1.0000 0.84625  0.31969  0.18452  Biso   1.000  C
  H74      1.0000 0.82133  0.20857  0.23502  Biso   1.000  H
  H75      1.0000 0.63640  0.77603  0.18210  Biso   1.000  H
  C99      1.0000 0.74777  0.57979  0.21510  Biso   1.000  C
  H76      1.0000 0.90954  0.61030  0.18090  Biso   1.000  H
  C100     1.0000 0.81366  0.69767  0.24910  Biso   1.000  C
  H77      1.0000 0.80011  0.51383  0.06369  Biso   1.000  H
  H78      1.0000 0.94956  0.46131  0.04322  Biso   1.000  H
  O20      1.0000 0.88962  0.48128  0.14221  Biso   1.000  O
  C101     1.0000 0.47871  0.85941  0.75509  Biso   1.000  C
  H79      1.0000 0.38786  0.92290  0.84518  Biso   1.000  H
  C102     1.0000 0.67210  0.87855  0.71349  Biso   1.000  C
  H80      1.0000 0.73118  0.95672  0.77128  Biso   1.000  H
  H81      1.0000 0.12796  0.46886  0.28869  Biso   1.000  H
  H82      1.0000 0.02475  0.48068  0.23271  Biso   1.000  H
  O21      1.0000 0.18612  0.49971  0.19131  Biso   1.000  O
  H83      1.0000 0.50670  0.89241  0.18371  Biso   1.000  H
  H84      1.0000 0.62444  0.92397  0.13532  Biso   1.000  H
  C103     1.0000 0.45299  0.99989  0.12672  Biso   1.000  C
  C104     1.0000 0.18167  0.63581  0.20429  Biso   1.000  C
  C105     1.0000 0.31518  0.66856  0.27003  Biso   1.000  C
  H85      1.0000 0.12472  0.81848  0.31173  Biso   1.000  H
  H86      1.0000 0.25870  0.83950  0.27471  Biso   1.000  H
  C106     1.0000 0.10570  0.92061  0.24659  Biso   1.000  C
  O22      1.0000 0.74834  0.37628  0.16802  Biso   1.000  O
  H87      1.0000 0.86467  0.33408  0.23251  Biso   1.000  H
  H88      1.0000 0.92137  0.31991  0.14619  Biso   1.000  H
  C107     1.0000 0.78604  0.50212  0.18593  Biso   1.000  C
  C108     1.0000 0.64376  0.59479  0.26113  Biso   1.000  C
  H89      1.0000 0.85932  0.74157  0.22833  Biso   1.000  H
  H90      1.0000 0.72242  0.72666  0.26721  Biso   1.000  H
  C109     1.0000 0.87025  0.65680  0.30932  Biso   1.000  C
  C110     1.0000 0.58105  0.84340  0.70760  Biso   1.000  C
  H91      1.0000 0.40812  0.83233  0.75061  Biso   1.000  H
  H92      1.0000 0.75144  0.86616  0.67672  Biso   1.000  H
  C111     1.0000 0.22692  0.55890  0.21832  Biso   1.000  C
  H93      1.0000 0.36662  0.99261  0.12310  Biso   1.000  H
  H94      1.0000 0.48681  0.02680  0.08089  Biso   1.000  H
  C112     1.0000 0.44186  0.05428  0.18572  Biso   1.000  C
  C113     1.0000 0.36013  0.58859  0.28849  Biso   1.000  C
  H95      1.0000 0.35182  0.71296  0.28759  Biso   1.000  H
  H96      1.0000 0.02423  0.91632  0.23170  Biso   1.000  H
  H97      1.0000 0.15896  0.94172  0.20459  Biso   1.000  H
  C114     1.0000 0.07503  0.98190  0.30429  Biso   1.000  C
  C115     1.0000 0.71812  0.44868  0.20222  Biso   1.000  C
  C116     1.0000 0.57614  0.54009  0.27898  Biso   1.000  C
  H98      1.0000 0.61301  0.65277  0.28412  Biso   1.000  H
  H99      1.0000 0.83588  0.60587  0.32451  Biso   1.000  H
  H100     1.0000 0.96459  0.63718  0.29362  Biso   1.000  H
  C117     1.0000 0.84637  0.71107  0.36832  Biso   1.000  C
  H101     1.0000 0.58994  0.80381  0.66630  Biso   1.000  H
  C118     1.0000 0.31029  0.53388  0.25811  Biso   1.000  C
  C119     1.0000 0.53296  0.08907  0.19161  Biso   1.000  C
  C120     1.0000 0.33934  0.07028  0.23321  Biso   1.000  C
  C121     1.0000 0.46087  0.56037  0.32743  Biso   1.000  C
  C122     1.0000 0.11216  0.96540  0.36691  Biso   1.000  C
  C123     1.0000 0.01236  0.05858  0.28930  Biso   1.000  C
  C124     1.0000 0.61561  0.46530  0.24729  Biso   1.000  C
  C125     1.0000 0.93053  0.75011  0.37919  Biso   1.000  C
  C126     1.0000 0.73868  0.72425  0.41123  Biso   1.000  C
  O23      1.0000 0.35105  0.45331  0.27763  Biso   1.000  O
  C127     1.0000 0.52142  0.14046  0.24493  Biso   1.000  C
  H102     1.0000 0.61228  0.07697  0.15479  Biso   1.000  H
  C128     1.0000 0.32791  0.12137  0.28653  Biso   1.000  C
  H103     1.0000 0.26896  0.04314  0.22868  Biso   1.000  H
  H104     1.0000 0.44630  0.50786  0.35429  Biso   1.000  H
  C129     1.0000 0.46518  0.61709  0.38341  Biso   1.000  C
  H105     1.0000 0.16077  0.90598  0.37848  Biso   1.000  H
  C130     1.0000 0.08668  0.02545  0.41450  Biso   1.000  C
  C131     1.0000 0.98687  0.11863  0.33688  Biso   1.000  C
  H106     1.0000 0.98357  0.07123  0.24091  Biso   1.000  H
  O24      1.0000 0.55616  0.40709  0.26540  Biso   1.000  O
  C132     1.0000 0.90697  0.80239  0.43301  Biso   1.000  C
  H107     1.0000 0.01398  0.73989  0.34589  Biso   1.000  H
  C133     1.0000 0.71509  0.77659  0.46510  Biso   1.000  C
  H108     1.0000 0.67348  0.69405  0.40283  Biso   1.000  H
  C134     1.0000 0.45708  0.40867  0.23593  Biso   1.000  C
  C135     1.0000 0.41907  0.15647  0.29242  Biso   1.000  C
  H109     1.0000 0.59201  0.16754  0.24941  Biso   1.000  H
  H110     1.0000 0.24866  0.13377  0.32330  Biso   1.000  H
  H111     1.0000 0.54457  0.59410  0.40539  Biso   1.000  H
  H112     1.0000 0.46456  0.67527  0.36228  Biso   1.000  H
  C136     1.0000 0.36018  0.62206  0.43593  Biso   1.000  C
  C137     1.0000 0.02408  0.10213  0.39951  Biso   1.000  C
  H113     1.0000 0.11553  0.01262  0.46289  Biso   1.000  H
  H114     1.0000 0.93839  0.17793  0.32531  Biso   1.000  H
  C138     1.0000 0.79915  0.81569  0.47592  Biso   1.000  C
  H115     1.0000 0.97204  0.83270  0.44141  Biso   1.000  H
  H116     1.0000 0.63156  0.78687  0.49830  Biso   1.000  H
  H117     1.0000 0.45082  0.34861  0.23039  Biso   1.000  H
  H118     1.0000 0.46503  0.43678  0.18693  Biso   1.000  H
  H119     1.0000 0.41018  0.19606  0.33371  Biso   1.000  H
  H120     1.0000 0.35868  0.56290  0.45389  Biso   1.000  H
  H121     1.0000 0.28174  0.64820  0.41379  Biso   1.000  H
  C139     1.0000 0.36148  0.67299  0.49528  Biso   1.000  C
  H122     1.0000 0.00424  0.14865  0.43643  Biso   1.000  H
  H123     1.0000 0.78085  0.85605  0.51762  Biso   1.000  H
  C140     1.0000 0.29865  0.75255  0.49312  Biso   1.000  C
  C141     1.0000 0.42316  0.64497  0.54860  Biso   1.000  C
  C142     1.0000 0.29758  0.80408  0.54433  Biso   1.000  C
  H124     1.0000 0.25089  0.77425  0.45192  Biso   1.000  H
  C143     1.0000 0.42202  0.69649  0.59971  Biso   1.000  C
  H125     1.0000 0.47188  0.58337  0.55021  Biso   1.000  H
  C144     1.0000 0.35927  0.77605  0.59760  Biso   1.000  C
  H126     1.0000 0.24886  0.86568  0.54272  Biso   1.000  H
  H127     1.0000 0.46985  0.67479  0.64101  Biso   1.000  H
  H128     1.0000 0.35840  0.81595  0.63719  Biso   1.000  H
