data_image0
_cell_length_a       11.524
_cell_length_b       12.903
_cell_length_c       22.507
_cell_angle_alpha    90
_cell_angle_beta     91.75
_cell_angle_gamma    90

_symmetry_space_group_name_H-M    "P 1"
_symmetry_int_tables_number       1

loop_
  _symmetry_equiv_pos_as_xyz
  'x, y, z'

loop_
  _atom_site_label
  _atom_site_occupancy
  _atom_site_fract_x
  _atom_site_fract_y
  _atom_site_fract_z
  _atom_site_thermal_displace_type
  _atom_site_B_iso_or_equiv
  _atom_site_type_symbol
  C1       1.0000 0.84794  0.22150  0.07806  Biso   1.000  C
  O1       1.0000 0.93492  0.23312  0.12366  Biso   1.000  O
  H1       1.0000 0.82209  0.28962  0.06361  Biso   1.000  H
  H2       1.0000 0.87866  0.18259  0.04463  Biso   1.000  H
  C2       1.0000 0.74815  0.16384  0.10428  Biso   1.000  C
  H3       1.0000 0.87874  0.18259  0.04458  Biso   1.000  H
  C3       1.0000 0.04057  0.27265  0.10837  Biso   1.000  C
  H4       1.0000 0.68742  0.15400  0.07401  Biso   1.000  H
  H5       1.0000 0.71791  0.20336  0.13700  Biso   1.000  H
  H6       1.0000 0.77478  0.09680  0.11873  Biso   1.000  H
  C4       1.0000 0.12941  0.26637  0.15171  Biso   1.000  C
  C5       1.0000 0.12949  0.26637  0.15171  Biso   1.000  C
  C6       1.0000 0.06084  0.31946  0.05401  Biso   1.000  C
  C7       1.0000 0.06075  0.31946  0.05401  Biso   1.000  C
  C8       1.0000 0.10747  0.22320  0.21306  Biso   1.000  C
  C9       1.0000 0.10755  0.22320  0.21306  Biso   1.000  C
  C10      1.0000 0.23742  0.30582  0.13824  Biso   1.000  C
  C11      1.0000 0.23750  0.30582  0.13820  Biso   1.000  C
  H7       1.0000 0.00003  0.32303  0.02520  Biso   1.000  H
  C12      1.0000 0.16845  0.36116  0.04098  Biso   1.000  C
  C13      1.0000 0.07408  0.10959  0.21634  Biso   1.000  C
  H8       1.0000 0.04559  0.26412  0.23048  Biso   1.000  H
  H9       1.0000 0.04560  0.26412  0.23052  Biso   1.000  H
  H10      1.0000 0.17793  0.23359  0.23790  Biso   1.000  H
  C14      1.0000 0.25803  0.35271  0.08366  Biso   1.000  C
  C15      1.0000 0.25803  0.35271  0.08370  Biso   1.000  C
  H11      1.0000 0.29856  0.30094  0.16674  Biso   1.000  H
  C16      1.0000 0.18540  0.41975  0.98333  Biso   1.000  C
  C17      1.0000 0.18540  0.41975  0.98338  Biso   1.000  C
  C18      1.0000 0.96338  0.08014  0.23137  Biso   1.000  C
  C19      1.0000 0.15620  0.03240  0.20674  Biso   1.000  C
  O2       1.0000 0.36294  0.39518  0.06921  Biso   1.000  O
  C20      1.0000 0.14071  0.36418  0.92799  Biso   1.000  C
  H12      1.0000 0.26847  0.43331  0.97937  Biso   1.000  H
  H13      1.0000 0.14607  0.48686  0.98586  Biso   1.000  H
  C21      1.0000 0.93280  0.97613  0.23657  Biso   1.000  C
  H14      1.0000 0.90748  0.13136  0.23830  Biso   1.000  H
  C22      1.0000 0.12600  0.92808  0.21248  Biso   1.000  C
  O3       1.0000 0.26469  0.06650  0.19252  Biso   1.000  O
  C23      1.0000 0.45888  0.38286  0.10931  Biso   1.000  C
  C24      1.0000 0.45897  0.38286  0.10931  Biso   1.000  C
  C25      1.0000 0.02984  0.38146  0.90519  Biso   1.000  C
  C26      1.0000 0.21131  0.29482  0.89843  Biso   1.000  C
  C27      1.0000 0.21132  0.29482  0.89847  Biso   1.000  C
  C28      1.0000 0.01467  0.89925  0.22710  Biso   1.000  C
  C29      1.0000 0.01468  0.89925  0.22715  Biso   1.000  C
  O4       1.0000 0.82440  0.94172  0.25079  Biso   1.000  O
  H15      1.0000 0.18221  0.87670  0.20630  Biso   1.000  H
  C30      1.0000 0.35299  0.99186  0.18452  Biso   1.000  C
  H16      1.0000 0.47439  0.30908  0.11620  Biso   1.000  H
  C31      1.0000 0.56190  0.43362  0.08192  Biso   1.000  C
  H17      1.0000 0.44276  0.41548  0.14753  Biso   1.000  H
  C32      1.0000 0.98782  0.33085  0.85407  Biso   1.000  C
  H18      1.0000 0.98144  0.42843  0.92457  Biso   1.000  H
  C33      1.0000 0.17124  0.24746  0.84629  Biso   1.000  C
  O5       1.0000 0.31942  0.27924  0.92439  Biso   1.000  O
  C34      1.0000 0.98306  0.78571  0.23395  Biso   1.000  C
  C35      1.0000 0.98306  0.78571  0.23399  Biso   1.000  C
  C36      1.0000 0.98315  0.78571  0.23395  Biso   1.000  C
  C37      1.0000 0.74120  0.01209  0.27151  Biso   1.000  C
  H19      1.0000 0.37040  0.95544  0.22190  Biso   1.000  H
  H20      1.0000 0.32803  0.94087  0.15451  Biso   1.000  H
  H21      1.0000 0.32794  0.94087  0.15451  Biso   1.000  H
  C38      1.0000 0.45879  0.04921  0.16447  Biso   1.000  C
  H22      1.0000 0.57478  0.40301  0.04330  Biso   1.000  H
  H23      1.0000 0.54721  0.50717  0.07721  Biso   1.000  H
  H24      1.0000 0.63016  0.42347  0.10753  Biso   1.000  H
  H25      1.0000 0.63024  0.42347  0.10753  Biso   1.000  H
  C39      1.0000 0.05968  0.26451  0.82357  Biso   1.000  C
  O6       1.0000 0.87926  0.34511  0.82917  Biso   1.000  O
  H26      1.0000 0.22088  0.20290  0.82597  Biso   1.000  H
  C40      1.0000 0.39159  0.20073  0.90203  Biso   1.000  C
  C41      1.0000 0.94023  0.73549  0.17638  Biso   1.000  C
  C42      1.0000 0.94015  0.73549  0.17638  Biso   1.000  C
  H27      1.0000 0.92260  0.77959  0.26342  Biso   1.000  H
  H28      1.0000 0.05148  0.74789  0.24919  Biso   1.000  H
  C43      1.0000 0.63936  0.94831  0.28947  Biso   1.000  C
  C44      1.0000 0.63936  0.94831  0.28951  Biso   1.000  C
  H29      1.0000 0.77299  0.05138  0.30551  Biso   1.000  H
  H30      1.0000 0.71789  0.06099  0.23999  Biso   1.000  H
  H31      1.0000 0.71789  0.06099  0.24004  Biso   1.000  H
  H32      1.0000 0.51972  0.99992  0.15611  Biso   1.000  H
  H33      1.0000 0.43922  0.08843  0.12882  Biso   1.000  H
  H34      1.0000 0.48563  0.09618  0.19559  Biso   1.000  H
  H35      1.0000 0.48555  0.09618  0.19563  Biso   1.000  H
  C45      1.0000 0.01676  0.21429  0.76601  Biso   1.000  C
  C46      1.0000 0.80036  0.41037  0.85500  Biso   1.000  C
  C47      1.0000 0.80027  0.41037  0.85500  Biso   1.000  C
  C48      1.0000 0.78599  0.37472  0.88318  Biso   1.000  C
  H36      1.0000 0.42139  0.22111  0.86336  Biso   1.000  H
  C49      1.0000 0.49095  0.18678  0.94724  Biso   1.000  C
  H37      1.0000 0.34807  0.13578  0.89696  Biso   1.000  H
  H38      1.0000 0.42148  0.22111  0.86336  Biso   1.000  H
  C50      1.0000 0.01209  0.66915  0.14593  Biso   1.000  C
  C51      1.0000 0.82867  0.75254  0.15367  Biso   1.000  C
  C52      1.0000 0.82868  0.75254  0.15371  Biso   1.000  C
  H39      1.0000 0.61176  0.90677  0.25600  Biso   1.000  H
  H40      1.0000 0.66265  0.90312  0.32209  Biso   1.000  H
  H41      1.0000 0.57763  0.99380  0.30200  Biso   1.000  H
  C53      1.0000 0.98524  0.10075  0.77285  Biso   1.000  C
  H42      1.0000 0.94843  0.25211  0.75076  Biso   1.000  H
  H43      1.0000 0.07731  0.22041  0.73658  Biso   1.000  H
  C54      1.0000 0.74739  0.34837  0.90385  Biso   1.000  C
  H44      1.0000 0.83933  0.47222  0.87118  Biso   1.000  H
  H45      1.0000 0.74056  0.43230  0.82580  Biso   1.000  H
  C55      1.0000 0.66290  0.36216  0.86078  Biso   1.000  C
  H46      1.0000 0.79882  0.44641  0.89616  Biso   1.000  H
  H47      1.0000 0.80704  0.33078  0.93355  Biso   1.000  H
  H48      1.0000 0.80704  0.33078  0.93359  Biso   1.000  H
  H49      1.0000 0.80044  0.32923  0.91745  Biso   1.000  H
  H50      1.0000 0.54333  0.13369  0.93355  Biso   1.000  H
  H51      1.0000 0.46023  0.16616  0.98506  Biso   1.000  H
  H52      1.0000 0.54333  0.13369  0.93359  Biso   1.000  H
  H53      1.0000 0.53271  0.25172  0.95199  Biso   1.000  H
  C56      1.0000 0.97007  0.61854  0.09477  Biso   1.000  C
  O7       1.0000 0.12065  0.65489  0.17083  Biso   1.000  O
  C57      1.0000 0.78868  0.70518  0.10153  Biso   1.000  C
  H54      1.0000 0.77895  0.79710  0.17403  Biso   1.000  H
  H55      1.0000 0.77903  0.79710  0.17398  Biso   1.000  H
  C58      1.0000 0.87391  0.07192  0.78748  Biso   1.000  C
  C59      1.0000 0.06711  0.02387  0.76339  Biso   1.000  C
  C60      1.0000 0.06711  0.02387  0.76343  Biso   1.000  C
  H56      1.0000 0.68739  0.38898  0.92217  Biso   1.000  H
  H57      1.0000 0.71379  0.28528  0.88749  Biso   1.000  H
  H58      1.0000 0.64898  0.40680  0.82660  Biso   1.000  H
  H59      1.0000 0.64955  0.29063  0.84935  Biso   1.000  H
  H60      1.0000 0.61053  0.38100  0.89198  Biso   1.000  H
  C61      1.0000 0.85929  0.63582  0.07201  Biso   1.000  C
  H61      1.0000 0.01847  0.57157  0.07539  Biso   1.000  H
  H62      1.0000 0.01847  0.57157  0.07543  Biso   1.000  H
  C62      1.0000 0.19964  0.58963  0.14496  Biso   1.000  C
  C63      1.0000 0.21393  0.62528  0.11682  Biso   1.000  C
  O8       1.0000 0.68057  0.72076  0.07557  Biso   1.000  O
  O9       1.0000 0.68049  0.72076  0.07561  Biso   1.000  O
  C64      1.0000 0.84371  0.96760  0.79326  Biso   1.000  C
  H63      1.0000 0.81770  0.12330  0.79366  Biso   1.000  H
  C65      1.0000 0.03653  0.91986  0.76859  Biso   1.000  C
  O10      1.0000 0.17551  0.05828  0.74916  Biso   1.000  O
  C66      1.0000 0.81451  0.58025  0.01662  Biso   1.000  C
  H64      1.0000 0.16058  0.52778  0.12882  Biso   1.000  H
  C67      1.0000 0.25252  0.65163  0.09610  Biso   1.000  C
  H65      1.0000 0.25944  0.56770  0.17420  Biso   1.000  H
  C68      1.0000 0.33701  0.63784  0.13918  Biso   1.000  C
  H66      1.0000 0.20109  0.55359  0.10379  Biso   1.000  H
  H67      1.0000 0.19287  0.66922  0.06641  Biso   1.000  H
  H68      1.0000 0.19947  0.67077  0.08250  Biso   1.000  H
  C69      1.0000 0.60824  0.79927  0.09797  Biso   1.000  C
  C70      1.0000 0.92583  0.89041  0.78361  Biso   1.000  C
  C71      1.0000 0.92583  0.89041  0.78366  Biso   1.000  C
  O11      1.0000 0.73522  0.93350  0.80748  Biso   1.000  O
  H69      1.0000 0.09243  0.86864  0.76165  Biso   1.000  H
  C72      1.0000 0.25871  0.98791  0.72849  Biso   1.000  C
  C73      1.0000 0.83155  0.63884  0.95897  Biso   1.000  C
  C74      1.0000 0.83147  0.63884  0.95902  Biso   1.000  C
  C75      1.0000 0.83155  0.63884  0.95902  Biso   1.000  C
  H70      1.0000 0.73136  0.56669  0.02063  Biso   1.000  H
  H71      1.0000 0.85376  0.51314  0.01414  Biso   1.000  H
  H72      1.0000 0.73144  0.56669  0.02058  Biso   1.000  H
  H73      1.0000 0.85384  0.51314  0.01409  Biso   1.000  H
  H74      1.0000 0.28613  0.71472  0.11251  Biso   1.000  H
  H75      1.0000 0.31252  0.61102  0.07783  Biso   1.000  H
  H76      1.0000 0.35085  0.59320  0.17340  Biso   1.000  H
  H77      1.0000 0.35036  0.70937  0.15060  Biso   1.000  H
  H78      1.0000 0.38938  0.61900  0.10802  Biso   1.000  H
  H79      1.0000 0.57852  0.77889  0.13660  Biso   1.000  H
  C76      1.0000 0.50896  0.81322  0.05272  Biso   1.000  C
  H80      1.0000 0.65175  0.86422  0.10304  Biso   1.000  H
  H81      1.0000 0.57844  0.77889  0.13660  Biso   1.000  H
  C77      1.0000 0.50896  0.81322  0.05276  Biso   1.000  C
  H82      1.0000 0.65184  0.86422  0.10299  Biso   1.000  H
  C78      1.0000 0.89245  0.77680  0.78694  Biso   1.000  C
  C79      1.0000 0.64692  0.00814  0.81544  Biso   1.000  C
  C80      1.0000 0.64693  0.00814  0.81548  Biso   1.000  C
  H83      1.0000 0.28202  0.93901  0.75996  Biso   1.000  H
  H84      1.0000 0.22692  0.94862  0.69449  Biso   1.000  H
  C81      1.0000 0.36064  0.05169  0.71049  Biso   1.000  C
  C82      1.0000 0.74188  0.64729  0.91630  Biso   1.000  C
  C83      1.0000 0.93916  0.68054  0.94595  Biso   1.000  C
  H85      1.0000 0.45658  0.86631  0.06641  Biso   1.000  H
  H86      1.0000 0.46720  0.74828  0.04801  Biso   1.000  H
  H87      1.0000 0.53968  0.83384  0.01489  Biso   1.000  H
  H88      1.0000 0.53968  0.83384  0.01494  Biso   1.000  H
  C84      1.0000 0.87051  0.73363  0.84829  Biso   1.000  C
  H89      1.0000 0.82206  0.76641  0.76205  Biso   1.000  H
  H90      1.0000 0.95432  0.73588  0.76948  Biso   1.000  H
  H91      1.0000 0.82198  0.76641  0.76205  Biso   1.000  H
  C85      1.0000 0.54113  0.95079  0.83553  Biso   1.000  C
  H92      1.0000 0.62951  0.04456  0.77805  Biso   1.000  H
  H93      1.0000 0.67188  0.05913  0.84549  Biso   1.000  H
  H94      1.0000 0.67197  0.05913  0.84544  Biso   1.000  H
  H95      1.0000 0.38815  0.09323  0.74396  Biso   1.000  H
  H96      1.0000 0.33726  0.09688  0.67786  Biso   1.000  H
  H97      1.0000 0.42237  0.00620  0.69795  Biso   1.000  H
  H98      1.0000 0.42228  0.00620  0.69795  Biso   1.000  H
  O12      1.0000 0.63697  0.60482  0.93079  Biso   1.000  O
  C86      1.0000 0.76241  0.69418  0.86176  Biso   1.000  C
  C87      1.0000 0.95934  0.72735  0.89158  Biso   1.000  C
  H99      1.0000 0.99988  0.67697  0.97475  Biso   1.000  H
  H100     1.0000 0.51428  0.90382  0.80437  Biso   1.000  H
  H101     1.0000 0.56070  0.91157  0.87118  Biso   1.000  H
  H102     1.0000 0.51436  0.90382  0.80437  Biso   1.000  H
  H103     1.0000 0.48019  0.00008  0.84389  Biso   1.000  H
  C88      1.0000 0.54103  0.61714  0.89069  Biso   1.000  C
  H104     1.0000 0.70127  0.69906  0.83326  Biso   1.000  H
  O13      1.0000 0.06499  0.76688  0.87629  Biso   1.000  O
  H105     1.0000 0.55715  0.58452  0.85247  Biso   1.000  H
  H106     1.0000 0.52552  0.69092  0.88376  Biso   1.000  H
  C89      1.0000 0.43801  0.56638  0.91803  Biso   1.000  C
  C90      1.0000 0.43802  0.56638  0.91808  Biso   1.000  C
  C91      1.0000 0.15197  0.77850  0.92194  Biso   1.000  C
  H107     1.0000 0.42513  0.59699  0.95666  Biso   1.000  H
  H108     1.0000 0.36967  0.57653  0.89247  Biso   1.000  H
  H109     1.0000 0.45270  0.49283  0.92279  Biso   1.000  H
  H110     1.0000 0.36976  0.57653  0.89247  Biso   1.000  H
  C92      1.0000 0.25176  0.83616  0.89572  Biso   1.000  C
  H111     1.0000 0.17783  0.71038  0.93639  Biso   1.000  H
  H112     1.0000 0.12117  0.81741  0.95537  Biso   1.000  H
  H113     1.0000 0.22513  0.90320  0.88127  Biso   1.000  H
  H114     1.0000 0.28200  0.79664  0.86296  Biso   1.000  H
  H115     1.0000 0.31249  0.84600  0.92599  Biso   1.000  H
  C93      1.0000 0.75877  0.51213  0.22852  Biso   1.000  C
  O14      1.0000 0.67557  0.44168  0.24919  Biso   1.000  O
  H116     1.0000 0.72698  0.55142  0.19452  Biso   1.000  H
  H117     1.0000 0.78208  0.56103  0.26000  Biso   1.000  H
  C94      1.0000 0.86061  0.44835  0.21052  Biso   1.000  C
  C95      1.0000 0.56717  0.47617  0.26342  Biso   1.000  C
  H118     1.0000 0.88821  0.40680  0.24399  Biso   1.000  H
  H119     1.0000 0.83732  0.40308  0.17789  Biso   1.000  H
  H120     1.0000 0.92243  0.49384  0.19799  Biso   1.000  H
  C96      1.0000 0.48530  0.39921  0.27289  Biso   1.000  C
  C97      1.0000 0.53659  0.58010  0.26862  Biso   1.000  C
  C98      1.0000 0.51691  0.28575  0.26604  Biso   1.000  C
  C99      1.0000 0.37397  0.42812  0.28751  Biso   1.000  C
  C100     1.0000 0.42589  0.60955  0.28364  Biso   1.000  C
  H121     1.0000 0.59249  0.63140  0.26169  Biso   1.000  H
  C101     1.0000 0.55974  0.23545  0.32361  Biso   1.000  C
  H122     1.0000 0.44849  0.24793  0.25079  Biso   1.000  H
  H123     1.0000 0.57737  0.27962  0.23661  Biso   1.000  H
  C102     1.0000 0.34377  0.53236  0.29329  Biso   1.000  C
  H124     1.0000 0.31776  0.37673  0.29369  Biso   1.000  H
  C103     1.0000 0.39251  0.72317  0.28698  Biso   1.000  C
  C104     1.0000 0.48788  0.16919  0.35410  Biso   1.000  C
  C105     1.0000 0.67130  0.25250  0.34632  Biso   1.000  C
  O15      1.0000 0.23528  0.56653  0.30751  Biso   1.000  O
  C106     1.0000 0.37048  0.76633  0.34832  Biso   1.000  C
  H125     1.0000 0.32212  0.73363  0.26209  Biso   1.000  H
  H126     1.0000 0.45438  0.76409  0.26951  Biso   1.000  H
  O16      1.0000 0.37932  0.15485  0.32921  Biso   1.000  O
  C107     1.0000 0.52990  0.11858  0.40522  Biso   1.000  C
  C108     1.0000 0.71137  0.20522  0.39846  Biso   1.000  C
  H127     1.0000 0.72102  0.29706  0.32601  Biso   1.000  H
  C109     1.0000 0.14699  0.49190  0.31552  Biso   1.000  C
  C110     1.0000 0.45940  0.77269  0.39162  Biso   1.000  C
  C111     1.0000 0.26255  0.80586  0.36179  Biso   1.000  C
  C112     1.0000 0.30042  0.08959  0.35503  Biso   1.000  C
  C113     1.0000 0.28605  0.12532  0.38322  Biso   1.000  C
  C114     1.0000 0.64076  0.13578  0.42798  Biso   1.000  C
  H128     1.0000 0.48150  0.07161  0.42460  Biso   1.000  H
  O17      1.0000 0.81940  0.22080  0.42442  Biso   1.000  O
  H129     1.0000 0.12957  0.45540  0.27809  Biso   1.000  H
  H130     1.0000 0.17194  0.44091  0.34548  Biso   1.000  H
  C115     1.0000 0.04119  0.54917  0.33556  Biso   1.000  C
  O18      1.0000 0.56505  0.73309  0.37633  Biso   1.000  O
  C116     1.0000 0.43913  0.81942  0.44598  Biso   1.000  C
  C117     1.0000 0.24194  0.85267  0.41633  Biso   1.000  C
  H131     1.0000 0.20141  0.80090  0.33330  Biso   1.000  H
  H132     1.0000 0.33939  0.02782  0.37121  Biso   1.000  H
  H133     1.0000 0.24062  0.06774  0.32578  Biso   1.000  H
  C118     1.0000 0.24745  0.15159  0.40389  Biso   1.000  C
  C119     1.0000 0.16296  0.13780  0.36081  Biso   1.000  C
  H134     1.0000 0.29888  0.05363  0.39619  Biso   1.000  H
  H135     1.0000 0.30710  0.16919  0.43358  Biso   1.000  H
  H136     1.0000 0.30050  0.17081  0.41749  Biso   1.000  H
  C120     1.0000 0.68546  0.08029  0.48341  Biso   1.000  C
  C121     1.0000 0.89165  0.29931  0.40206  Biso   1.000  C
  H137     1.0000 0.06076  0.58839  0.37121  Biso   1.000  H
  H138     1.0000 0.01434  0.59622  0.30440  Biso   1.000  H
  H139     1.0000 0.98025  0.49988  0.34392  Biso   1.000  H
  C122     1.0000 0.65203  0.72146  0.42193  Biso   1.000  C
  C123     1.0000 0.33161  0.86112  0.45905  Biso   1.000  C
  H140     1.0000 0.49994  0.82299  0.47478  Biso   1.000  H
  O19      1.0000 0.13703  0.89514  0.43082  Biso   1.000  O
  H141     1.0000 0.21384  0.21468  0.38748  Biso   1.000  H
  H142     1.0000 0.18745  0.11098  0.42220  Biso   1.000  H
  H143     1.0000 0.14912  0.09323  0.32658  Biso   1.000  H
  H144     1.0000 0.14961  0.20941  0.34939  Biso   1.000  H
  H145     1.0000 0.11059  0.11896  0.39202  Biso   1.000  H
  C124     1.0000 0.66833  0.13888  0.54097  Biso   1.000  C
  H146     1.0000 0.76861  0.06673  0.47941  Biso   1.000  H
  H147     1.0000 0.64621  0.01310  0.48590  Biso   1.000  H
  H148     1.0000 0.84822  0.36418  0.39700  Biso   1.000  H
  H149     1.0000 0.92145  0.27893  0.36339  Biso   1.000  H
  C125     1.0000 0.99101  0.31318  0.44727  Biso   1.000  C
  H150     1.0000 0.67788  0.78958  0.43638  Biso   1.000  H
  H151     1.0000 0.62131  0.68263  0.45540  Biso   1.000  H
  C126     1.0000 0.75182  0.66380  0.39575  Biso   1.000  C
  C127     1.0000 0.31448  0.91971  0.51661  Biso   1.000  C
  C128     1.0000 0.04109  0.88282  0.39068  Biso   1.000  C
  C129     1.0000 0.75800  0.14733  0.58365  Biso   1.000  C
  C130     1.0000 0.56072  0.18058  0.55400  Biso   1.000  C
  H152     1.0000 0.96029  0.33380  0.48510  Biso   1.000  H
  H153     1.0000 0.04339  0.36627  0.43358  Biso   1.000  H
  H154     1.0000 0.03277  0.24831  0.45198  Biso   1.000  H
  H155     1.0000 0.81255  0.65403  0.42598  Biso   1.000  H
  H156     1.0000 0.72519  0.59684  0.38130  Biso   1.000  H
  H157     1.0000 0.78206  0.70340  0.36299  Biso   1.000  H
  C131     1.0000 0.35918  0.86422  0.57200  Biso   1.000  C
  H158     1.0000 0.23133  0.93327  0.52061  Biso   1.000  H
  H159     1.0000 0.35373  0.98690  0.51408  Biso   1.000  H
  H160     1.0000 0.05721  0.91552  0.35250  Biso   1.000  H
  H161     1.0000 0.02558  0.80911  0.38379  Biso   1.000  H
  C132     1.0000 0.93808  0.93366  0.41811  Biso   1.000  C
  O20      1.0000 0.86291  0.10486  0.56916  Biso   1.000  O
  C133     1.0000 0.73739  0.19414  0.63823  Biso   1.000  C
  C134     1.0000 0.54054  0.22731  0.60836  Biso   1.000  C
  H162     1.0000 0.50000  0.17701  0.52519  Biso   1.000  H
  C135     1.0000 0.28857  0.79478  0.60152  Biso   1.000  C
  C136     1.0000 0.47004  0.88142  0.59476  Biso   1.000  C
  H163     1.0000 0.92519  0.90297  0.45669  Biso   1.000  H
  H164     1.0000 0.86973  0.92351  0.39251  Biso   1.000  H
  H165     1.0000 0.95276  0.00721  0.42278  Biso   1.000  H
  C137     1.0000 0.95885  0.11718  0.60929  Biso   1.000  C
  C138     1.0000 0.62946  0.23367  0.65166  Biso   1.000  C
  H166     1.0000 0.79853  0.19910  0.66668  Biso   1.000  H
  O21      1.0000 0.43489  0.26691  0.62365  Biso   1.000  O
  O22      1.0000 0.18046  0.77920  0.57556  Biso   1.000  O
  C139     1.0000 0.32865  0.74750  0.65370  Biso   1.000  C
  H167     1.0000 0.51844  0.92839  0.57538  Biso   1.000  H
  C140     1.0000 0.51206  0.83081  0.64588  Biso   1.000  C
  H168     1.0000 0.94273  0.08448  0.64748  Biso   1.000  H
  H169     1.0000 0.97436  0.19089  0.61618  Biso   1.000  H
  C141     1.0000 0.06187  0.06634  0.58191  Biso   1.000  C
  C142     1.0000 0.60744  0.27683  0.71304  Biso   1.000  C
  C143     1.0000 0.34791  0.27854  0.57805  Biso   1.000  C
  C144     1.0000 0.10830  0.70069  0.59796  Biso   1.000  C
  C145     1.0000 0.44020  0.76455  0.67637  Biso   1.000  C
  H170     1.0000 0.27892  0.70294  0.67402  Biso   1.000  H
  O23      1.0000 0.62062  0.84515  0.67077  Biso   1.000  O
  H171     1.0000 0.04718  0.99279  0.57720  Biso   1.000  H
  H172     1.0000 0.07475  0.09703  0.54328  Biso   1.000  H
  H173     1.0000 0.13021  0.07649  0.60752  Biso   1.000  H
  C146     1.0000 0.57405  0.39045  0.71633  Biso   1.000  C
  H174     1.0000 0.67782  0.26637  0.73789  Biso   1.000  H
  H175     1.0000 0.54557  0.23591  0.73051  Biso   1.000  H
  H176     1.0000 0.32206  0.21042  0.56360  Biso   1.000  H
  H177     1.0000 0.37863  0.31737  0.54462  Biso   1.000  H
  C147     1.0000 0.24812  0.33620  0.60427  Biso   1.000  C
  H178     1.0000 0.15172  0.63582  0.60298  Biso   1.000  H
  H179     1.0000 0.07849  0.72107  0.63659  Biso   1.000  H
  C148     1.0000 0.00893  0.68682  0.55271  Biso   1.000  C
  C149     1.0000 0.48303  0.71425  0.73394  Biso   1.000  C
  C150     1.0000 0.69952  0.91041  0.64494  Biso   1.000  C
  C151     1.0000 0.71390  0.87468  0.61681  Biso   1.000  C
  C152     1.0000 0.65617  0.46764  0.70673  Biso   1.000  C
  C153     1.0000 0.46335  0.41990  0.73136  Biso   1.000  C
  H180     1.0000 0.18739  0.34597  0.57400  Biso   1.000  H
  H181     1.0000 0.27475  0.40316  0.61872  Biso   1.000  H
  H182     1.0000 0.21788  0.29660  0.63699  Biso   1.000  H
  H183     1.0000 0.03965  0.66620  0.51488  Biso   1.000  H
  H184     1.0000 0.95655  0.63373  0.56640  Biso   1.000  H
  H185     1.0000 0.96717  0.75169  0.54800  Biso   1.000  H
  C154     1.0000 0.51464  0.60079  0.72709  Biso   1.000  C
  H186     1.0000 0.55145  0.75207  0.74918  Biso   1.000  H
  H187     1.0000 0.42257  0.72038  0.76341  Biso   1.000  H
  H188     1.0000 0.66055  0.97218  0.62881  Biso   1.000  H
  H189     1.0000 0.75932  0.93226  0.67419  Biso   1.000  H
  C155     1.0000 0.75249  0.84841  0.59609  Biso   1.000  C
  C156     1.0000 0.83698  0.86220  0.63921  Biso   1.000  C
  H190     1.0000 0.70106  0.94637  0.60378  Biso   1.000  H
  H191     1.0000 0.69284  0.83081  0.56640  Biso   1.000  H
  H192     1.0000 0.69944  0.82919  0.58249  Biso   1.000  H
  O24      1.0000 0.76466  0.43347  0.69251  Biso   1.000  O
  C157     1.0000 0.62597  0.57188  0.71247  Biso   1.000  C
  C158     1.0000 0.43277  0.52383  0.73656  Biso   1.000  C
  H193     1.0000 0.40745  0.36860  0.73829  Biso   1.000  H
  H194     1.0000 0.78610  0.78532  0.61250  Biso   1.000  H
  H195     1.0000 0.81249  0.88902  0.57778  Biso   1.000  H
  H196     1.0000 0.85082  0.90677  0.67339  Biso   1.000  H
  H197     1.0000 0.85033  0.79059  0.65059  Biso   1.000  H
  H198     1.0000 0.88935  0.88104  0.60801  Biso   1.000  H
  C159     1.0000 0.85296  0.50810  0.68451  Biso   1.000  C
  H199     1.0000 0.68218  0.62327  0.70629  Biso   1.000  H
  O25      1.0000 0.32437  0.55832  0.75078  Biso   1.000  O
  H200     1.0000 0.87037  0.54460  0.72189  Biso   1.000  H
  H201     1.0000 0.82800  0.55909  0.65450  Biso   1.000  H
  C160     1.0000 0.95876  0.45083  0.66446  Biso   1.000  C
  C161     1.0000 0.24117  0.48787  0.77150  Biso   1.000  C
  H202     1.0000 0.93919  0.41161  0.62881  Biso   1.000  H
  H203     1.0000 0.98560  0.40378  0.69557  Biso   1.000  H
  H204     1.0000 0.01969  0.50012  0.65610  Biso   1.000  H
  H205     1.0000 0.27296  0.44858  0.80550  Biso   1.000  H
  H206     1.0000 0.21786  0.43897  0.73998  Biso   1.000  H
  C162     1.0000 0.13933  0.55165  0.78950  Biso   1.000  C
  H207     1.0000 0.11173  0.59320  0.75598  Biso   1.000  H
  H208     1.0000 0.16262  0.59692  0.82208  Biso   1.000  H
  H209     1.0000 0.07751  0.50616  0.80199  Biso   1.000  H
  Ne1      1.0000 0.49997  0.50000  0.50000  Biso   1.000  Ne
  He1      1.0000 0.62617  0.48281  0.53855  Biso   1.000  He
  He2      1.0000 0.35746  0.53927  0.48058  Biso   1.000  He
  He3      1.0000 0.42576  0.30692  0.44807  Biso   1.000  He
  Ar1      1.0000 0.49996  0.49999  0.50000  Biso   1.000  Ar
  Ne2      1.0000 0.98789  0.99998  0.00986  Biso   1.000  Ne
  He4      1.0000 0.54426  0.14667  0.95569  Biso   1.000  He
  He5      1.0000 0.11855  0.03884  0.01648  Biso   1.000  He
  Ar2      1.0000 0.92814  0.93948  0.02827  Biso   1.000  Ar
