data_image0
_cell_length_a       11.524
_cell_length_b       12.903
_cell_length_c       22.507
_cell_angle_alpha    90
_cell_angle_beta     91.75
_cell_angle_gamma    90

_symmetry_space_group_name_H-M    "P 1"
_symmetry_int_tables_number       1

loop_
  _symmetry_equiv_pos_as_xyz
  'x, y, z'

loop_
  _atom_site_label
  _atom_site_occupancy
  _atom_site_fract_x
  _atom_site_fract_y
  _atom_site_fract_z
  _atom_site_thermal_displace_type
  _atom_site_B_iso_or_equiv
  _atom_site_type_symbol
  C1       1.0000 0.60744  0.27683  0.71304  Biso   1.000  C
  C2       1.0000 0.62946  0.23367  0.65166  Biso   1.000  C
  C3       1.0000 0.57405  0.39045  0.71633  Biso   1.000  C
  H1       1.0000 0.67782  0.26637  0.73789  Biso   1.000  H
  H2       1.0000 0.54557  0.23591  0.73051  Biso   1.000  H
  C4       1.0000 0.73739  0.19414  0.63823  Biso   1.000  C
  C5       1.0000 0.54054  0.22731  0.60836  Biso   1.000  C
  C6       1.0000 0.65617  0.46764  0.70673  Biso   1.000  C
  C7       1.0000 0.46335  0.41990  0.73136  Biso   1.000  C
  C8       1.0000 0.75800  0.14733  0.58365  Biso   1.000  C
  H3       1.0000 0.79853  0.19910  0.66668  Biso   1.000  H
  C9       1.0000 0.56072  0.18058  0.55400  Biso   1.000  C
  O1       1.0000 0.43489  0.26691  0.62365  Biso   1.000  O
  O2       1.0000 0.76466  0.43347  0.69251  Biso   1.000  O
  C10      1.0000 0.62597  0.57188  0.71247  Biso   1.000  C
  C11      1.0000 0.43277  0.52383  0.73656  Biso   1.000  C
  H4       1.0000 0.40745  0.36860  0.73829  Biso   1.000  H
  C12      1.0000 0.66833  0.13888  0.54097  Biso   1.000  C
  O3       1.0000 0.86291  0.10486  0.56916  Biso   1.000  O
  H5       1.0000 0.50000  0.17701  0.52519  Biso   1.000  H
  C13      1.0000 0.34791  0.27854  0.57805  Biso   1.000  C
  C14      1.0000 0.85296  0.50810  0.68451  Biso   1.000  C
  C15      1.0000 0.51464  0.60079  0.72709  Biso   1.000  C
  H6       1.0000 0.68218  0.62327  0.70629  Biso   1.000  H
  O4       1.0000 0.32437  0.55832  0.75078  Biso   1.000  O
  C16      1.0000 0.68546  0.08029  0.48341  Biso   1.000  C
  C17      1.0000 0.95885  0.11718  0.60929  Biso   1.000  C
  H7       1.0000 0.32206  0.21042  0.56360  Biso   1.000  H
  H8       1.0000 0.37863  0.31737  0.54462  Biso   1.000  H
  C18      1.0000 0.24812  0.33620  0.60427  Biso   1.000  C
  H9       1.0000 0.87037  0.54460  0.72189  Biso   1.000  H
  H10      1.0000 0.82800  0.55909  0.65450  Biso   1.000  H
  C19      1.0000 0.95876  0.45083  0.66446  Biso   1.000  C
  C20      1.0000 0.48303  0.71425  0.73394  Biso   1.000  C
  C21      1.0000 0.24117  0.48787  0.77150  Biso   1.000  C
  C22      1.0000 0.64076  0.13578  0.42798  Biso   1.000  C
  H11      1.0000 0.76861  0.06673  0.47941  Biso   1.000  H
  H12      1.0000 0.64621  0.01310  0.48590  Biso   1.000  H
  H13      1.0000 0.94273  0.08448  0.64748  Biso   1.000  H
  H14      1.0000 0.97436  0.19089  0.61618  Biso   1.000  H
  C23      1.0000 0.06187  0.06634  0.58191  Biso   1.000  C
  H15      1.0000 0.18739  0.34597  0.57400  Biso   1.000  H
  H16      1.0000 0.27475  0.40316  0.61872  Biso   1.000  H
  H17      1.0000 0.21788  0.29660  0.63699  Biso   1.000  H
  H18      1.0000 0.93919  0.41161  0.62881  Biso   1.000  H
  H19      1.0000 0.98560  0.40378  0.69557  Biso   1.000  H
  H20      1.0000 0.01969  0.50012  0.65610  Biso   1.000  H
  C24      1.0000 0.44020  0.76455  0.67637  Biso   1.000  C
  H21      1.0000 0.55145  0.75207  0.74918  Biso   1.000  H
  H22      1.0000 0.42257  0.72038  0.76341  Biso   1.000  H
  H23      1.0000 0.27296  0.44858  0.80550  Biso   1.000  H
  H24      1.0000 0.21786  0.43897  0.73998  Biso   1.000  H
  C25      1.0000 0.13933  0.55165  0.78950  Biso   1.000  C
  C26      1.0000 0.52990  0.11858  0.40522  Biso   1.000  C
  C27      1.0000 0.71137  0.20522  0.39846  Biso   1.000  C
  H25      1.0000 0.04718  0.99279  0.57720  Biso   1.000  H
  H26      1.0000 0.07475  0.09703  0.54328  Biso   1.000  H
  H27      1.0000 0.13013  0.07649  0.60752  Biso   1.000  H
  C28      1.0000 0.32865  0.74750  0.65370  Biso   1.000  C
  C29      1.0000 0.51206  0.83081  0.64588  Biso   1.000  C
  H28      1.0000 0.11173  0.59320  0.75598  Biso   1.000  H
  H29      1.0000 0.16262  0.59692  0.82208  Biso   1.000  H
  H30      1.0000 0.07751  0.50616  0.80199  Biso   1.000  H
  C30      1.0000 0.48788  0.16919  0.35410  Biso   1.000  C
  H31      1.0000 0.48150  0.07161  0.42460  Biso   1.000  H
  C31      1.0000 0.67130  0.25250  0.34632  Biso   1.000  C
  O5       1.0000 0.81940  0.22080  0.42442  Biso   1.000  O
  C32      1.0000 0.28857  0.79478  0.60152  Biso   1.000  C
  H32      1.0000 0.27892  0.70294  0.67402  Biso   1.000  H
  C33      1.0000 0.47004  0.88142  0.59476  Biso   1.000  C
  O6       1.0000 0.62062  0.84515  0.67077  Biso   1.000  O
  O7       1.0000 0.37932  0.15485  0.32921  Biso   1.000  O
  C34      1.0000 0.55974  0.23545  0.32361  Biso   1.000  C
  H33      1.0000 0.72102  0.29706  0.32601  Biso   1.000  H
  C35      1.0000 0.89165  0.29931  0.40206  Biso   1.000  C
  C36      1.0000 0.35918  0.86422  0.57200  Biso   1.000  C
  O8       1.0000 0.18046  0.77920  0.57556  Biso   1.000  O
  H34      1.0000 0.51844  0.92839  0.57538  Biso   1.000  H
  C37      1.0000 0.69952  0.91041  0.64494  Biso   1.000  C
  C38      1.0000 0.71390  0.87468  0.61681  Biso   1.000  C
  C39      1.0000 0.30042  0.08959  0.35503  Biso   1.000  C
  C40      1.0000 0.28605  0.12532  0.38322  Biso   1.000  C
  C41      1.0000 0.51691  0.28575  0.26604  Biso   1.000  C
  H35      1.0000 0.84822  0.36418  0.39700  Biso   1.000  H
  H36      1.0000 0.92145  0.27893  0.36339  Biso   1.000  H
  C42      1.0000 0.99101  0.31318  0.44727  Biso   1.000  C
  C43      1.0000 0.31448  0.91971  0.51661  Biso   1.000  C
  C44      1.0000 0.10830  0.70069  0.59796  Biso   1.000  C
  H37      1.0000 0.66055  0.97218  0.62881  Biso   1.000  H
  H38      1.0000 0.75932  0.93226  0.67419  Biso   1.000  H
  C45      1.0000 0.75249  0.84841  0.59609  Biso   1.000  C
  C46      1.0000 0.83698  0.86220  0.63921  Biso   1.000  C
  H39      1.0000 0.70106  0.94637  0.60378  Biso   1.000  H
  H40      1.0000 0.69284  0.83081  0.56640  Biso   1.000  H
  H41      1.0000 0.69944  0.82919  0.58249  Biso   1.000  H
  H42      1.0000 0.33939  0.02782  0.37121  Biso   1.000  H
  H43      1.0000 0.24062  0.06774  0.32578  Biso   1.000  H
  C47      1.0000 0.24745  0.15159  0.40389  Biso   1.000  C
  C48      1.0000 0.16296  0.13780  0.36081  Biso   1.000  C
  H44      1.0000 0.29888  0.05363  0.39619  Biso   1.000  H
  H45      1.0000 0.30710  0.16919  0.43358  Biso   1.000  H
  H46      1.0000 0.30050  0.17081  0.41749  Biso   1.000  H
  C49      1.0000 0.48530  0.39921  0.27289  Biso   1.000  C
  H47      1.0000 0.44849  0.24793  0.25079  Biso   1.000  H
  H48      1.0000 0.57737  0.27962  0.23661  Biso   1.000  H
  H49      1.0000 0.96029  0.33380  0.48510  Biso   1.000  H
  H50      1.0000 0.04339  0.36627  0.43358  Biso   1.000  H
  H51      1.0000 0.03277  0.24831  0.45198  Biso   1.000  H
  C50      1.0000 0.33161  0.86112  0.45905  Biso   1.000  C
  H52      1.0000 0.23133  0.93327  0.52061  Biso   1.000  H
  H53      1.0000 0.35373  0.98690  0.51408  Biso   1.000  H
  H54      1.0000 0.15172  0.63582  0.60298  Biso   1.000  H
  H55      1.0000 0.07849  0.72107  0.63659  Biso   1.000  H
  C51      1.0000 0.00893  0.68682  0.55271  Biso   1.000  C
  H56      1.0000 0.78610  0.78532  0.61250  Biso   1.000  H
  H57      1.0000 0.81249  0.88902  0.57778  Biso   1.000  H
  H58      1.0000 0.85082  0.90677  0.67339  Biso   1.000  H
  H59      1.0000 0.85033  0.79059  0.65059  Biso   1.000  H
  H60      1.0000 0.88935  0.88104  0.60801  Biso   1.000  H
  H61      1.0000 0.21384  0.21468  0.38748  Biso   1.000  H
  H62      1.0000 0.18745  0.11098  0.42220  Biso   1.000  H
  H63      1.0000 0.14912  0.09323  0.32658  Biso   1.000  H
  H64      1.0000 0.14961  0.20941  0.34939  Biso   1.000  H
  H65      1.0000 0.11059  0.11896  0.39202  Biso   1.000  H
  C52      1.0000 0.37397  0.42812  0.28751  Biso   1.000  C
  C53      1.0000 0.56717  0.47617  0.26342  Biso   1.000  C
  C54      1.0000 0.43913  0.81942  0.44598  Biso   1.000  C
  C55      1.0000 0.24194  0.85267  0.41633  Biso   1.000  C
  H66      1.0000 0.03965  0.66620  0.51488  Biso   1.000  H
  H67      1.0000 0.95655  0.63373  0.56640  Biso   1.000  H
  H68      1.0000 0.96717  0.75169  0.54800  Biso   1.000  H
  C56      1.0000 0.34377  0.53236  0.29329  Biso   1.000  C
  H69      1.0000 0.31776  0.37673  0.29369  Biso   1.000  H
  O9       1.0000 0.67557  0.44168  0.24919  Biso   1.000  O
  C57      1.0000 0.53659  0.58010  0.26862  Biso   1.000  C
  C58      1.0000 0.45940  0.77269  0.39162  Biso   1.000  C
  H70      1.0000 0.49994  0.82299  0.47478  Biso   1.000  H
  C59      1.0000 0.26255  0.80586  0.36179  Biso   1.000  C
  O10      1.0000 0.13703  0.89514  0.43082  Biso   1.000  O
  O11      1.0000 0.23528  0.56653  0.30751  Biso   1.000  O
  C60      1.0000 0.42589  0.60955  0.28364  Biso   1.000  C
  C61      1.0000 0.75877  0.51213  0.22852  Biso   1.000  C
  H71      1.0000 0.59249  0.63140  0.26169  Biso   1.000  H
  C62      1.0000 0.37048  0.76633  0.34832  Biso   1.000  C
  O12      1.0000 0.56505  0.73309  0.37633  Biso   1.000  O
  H72      1.0000 0.20141  0.80090  0.33330  Biso   1.000  H
  C63      1.0000 0.04109  0.88282  0.39068  Biso   1.000  C
  C64      1.0000 0.14699  0.49190  0.31552  Biso   1.000  C
  C65      1.0000 0.39251  0.72317  0.28698  Biso   1.000  C
  H73      1.0000 0.72698  0.55142  0.19452  Biso   1.000  H
  H74      1.0000 0.78208  0.56103  0.26000  Biso   1.000  H
  C66      1.0000 0.86061  0.44835  0.21052  Biso   1.000  C
  C67      1.0000 0.65203  0.72146  0.42193  Biso   1.000  C
  H75      1.0000 0.05721  0.91552  0.35250  Biso   1.000  H
  H76      1.0000 0.02558  0.80911  0.38379  Biso   1.000  H
  C68      1.0000 0.93808  0.93366  0.41811  Biso   1.000  C
  H77      1.0000 0.12957  0.45540  0.27809  Biso   1.000  H
  H78      1.0000 0.17194  0.44091  0.34548  Biso   1.000  H
  C69      1.0000 0.04119  0.54917  0.33556  Biso   1.000  C
  H79      1.0000 0.32212  0.73363  0.26209  Biso   1.000  H
  H80      1.0000 0.45438  0.76409  0.26951  Biso   1.000  H
  H81      1.0000 0.88821  0.40680  0.24399  Biso   1.000  H
  H82      1.0000 0.83732  0.40308  0.17789  Biso   1.000  H
  H83      1.0000 0.92243  0.49384  0.19799  Biso   1.000  H
  H84      1.0000 0.67788  0.78958  0.43638  Biso   1.000  H
  H85      1.0000 0.62131  0.68263  0.45540  Biso   1.000  H
  C70      1.0000 0.75182  0.66380  0.39575  Biso   1.000  C
  H86      1.0000 0.92519  0.90297  0.45669  Biso   1.000  H
  H87      1.0000 0.86982  0.92351  0.39251  Biso   1.000  H
  H88      1.0000 0.95276  0.00721  0.42278  Biso   1.000  H
  H89      1.0000 0.06076  0.58839  0.37121  Biso   1.000  H
  H90      1.0000 0.01434  0.59622  0.30440  Biso   1.000  H
  H91      1.0000 0.98025  0.49988  0.34392  Biso   1.000  H
  H92      1.0000 0.81255  0.65403  0.42598  Biso   1.000  H
  H93      1.0000 0.72519  0.59684  0.38130  Biso   1.000  H
  H94      1.0000 0.78206  0.70340  0.36299  Biso   1.000  H
  O13      1.0000 0.87929  0.34511  0.82920  Biso   1.000  O
  C71      1.0000 0.98785  0.33085  0.85409  Biso   1.000  C
  C72      1.0000 0.80039  0.41037  0.85502  Biso   1.000  C
  C73      1.0000 0.78602  0.37472  0.88320  Biso   1.000  C
  C74      1.0000 0.05971  0.26451  0.82359  Biso   1.000  C
  C75      1.0000 0.02987  0.38146  0.90521  Biso   1.000  C
  H95      1.0000 0.83936  0.47222  0.87120  Biso   1.000  H
  H96      1.0000 0.74059  0.43230  0.82582  Biso   1.000  H
  C76      1.0000 0.74742  0.34837  0.90387  Biso   1.000  C
  C77      1.0000 0.66293  0.36216  0.86080  Biso   1.000  C
  H97      1.0000 0.79885  0.44641  0.89618  Biso   1.000  H
  H98      1.0000 0.80707  0.33078  0.93361  Biso   1.000  H
  H99      1.0000 0.80047  0.32923  0.91748  Biso   1.000  H
  C78      1.0000 0.01679  0.21429  0.76603  Biso   1.000  C
  C79      1.0000 0.17127  0.24746  0.84631  Biso   1.000  C
  H100     1.0000 0.98147  0.42843  0.92459  Biso   1.000  H
  C80      1.0000 0.14065  0.36418  0.92801  Biso   1.000  C
  H101     1.0000 0.71382  0.28528  0.88752  Biso   1.000  H
  H102     1.0000 0.68742  0.38898  0.92219  Biso   1.000  H
  H103     1.0000 0.64901  0.40680  0.82662  Biso   1.000  H
  H104     1.0000 0.64958  0.29063  0.84938  Biso   1.000  H
  H105     1.0000 0.61056  0.38100  0.89201  Biso   1.000  H
  C81      1.0000 0.98527  0.10075  0.77288  Biso   1.000  C
  H106     1.0000 0.94846  0.25211  0.75078  Biso   1.000  H
  H107     1.0000 0.07734  0.22041  0.73660  Biso   1.000  H
  C82      1.0000 0.21126  0.29482  0.89850  Biso   1.000  C
  H108     1.0000 0.22091  0.20290  0.82600  Biso   1.000  H
  C83      1.0000 0.18543  0.41975  0.98340  Biso   1.000  C
  C84      1.0000 0.87394  0.07192  0.78750  Biso   1.000  C
  C85      1.0000 0.06714  0.02387  0.76345  Biso   1.000  C
  O14      1.0000 0.31937  0.27924  0.92441  Biso   1.000  O
  H109     1.0000 0.26850  0.43331  0.97940  Biso   1.000  H
  H110     1.0000 0.14610  0.48686  0.98589  Biso   1.000  H
  C86      1.0000 0.16839  0.36116  0.04101  Biso   1.000  C
  C87      1.0000 0.84374  0.96760  0.79328  Biso   1.000  C
  H111     1.0000 0.81773  0.12330  0.79368  Biso   1.000  H
  C88      1.0000 0.03656  0.91986  0.76861  Biso   1.000  C
  O15      1.0000 0.17554  0.05828  0.74918  Biso   1.000  O
  C89      1.0000 0.39162  0.20073  0.90205  Biso   1.000  C
  C90      1.0000 0.25806  0.35271  0.08368  Biso   1.000  C
  C91      1.0000 0.06087  0.31946  0.05403  Biso   1.000  C
  O16      1.0000 0.73525  0.93350  0.80750  Biso   1.000  O
  C92      1.0000 0.92586  0.89041  0.78368  Biso   1.000  C
  H112     1.0000 0.09246  0.86864  0.76167  Biso   1.000  H
  C93      1.0000 0.25874  0.98791  0.72851  Biso   1.000  C
  H113     1.0000 0.34810  0.13578  0.89698  Biso   1.000  H
  H114     1.0000 0.42142  0.22111  0.86338  Biso   1.000  H
  C94      1.0000 0.49098  0.18678  0.94726  Biso   1.000  C
  O17      1.0000 0.36297  0.39518  0.06919  Biso   1.000  O
  C95      1.0000 0.23745  0.30582  0.13822  Biso   1.000  C
  C96      1.0000 0.04060  0.27265  0.10839  Biso   1.000  C
  H115     1.0000 0.00006  0.32303  0.02523  Biso   1.000  H
  C97      1.0000 0.64696  0.00814  0.81550  Biso   1.000  C
  C98      1.0000 0.89248  0.77680  0.78697  Biso   1.000  C
  H116     1.0000 0.22695  0.94862  0.69451  Biso   1.000  H
  H117     1.0000 0.28205  0.93901  0.75998  Biso   1.000  H
  C99      1.0000 0.36058  0.05169  0.71051  Biso   1.000  C
  H118     1.0000 0.54336  0.13369  0.93361  Biso   1.000  H
  H119     1.0000 0.53274  0.25172  0.95201  Biso   1.000  H
  H120     1.0000 0.46026  0.16616  0.98509  Biso   1.000  H
  C100     1.0000 0.45891  0.38286  0.10933  Biso   1.000  C
  C101     1.0000 0.12952  0.26637  0.15169  Biso   1.000  C
  H121     1.0000 0.29859  0.30094  0.16671  Biso   1.000  H
  O18      1.0000 0.93495  0.23312  0.12369  Biso   1.000  O
  H122     1.0000 0.62954  0.04456  0.77808  Biso   1.000  H
  H123     1.0000 0.67191  0.05913  0.84551  Biso   1.000  H
  C102     1.0000 0.54116  0.95079  0.83555  Biso   1.000  C
  C103     1.0000 0.87045  0.73363  0.84831  Biso   1.000  C
  H124     1.0000 0.82209  0.76641  0.76207  Biso   1.000  H
  H125     1.0000 0.95435  0.73588  0.76950  Biso   1.000  H
  H126     1.0000 0.38818  0.09323  0.74398  Biso   1.000  H
  H127     1.0000 0.33729  0.09688  0.67788  Biso   1.000  H
  H128     1.0000 0.42231  0.00620  0.69798  Biso   1.000  H
  H129     1.0000 0.44279  0.41548  0.14751  Biso   1.000  H
  H130     1.0000 0.47442  0.30908  0.11622  Biso   1.000  H
  C104     1.0000 0.56193  0.43362  0.08195  Biso   1.000  C
  C105     1.0000 0.10750  0.22320  0.21308  Biso   1.000  C
  C106     1.0000 0.84797  0.22150  0.07808  Biso   1.000  C
  H131     1.0000 0.48022  0.00008  0.84391  Biso   1.000  H
  H132     1.0000 0.56073  0.91157  0.87120  Biso   1.000  H
  H133     1.0000 0.51431  0.90382  0.80439  Biso   1.000  H
  C107     1.0000 0.95937  0.72735  0.89161  Biso   1.000  C
  C108     1.0000 0.76252  0.69418  0.86178  Biso   1.000  C
  H134     1.0000 0.57481  0.40301  0.04332  Biso   1.000  H
  H135     1.0000 0.54724  0.50717  0.07723  Biso   1.000  H
  H136     1.0000 0.63027  0.42347  0.10751  Biso   1.000  H
  C109     1.0000 0.07411  0.10959  0.21637  Biso   1.000  C
  H137     1.0000 0.17788  0.23359  0.23793  Biso   1.000  H
  H138     1.0000 0.04562  0.26412  0.23050  Biso   1.000  H
  H139     1.0000 0.82212  0.28962  0.06363  Biso   1.000  H
  H140     1.0000 0.87877  0.18259  0.04461  Biso   1.000  H
  C110     1.0000 0.74818  0.16384  0.10426  Biso   1.000  C
  C111     1.0000 0.93910  0.68054  0.94597  Biso   1.000  C
  O19      1.0000 0.06502  0.76688  0.87631  Biso   1.000  O
  C112     1.0000 0.74191  0.64729  0.91632  Biso   1.000  C
  H141     1.0000 0.70138  0.69906  0.83329  Biso   1.000  H
  C113     1.0000 0.96341  0.08014  0.23139  Biso   1.000  C
  C114     1.0000 0.15623  0.03240  0.20672  Biso   1.000  C
  H142     1.0000 0.68745  0.15400  0.07403  Biso   1.000  H
  H143     1.0000 0.77481  0.09680  0.11871  Biso   1.000  H
  H144     1.0000 0.71794  0.20336  0.13702  Biso   1.000  H
  C115     1.0000 0.83158  0.63884  0.95904  Biso   1.000  C
  H145     1.0000 0.99991  0.67697  0.97477  Biso   1.000  H
  C116     1.0000 0.15200  0.77850  0.92197  Biso   1.000  C
  O20      1.0000 0.63700  0.60482  0.93081  Biso   1.000  O
  C117     1.0000 0.93283  0.97613  0.23659  Biso   1.000  C
  H146     1.0000 0.90751  0.13136  0.23833  Biso   1.000  H
  C118     1.0000 0.12603  0.92808  0.21250  Biso   1.000  C
  O21      1.0000 0.26472  0.06650  0.19254  Biso   1.000  O
  C119     1.0000 0.81454  0.58025  0.01665  Biso   1.000  C
  H147     1.0000 0.17786  0.71038  0.93641  Biso   1.000  H
  H148     1.0000 0.12120  0.81741  0.95539  Biso   1.000  H
  C120     1.0000 0.25179  0.83616  0.89574  Biso   1.000  C
  C121     1.0000 0.54106  0.61714  0.89072  Biso   1.000  C
  C122     1.0000 0.01470  0.89925  0.22712  Biso   1.000  C
  O22      1.0000 0.82443  0.94172  0.25082  Biso   1.000  O
  H149     1.0000 0.18224  0.87670  0.20632  Biso   1.000  H
  C123     1.0000 0.35302  0.99186  0.18454  Biso   1.000  C
  C124     1.0000 0.85932  0.63582  0.07203  Biso   1.000  C
  H150     1.0000 0.73147  0.56669  0.02060  Biso   1.000  H
  H151     1.0000 0.85387  0.51314  0.01411  Biso   1.000  H
  H152     1.0000 0.31252  0.84600  0.92601  Biso   1.000  H
  H153     1.0000 0.22516  0.90320  0.88129  Biso   1.000  H
  H154     1.0000 0.28203  0.79664  0.86298  Biso   1.000  H
  H155     1.0000 0.55718  0.58452  0.85249  Biso   1.000  H
  H156     1.0000 0.52555  0.69092  0.88378  Biso   1.000  H
  C125     1.0000 0.43805  0.56638  0.91810  Biso   1.000  C
  C126     1.0000 0.98318  0.78571  0.23397  Biso   1.000  C
  C127     1.0000 0.74123  0.01209  0.27149  Biso   1.000  C
  H157     1.0000 0.37043  0.95544  0.22192  Biso   1.000  H
  H158     1.0000 0.32806  0.94087  0.15454  Biso   1.000  H
  C128     1.0000 0.45882  0.04921  0.16449  Biso   1.000  C
  C129     1.0000 0.78871  0.70518  0.10155  Biso   1.000  C
  C130     1.0000 0.97010  0.61854  0.09479  Biso   1.000  C
  H159     1.0000 0.42516  0.59699  0.95668  Biso   1.000  H
  H160     1.0000 0.45273  0.49283  0.92281  Biso   1.000  H
  H161     1.0000 0.36970  0.57653  0.89249  Biso   1.000  H
  C131     1.0000 0.94026  0.73549  0.17641  Biso   1.000  C
  H162     1.0000 0.92263  0.77959  0.26344  Biso   1.000  H
  H163     1.0000 0.05151  0.74789  0.24922  Biso   1.000  H
  C132     1.0000 0.63939  0.94831  0.28949  Biso   1.000  C
  H164     1.0000 0.77302  0.05138  0.30554  Biso   1.000  H
  H165     1.0000 0.71792  0.06099  0.24001  Biso   1.000  H
  H166     1.0000 0.51975  0.99992  0.15614  Biso   1.000  H
  H167     1.0000 0.43925  0.08843  0.12884  Biso   1.000  H
  H168     1.0000 0.48566  0.09618  0.19561  Biso   1.000  H
  O23      1.0000 0.68060  0.72076  0.07559  Biso   1.000  O
  C133     1.0000 0.82870  0.75254  0.15369  Biso   1.000  C
  H169     1.0000 0.01850  0.57157  0.07541  Biso   1.000  H
  C134     1.0000 0.01212  0.66915  0.14591  Biso   1.000  C
  H170     1.0000 0.61179  0.90677  0.25602  Biso   1.000  H
  H171     1.0000 0.66268  0.90312  0.32212  Biso   1.000  H
  H172     1.0000 0.57766  0.99380  0.30202  Biso   1.000  H
  C135     1.0000 0.60836  0.79927  0.09799  Biso   1.000  C
  H173     1.0000 0.77906  0.79710  0.17400  Biso   1.000  H
  O24      1.0000 0.12068  0.65489  0.17080  Biso   1.000  O
  H174     1.0000 0.65187  0.86422  0.10302  Biso   1.000  H
  H175     1.0000 0.57855  0.77889  0.13662  Biso   1.000  H
  C136     1.0000 0.50899  0.81322  0.05274  Biso   1.000  C
  C137     1.0000 0.19958  0.58963  0.14498  Biso   1.000  C
  C138     1.0000 0.21396  0.62528  0.11684  Biso   1.000  C
  H176     1.0000 0.45661  0.86631  0.06643  Biso   1.000  H
  H177     1.0000 0.46723  0.74828  0.04803  Biso   1.000  H
  H178     1.0000 0.53971  0.83384  0.01491  Biso   1.000  H
  H179     1.0000 0.16061  0.52778  0.12884  Biso   1.000  H
  H180     1.0000 0.25938  0.56770  0.17423  Biso   1.000  H
  C139     1.0000 0.25255  0.65163  0.09613  Biso   1.000  C
  C140     1.0000 0.33704  0.63784  0.13920  Biso   1.000  C
  H181     1.0000 0.20112  0.55359  0.10382  Biso   1.000  H
  H182     1.0000 0.19290  0.66922  0.06643  Biso   1.000  H
  H183     1.0000 0.19950  0.67077  0.08252  Biso   1.000  H
  H184     1.0000 0.28616  0.71472  0.11253  Biso   1.000  H
  H185     1.0000 0.31255  0.61102  0.07781  Biso   1.000  H
  H186     1.0000 0.35088  0.59320  0.17343  Biso   1.000  H
  H187     1.0000 0.35039  0.70937  0.15062  Biso   1.000  H
  H188     1.0000 0.38941  0.61900  0.10804  Biso   1.000  H
