data_image0
_cell_length_a       14.065
_cell_length_b       21.414
_cell_length_c       21.84
_cell_angle_alpha    76.97
_cell_angle_beta     84.47
_cell_angle_gamma    84.14

_symmetry_space_group_name_H-M    "P 1"
_symmetry_int_tables_number       1

loop_
  _symmetry_equiv_pos_as_xyz
  'x, y, z'

loop_
  _atom_site_label
  _atom_site_occupancy
  _atom_site_fract_x
  _atom_site_fract_y
  _atom_site_fract_z
  _atom_site_thermal_displace_type
  _atom_site_B_iso_or_equiv
  _atom_site_type_symbol
  C1       1.0000 0.44570  0.81163  0.68790  Biso   1.000  C
  C2       1.0000 0.37949  0.80215  0.74729  Biso   1.000  C
  H1       1.0000 0.51151  0.79767  0.69922  Biso   1.000  H
  H2       1.0000 0.42861  0.78408  0.66108  Biso   1.000  H
  C3       1.0000 0.44272  0.88086  0.65015  Biso   1.000  C
  C4       1.0000 0.28310  0.79396  0.74569  Biso   1.000  C
  C5       1.0000 0.41404  0.79964  0.80503  Biso   1.000  C
  C6       1.0000 0.38553  0.90098  0.59995  Biso   1.000  C
  C7       1.0000 0.49642  0.92546  0.66495  Biso   1.000  C
  O1       1.0000 0.25355  0.79363  0.68738  Biso   1.000  O
  C8       1.0000 0.22288  0.78648  0.80046  Biso   1.000  C
  C9       1.0000 0.35403  0.79115  0.85994  Biso   1.000  C
  H3       1.0000 0.47941  0.80383  0.80710  Biso   1.000  H
  H4       1.0000 0.34850  0.87134  0.58930  Biso   1.000  H
  C10      1.0000 0.38149  0.96388  0.56493  Biso   1.000  C
  O2       1.0000 0.55228  0.90312  0.71538  Biso   1.000  O
  C11      1.0000 0.49389  0.98804  0.62922  Biso   1.000  C
  C12      1.0000 0.15913  0.77793  0.68281  Biso   1.000  C
  H5       1.0000 0.15757  0.78163  0.79862  Biso   1.000  H
  C13      1.0000 0.25700  0.78605  0.85796  Biso   1.000  C
  O3       1.0000 0.38671  0.78835  0.91857  Biso   1.000  O
  O4       1.0000 0.32508  0.98547  0.51469  Biso   1.000  O
  C14      1.0000 0.43659  0.00817  0.57879  Biso   1.000  C
  C15      1.0000 0.60492  0.94656  0.73518  Biso   1.000  C
  H6       1.0000 0.53159  0.01746  0.63940  Biso   1.000  H
  C16      1.0000 0.14477  0.78425  0.61489  Biso   1.000  C
  H7       1.0000 0.15062  0.73384  0.70610  Biso   1.000  H
  H8       1.0000 0.11220  0.80715  0.70091  Biso   1.000  H
  C17      1.0000 0.18712  0.78469  0.91584  Biso   1.000  C
  C18      1.0000 0.48482  0.78053  0.92484  Biso   1.000  C
  C19      1.0000 0.27560  0.93894  0.49551  Biso   1.000  C
  C20      1.0000 0.43370  0.07785  0.54236  Biso   1.000  C
  H9       1.0000 0.65088  0.96545  0.70110  Biso   1.000  H
  H10      1.0000 0.56192  0.98136  0.74738  Biso   1.000  H
  C21      1.0000 0.65668  0.90864  0.79070  Biso   1.000  C
  H11      1.0000 0.08119  0.77277  0.61079  Biso   1.000  H
  H12      1.0000 0.15157  0.82837  0.59251  Biso   1.000  H
  H13      1.0000 0.19236  0.75583  0.59722  Biso   1.000  H
  C22      1.0000 0.14821  0.85235  0.92126  Biso   1.000  C
  H14      1.0000 0.21958  0.76355  0.95369  Biso   1.000  H
  H15      1.0000 0.13370  0.75962  0.91310  Biso   1.000  H
  H16      1.0000 0.51192  0.74044  0.91320  Biso   1.000  H
  H17      1.0000 0.51590  0.81626  0.89670  Biso   1.000  H
  C23      1.0000 0.50242  0.77863  0.99167  Biso   1.000  C
  H18      1.0000 0.32146  0.90497  0.48420  Biso   1.000  H
  H19      1.0000 0.23099  0.91916  0.53001  Biso   1.000  H
  C24      1.0000 0.22223  0.97254  0.43998  Biso   1.000  C
  H20      1.0000 0.40870  0.08106  0.50130  Biso   1.000  H
  H21      1.0000 0.49893  0.09167  0.53491  Biso   1.000  H
  C25      1.0000 0.37111  0.12184  0.57804  Biso   1.000  C
  H22      1.0000 0.61033  0.89153  0.82459  Biso   1.000  H
  H23      1.0000 0.69728  0.87346  0.77830  Biso   1.000  H
  H24      1.0000 0.69593  0.93654  0.80498  Biso   1.000  H
  C26      1.0000 0.05393  0.87468  0.91329  Biso   1.000  C
  C27      1.0000 0.20861  0.89483  0.93248  Biso   1.000  C
  H25      1.0000 0.57070  0.77815  0.99530  Biso   1.000  H
  H26      1.0000 0.47840  0.74018  0.01873  Biso   1.000  H
  H27      1.0000 0.46956  0.81638  0.00431  Biso   1.000  H
  H28      1.0000 0.26697  0.99176  0.40610  Biso   1.000  H
  H29      1.0000 0.18802  0.94176  0.42599  Biso   1.000  H
  H30      1.0000 0.17660  0.00587  0.45182  Biso   1.000  H
  C28      1.0000 0.27340  0.13254  0.57087  Biso   1.000  C
  C29      1.0000 0.40851  0.15016  0.62088  Biso   1.000  C
  C30      1.0000 0.02464  0.93870  0.91376  Biso   1.000  C
  O5       1.0000 0.99366  0.83180  0.90302  Biso   1.000  O
  H31      1.0000 0.27290  0.88035  0.93931  Biso   1.000  H
  C31      1.0000 0.17826  0.95782  0.93398  Biso   1.000  C
  H32      1.0000 0.24753  0.11517  0.54090  Biso   1.000  H
  C32      1.0000 0.21290  0.16805  0.60669  Biso   1.000  C
  O6       1.0000 0.50641  0.14094  0.62475  Biso   1.000  O
  C33      1.0000 0.34720  0.18473  0.65731  Biso   1.000  C
  C34      1.0000 0.08510  0.98086  0.92347  Biso   1.000  C
  H33      1.0000 0.96041  0.95351  0.90712  Biso   1.000  H
  C35      1.0000 0.89431  0.84535  0.91621  Biso   1.000  C
  O7       1.0000 0.25201  0.99695  0.92691  Biso   1.000  O
  O8       1.0000 0.22215  0.00415  0.96358  Biso   1.000  O
  O9       1.0000 0.11536  0.17933  0.60156  Biso   1.000  O
  C36      1.0000 0.24972  0.19388  0.65166  Biso   1.000  C
  C37      1.0000 0.54974  0.17742  0.65981  Biso   1.000  C
  H34      1.0000 0.37319  0.20255  0.68701  Biso   1.000  H
  C38      1.0000 0.05071  0.05031  0.92338  Biso   1.000  C
  H35      1.0000 0.88194  0.85192  0.95929  Biso   1.000  H
  H36      1.0000 0.87137  0.88464  0.88709  Biso   1.000  H
  C39      1.0000 0.84270  0.78994  0.90910  Biso   1.000  C
  C40      1.0000 0.35260  0.98165  0.90302  Biso   1.000  C
  C41      1.0000 0.30056  0.97974  0.99950  Biso   1.000  C
  C42      1.0000 0.07584  0.16926  0.54782  Biso   1.000  C
  C43      1.0000 0.18461  0.22916  0.69422  Biso   1.000  C
  H37      1.0000 0.53114  0.22334  0.64520  Biso   1.000  H
  H38      1.0000 0.52880  0.16475  0.70459  Biso   1.000  H
  C44      1.0000 0.65609  0.16446  0.65010  Biso   1.000  C
  H39      1.0000 0.98050  0.05435  0.92800  Biso   1.000  H
  C45      1.0000 0.08425  0.09753  0.86404  Biso   1.000  C
  H40      1.0000 0.07373  0.06195  0.95991  Biso   1.000  H
  H41      1.0000 0.86272  0.75184  0.93988  Biso   1.000  H
  H42      1.0000 0.77418  0.79993  0.91570  Biso   1.000  H
  H43      1.0000 0.85787  0.78225  0.86701  Biso   1.000  H
  H44      1.0000 0.39184  0.96706  0.93907  Biso   1.000  H
  H45      1.0000 0.35374  0.94582  0.88171  Biso   1.000  H
  H46      1.0000 0.34110  0.99923  0.85560  Biso   1.000  H
  C46      1.0000 0.39825  0.03814  0.85711  Biso   1.000  C
  H47      1.0000 0.35070  0.95982  0.97400  Biso   1.000  H
  H48      1.0000 0.28027  0.94660  0.03603  Biso   1.000  H
  C47      1.0000 0.33802  0.03110  0.02080  Biso   1.000  C
  C48      1.0000 0.97138  0.19237  0.55240  Biso   1.000  C
  H49      1.0000 0.10814  0.19335  0.50932  Biso   1.000  H
  H50      1.0000 0.08332  0.12348  0.54679  Biso   1.000  H
  C49      1.0000 0.14951  0.18373  0.75455  Biso   1.000  C
  H51      1.0000 0.21932  0.26215  0.70501  Biso   1.000  H
  H52      1.0000 0.12922  0.25088  0.67169  Biso   1.000  H
  H53      1.0000 0.68754  0.18524  0.67678  Biso   1.000  H
  H54      1.0000 0.67308  0.11847  0.66080  Biso   1.000  H
  H55      1.0000 0.67683  0.18114  0.60632  Biso   1.000  H
  C50      1.0000 0.03995  0.10593  0.80828  Biso   1.000  C
  C51      1.0000 0.16142  0.13273  0.86385  Biso   1.000  C
  H56      1.0000 0.38085  0.07746  0.87219  Biso   1.000  H
  H57      1.0000 0.46743  0.02965  0.85452  Biso   1.000  H
  H58      1.0000 0.37533  0.04305  0.81559  Biso   1.000  H
  C52      1.0000 0.47823  0.02745  0.85301  Biso   1.000  C
  C53      1.0000 0.39169  0.01152  0.82308  Biso   1.000  C
  H59      1.0000 0.36384  0.06154  0.98479  Biso   1.000  H
  H60      1.0000 0.28697  0.05278  0.04343  Biso   1.000  H
  H61      1.0000 0.38847  0.01318  0.04861  Biso   1.000  H
  C54      1.0000 0.39137  0.01249  0.08132  Biso   1.000  C
  C55      1.0000 0.33712  0.06640  0.04192  Biso   1.000  C
  H62      1.0000 0.32233  0.05398  0.00402  Biso   1.000  H
  H63      1.0000 0.94008  0.16806  0.59062  Biso   1.000  H
  H64      1.0000 0.96503  0.23767  0.55348  Biso   1.000  H
  H65      1.0000 0.94163  0.18635  0.51610  Biso   1.000  H
  C56      1.0000 0.07223  0.14900  0.75455  Biso   1.000  C
  C57      1.0000 0.19482  0.17496  0.80965  Biso   1.000  C
  O10      1.0000 0.96168  0.07131  0.81092  Biso   1.000  O
  H66      1.0000 0.19211  0.12805  0.90118  Biso   1.000  H
  C58      1.0000 0.52971  0.97645  0.89029  Biso   1.000  C
  C59      1.0000 0.50582  0.08952  0.84410  Biso   1.000  C
  H67      1.0000 0.41090  0.97633  0.80211  Biso   1.000  H
  H68      1.0000 0.36883  0.04902  0.79249  Biso   1.000  H
  C60      1.0000 0.36379  0.95039  0.09013  Biso   1.000  C
  C61      1.0000 0.47037  0.02350  0.10969  Biso   1.000  C
  H69      1.0000 0.37507  0.10318  0.03042  Biso   1.000  H
  H70      1.0000 0.27800  0.07761  0.06520  Biso   1.000  H
  H71      1.0000 0.04073  0.15453  0.71741  Biso   1.000  H
  O11      1.0000 0.27409  0.20900  0.80710  Biso   1.000  O
  C62      1.0000 0.91587  0.07675  0.75412  Biso   1.000  C
  C63      1.0000 0.60871  0.98746  0.91871  Biso   1.000  C
  H72      1.0000 0.51103  0.93447  0.89628  Biso   1.000  H
  H73      1.0000 0.47110  0.12404  0.81889  Biso   1.000  H
  C64      1.0000 0.58493  0.10065  0.87262  Biso   1.000  C
  C65      1.0000 0.41522  0.89930  0.12742  Biso   1.000  C
  H74      1.0000 0.31040  0.94291  0.07081  Biso   1.000  H
  C66      1.0000 0.52191  0.97249  0.14702  Biso   1.000  C
  H75      1.0000 0.48913  0.06549  0.10371  Biso   1.000  H
  C67      1.0000 0.31286  0.21023  0.86409  Biso   1.000  C
  H76      1.0000 0.89292  0.12154  0.73739  Biso   1.000  H
  H77      1.0000 0.96077  0.06196  0.72222  Biso   1.000  H
  C68      1.0000 0.83283  0.03506  0.77081  Biso   1.000  C
  C69      1.0000 0.66213  0.96885  0.97918  Biso   1.000  C
  H78      1.0000 0.61162  0.98672  0.95138  Biso   1.000  H
  C70      1.0000 0.66303  0.93354  0.95812  Biso   1.000  C
  C71      1.0000 0.63628  0.04955  0.90990  Biso   1.000  C
  H79      1.0000 0.60364  0.14255  0.86658  Biso   1.000  H
  C72      1.0000 0.49426  0.91038  0.15593  Biso   1.000  C
  H80      1.0000 0.39652  0.85741  0.13340  Biso   1.000  H
  C73      1.0000 0.60190  0.96181  0.14292  Biso   1.000  C
  C74      1.0000 0.60840  0.98838  0.17691  Biso   1.000  C
  H81      1.0000 0.26412  0.22771  0.89232  Biso   1.000  H
  H82      1.0000 0.33565  0.16663  0.88539  Biso   1.000  H
  C75      1.0000 0.39460  0.25236  0.84712  Biso   1.000  C
  H83      1.0000 0.85590  0.99185  0.79122  Biso   1.000  H
  H84      1.0000 0.78588  0.05275  0.79918  Biso   1.000  H
  H85      1.0000 0.80353  0.03387  0.73268  Biso   1.000  H
  H86      1.0000 0.71312  0.94711  0.95661  Biso   1.000  H
  H87      1.0000 0.67783  0.94591  0.99601  Biso   1.000  H
  H88      1.0000 0.63631  0.93841  0.01519  Biso   1.000  H
  C76      1.0000 0.69959  0.02021  0.00054  Biso   1.000  C
  H89      1.0000 0.62501  0.89671  0.96962  Biso   1.000  H
  H90      1.0000 0.72208  0.92234  0.93479  Biso   1.000  H
  H91      1.0000 0.68975  0.05705  0.92918  Biso   1.000  H
  H92      1.0000 0.52899  0.87586  0.18110  Biso   1.000  H
  H93      1.0000 0.61930  0.92250  0.12779  Biso   1.000  H
  H94      1.0000 0.53272  0.97029  0.14552  Biso   1.000  H
  H95      1.0000 0.62482  0.95691  0.18440  Biso   1.000  H
  C77      1.0000 0.64748  0.01829  0.09702  Biso   1.000  C
  H96      1.0000 0.65898  0.00067  0.14443  Biso   1.000  H
  H97      1.0000 0.63126  0.95088  0.20750  Biso   1.000  H
  H98      1.0000 0.58919  0.02357  0.19793  Biso   1.000  H
  H99      1.0000 0.41782  0.25922  0.88530  Biso   1.000  H
  H100     1.0000 0.44602  0.23154  0.82398  Biso   1.000  H
  H101     1.0000 0.37291  0.29332  0.82119  Biso   1.000  H
  O12      1.0000 0.77800  0.99581  0.03640  Biso   1.000  O
  H102     1.0000 0.71981  0.05334  0.96401  Biso   1.000  H
  O13      1.0000 0.74807  0.00300  0.07312  Biso   1.000  O
  H103     1.0000 0.64939  0.04008  0.02603  Biso   1.000  H
  H104     1.0000 0.60831  0.03289  0.06091  Biso   1.000  H
  H105     1.0000 0.64641  0.05407  0.11832  Biso   1.000  H
  C78      1.0000 0.82190  0.04209  0.06600  Biso   1.000  C
  C79      1.0000 0.91498  0.01904  0.07656  Biso   1.000  C
  C80      1.0000 0.79148  0.10508  0.06751  Biso   1.000  C
  C81      1.0000 0.94937  0.94959  0.07665  Biso   1.000  C
  C82      1.0000 0.97551  0.06124  0.08627  Biso   1.000  C
  C83      1.0000 0.85187  0.14760  0.07873  Biso   1.000  C
  H106     1.0000 0.72718  0.11959  0.06072  Biso   1.000  H
  C84      1.0000 0.91591  0.90237  0.13599  Biso   1.000  C
  H107     1.0000 0.92635  0.93799  0.04013  Biso   1.000  H
  H108     1.0000 0.01958  0.94559  0.07204  Biso   1.000  H
  C85      1.0000 0.94616  0.12523  0.08669  Biso   1.000  C
  H109     1.0000 0.03968  0.04639  0.09292  Biso   1.000  H
  C86      1.0000 0.81302  0.21526  0.08420  Biso   1.000  C
  C87      1.0000 0.96020  0.89396  0.19175  Biso   1.000  C
  C88      1.0000 0.83866  0.86721  0.13618  Biso   1.000  C
  O14      1.0000 0.00650  0.16810  0.09697  Biso   1.000  O
  C89      1.0000 0.74308  0.21385  0.14208  Biso   1.000  C
  H110     1.0000 0.78050  0.23640  0.04630  Biso   1.000  H
  H111     1.0000 0.86639  0.24028  0.08693  Biso   1.000  H
  C90      1.0000 0.92786  0.85091  0.24544  Biso   1.000  C
  O15      1.0000 0.03840  0.92859  0.18911  Biso   1.000  O
  H112     1.0000 0.80797  0.87190  0.09881  Biso   1.000  H
  C91      1.0000 0.80527  0.82493  0.19039  Biso   1.000  C
  C92      1.0000 0.10584  0.15459  0.08382  Biso   1.000  C
  C93      1.0000 0.77720  0.21342  0.19958  Biso   1.000  C
  C94      1.0000 0.64612  0.20879  0.14010  Biso   1.000  C
  C95      1.0000 0.85057  0.81616  0.24548  Biso   1.000  C
  H113     1.0000 0.95935  0.84537  0.28263  Biso   1.000  H
  C96      1.0000 0.08421  0.92319  0.24591  Biso   1.000  C
  O16      1.0000 0.72599  0.79095  0.19288  Biso   1.000  O
  H114     1.0000 0.11822  0.14797  0.04074  Biso   1.000  H
  H115     1.0000 0.12872  0.11527  0.11290  Biso   1.000  H
  C97      1.0000 0.15745  0.21000  0.09094  Biso   1.000  C
  H116     1.0000 0.84251  0.21826  0.20142  Biso   1.000  H
  C98      1.0000 0.71698  0.20599  0.25435  Biso   1.000  C
  O17      1.0000 0.61337  0.21160  0.08142  Biso   1.000  O
  C99      1.0000 0.58612  0.20025  0.19501  Biso   1.000  C
  C100     1.0000 0.81547  0.77074  0.30581  Biso   1.000  C
  H117     1.0000 0.10724  0.87836  0.26259  Biso   1.000  H
  H118     1.0000 0.03931  0.93798  0.27782  Biso   1.000  H
  C101     1.0000 0.16732  0.96488  0.22922  Biso   1.000  C
  C102     1.0000 0.68728  0.78971  0.13595  Biso   1.000  C
  H119     1.0000 0.13744  0.24807  0.06011  Biso   1.000  H
  H120     1.0000 0.22590  0.19997  0.08434  Biso   1.000  H
  H121     1.0000 0.14220  0.21769  0.13303  Biso   1.000  H
  O18      1.0000 0.74653  0.20631  0.31265  Biso   1.000  O
  C103     1.0000 0.62059  0.19780  0.25274  Biso   1.000  C
  C104     1.0000 0.51534  0.21938  0.07515  Biso   1.000  C
  H122     1.0000 0.52075  0.19607  0.19293  Biso   1.000  H
  C105     1.0000 0.75036  0.80607  0.34838  Biso   1.000  C
  H123     1.0000 0.78076  0.73779  0.29502  Biso   1.000  H
  H124     1.0000 0.87086  0.74908  0.32830  Biso   1.000  H
  H125     1.0000 0.21421  0.94721  0.20080  Biso   1.000  H
  H126     1.0000 0.19663  0.96609  0.26731  Biso   1.000  H
  H127     1.0000 0.14418  0.00810  0.20882  Biso   1.000  H
  H128     1.0000 0.73597  0.77218  0.10772  Biso   1.000  H
  H129     1.0000 0.66451  0.83328  0.11460  Biso   1.000  H
  C106     1.0000 0.60548  0.74759  0.15292  Biso   1.000  C
  C107     1.0000 0.84103  0.22202  0.31717  Biso   1.000  C
  C108     1.0000 0.55438  0.18831  0.31213  Biso   1.000  C
  H130     1.0000 0.48823  0.25950  0.08684  Biso   1.000  H
  H131     1.0000 0.48418  0.18368  0.10333  Biso   1.000  H
  C109     1.0000 0.49773  0.22131  0.00836  Biso   1.000  C
  C110     1.0000 0.78719  0.83184  0.39334  Biso   1.000  C
  C111     1.0000 0.65288  0.81522  0.34267  Biso   1.000  C
  H132     1.0000 0.58226  0.74067  0.11474  Biso   1.000  H
  H133     1.0000 0.55407  0.76837  0.17601  Biso   1.000  H
  H134     1.0000 0.62717  0.70657  0.17884  Biso   1.000  H
  H135     1.0000 0.84953  0.26605  0.29394  Biso   1.000  H
  H136     1.0000 0.88787  0.19280  0.29912  Biso   1.000  H
  C112     1.0000 0.85532  0.21566  0.38509  Biso   1.000  C
  H137     1.0000 0.48864  0.20228  0.30082  Biso   1.000  H
  H138     1.0000 0.57154  0.21588  0.33890  Biso   1.000  H
  C113     1.0000 0.55744  0.11903  0.34988  Biso   1.000  C
  H139     1.0000 0.52176  0.25971  0.98131  Biso   1.000  H
  H140     1.0000 0.53053  0.18352  0.99568  Biso   1.000  H
  H141     1.0000 0.42937  0.22179  0.00473  Biso   1.000  H
  O19      1.0000 0.88473  0.82057  0.39843  Biso   1.000  O
  C114     1.0000 0.72668  0.86741  0.42911  Biso   1.000  C
  H142     1.0000 0.62689  0.79735  0.31303  Biso   1.000  H
  C115     1.0000 0.59158  0.84979  0.37911  Biso   1.000  C
  H143     1.0000 0.91889  0.22719  0.38919  Biso   1.000  H
  H144     1.0000 0.84850  0.17157  0.40753  Biso   1.000  H
  H145     1.0000 0.80772  0.24406  0.40281  Biso   1.000  H
  C116     1.0000 0.61462  0.09896  0.40008  Biso   1.000  C
  C117     1.0000 0.50374  0.07445  0.33504  Biso   1.000  C
  C118     1.0000 0.92432  0.83065  0.45216  Biso   1.000  C
  C119     1.0000 0.62897  0.87811  0.42195  Biso   1.000  C
  H146     1.0000 0.75262  0.88477  0.45914  Biso   1.000  H
  O20      1.0000 0.49368  0.85895  0.37529  Biso   1.000  O
  H147     1.0000 0.65158  0.12856  0.41073  Biso   1.000  H
  C120     1.0000 0.61859  0.03607  0.43505  Biso   1.000  C
  O21      1.0000 0.44780  0.09677  0.28465  Biso   1.000  O
  C121     1.0000 0.50619  0.01190  0.37081  Biso   1.000  C
  H148     1.0000 0.89201  0.80654  0.49072  Biso   1.000  H
  H149     1.0000 0.91676  0.87647  0.45320  Biso   1.000  H
  C122     1.0000 0.02870  0.80757  0.44764  Biso   1.000  C
  C123     1.0000 0.56638  0.92209  0.45768  Biso   1.000  C
  C124     1.0000 0.45041  0.82252  0.34022  Biso   1.000  C
  C125     1.0000 0.56350  0.99174  0.42120  Biso   1.000  C
  O22      1.0000 0.67508  0.01449  0.48530  Biso   1.000  O
  C126     1.0000 0.39523  0.05338  0.26486  Biso   1.000  C
  H150     1.0000 0.46849  0.98248  0.36063  Biso   1.000  H
  H151     1.0000 0.06000  0.83189  0.40941  Biso   1.000  H
  H152     1.0000 0.03512  0.76229  0.44651  Biso   1.000  H
  H153     1.0000 0.05853  0.81354  0.48393  Biso   1.000  H
  H154     1.0000 0.59138  0.91888  0.49873  Biso   1.000  H
  H155     1.0000 0.50122  0.90828  0.46512  Biso   1.000  H
  H156     1.0000 0.46902  0.77656  0.35483  Biso   1.000  H
  H157     1.0000 0.47129  0.83516  0.29540  Biso   1.000  H
  C127     1.0000 0.34399  0.83548  0.34993  Biso   1.000  C
  C128     1.0000 0.72448  0.06102  0.50448  Biso   1.000  C
  H158     1.0000 0.34920  0.03445  0.29893  Biso   1.000  H
  H159     1.0000 0.43823  0.01860  0.25260  Biso   1.000  H
  C129     1.0000 0.34340  0.09126  0.20933  Biso   1.000  C
  H160     1.0000 0.31262  0.81466  0.32321  Biso   1.000  H
  H161     1.0000 0.32700  0.88147  0.33923  Biso   1.000  H
  H162     1.0000 0.32333  0.81876  0.39372  Biso   1.000  H
  H163     1.0000 0.67862  0.09497  0.51584  Biso   1.000  H
  H164     1.0000 0.76908  0.08079  0.47003  Biso   1.000  H
  C130     1.0000 0.77792  0.02741  0.56000  Biso   1.000  C
  H165     1.0000 0.38983  0.10838  0.17540  Biso   1.000  H
  H166     1.0000 0.30280  0.12648  0.22173  Biso   1.000  H
  H167     1.0000 0.30423  0.06337  0.19501  Biso   1.000  H
  H168     1.0000 0.82355  0.99407  0.54822  Biso   1.000  H
  H169     1.0000 0.73311  0.00814  0.59394  Biso   1.000  H
  H170     1.0000 0.81214  0.05815  0.57400  Biso   1.000  H
  C131     1.0000 0.55861  0.65143  0.78585  Biso   1.000  C
  C132     1.0000 0.50216  0.59997  0.80366  Biso   1.000  C
  C133     1.0000 0.62417  0.66259  0.82459  Biso   1.000  C
  H171     1.0000 0.55211  0.67954  0.74640  Biso   1.000  H
  C134     1.0000 0.51281  0.55652  0.86121  Biso   1.000  C
  O23      1.0000 0.43496  0.58709  0.76718  Biso   1.000  O
  C135     1.0000 0.63186  0.62058  0.88284  Biso   1.000  C
  C136     1.0000 0.68626  0.71899  0.80291  Biso   1.000  C
  C137     1.0000 0.45360  0.49858  0.88091  Biso   1.000  C
  C138     1.0000 0.57737  0.56815  0.89995  Biso   1.000  C
  C139     1.0000 0.39981  0.63667  0.71878  Biso   1.000  C
  O24      1.0000 0.69591  0.63407  0.92163  Biso   1.000  O
  C140     1.0000 0.77230  0.70433  0.76011  Biso   1.000  C
  H172     1.0000 0.70817  0.73033  0.84000  Biso   1.000  H
  H173     1.0000 0.64737  0.75637  0.78071  Biso   1.000  H
  C141     1.0000 0.49628  0.44323  0.85178  Biso   1.000  C
  H174     1.0000 0.38832  0.51112  0.86800  Biso   1.000  H
  H175     1.0000 0.44977  0.48441  0.92691  Biso   1.000  H
  H176     1.0000 0.58466  0.53975  0.93922  Biso   1.000  H
  H177     1.0000 0.37159  0.67324  0.73631  Biso   1.000  H
  H178     1.0000 0.45240  0.65124  0.68762  Biso   1.000  H
  C142     1.0000 0.32565  0.61187  0.68800  Biso   1.000  C
  C143     1.0000 0.68218  0.60533  0.98715  Biso   1.000  C
  C144     1.0000 0.77010  0.71883  0.69507  Biso   1.000  C
  C145     1.0000 0.85691  0.67361  0.78533  Biso   1.000  C
  C146     1.0000 0.46698  0.43598  0.79527  Biso   1.000  C
  C147     1.0000 0.56747  0.39925  0.88025  Biso   1.000  C
  H179     1.0000 0.27461  0.59674  0.71929  Biso   1.000  H
  H180     1.0000 0.29978  0.64604  0.65529  Biso   1.000  H
  H181     1.0000 0.35466  0.57665  0.66947  Biso   1.000  H
  H182     1.0000 0.69641  0.55865  0.99380  Biso   1.000  H
  H183     1.0000 0.61522  0.61398  0.00233  Biso   1.000  H
  C148     1.0000 0.74559  0.63198  0.02231  Biso   1.000  C
  O25      1.0000 0.68557  0.74941  0.67089  Biso   1.000  O
  C149     1.0000 0.84804  0.70035  0.65717  Biso   1.000  C
  H184     1.0000 0.86056  0.66414  0.82921  Biso   1.000  H
  C150     1.0000 0.93535  0.65681  0.74706  Biso   1.000  C
  C151     1.0000 0.50794  0.38692  0.76633  Biso   1.000  C
  H185     1.0000 0.41818  0.46483  0.77590  Biso   1.000  H
  C152     1.0000 0.60905  0.35057  0.85112  Biso   1.000  C
  O26      1.0000 0.59146  0.40710  0.93747  Biso   1.000  O
  H186     1.0000 0.74165  0.60920  0.06610  Biso   1.000  H
  H187     1.0000 0.81108  0.62718  0.00440  Biso   1.000  H
  H188     1.0000 0.72614  0.67718  0.01981  Biso   1.000  H
  C153     1.0000 0.69239  0.79442  0.61136  Biso   1.000  C
  C154     1.0000 0.93115  0.66875  0.68192  Biso   1.000  C
  H189     1.0000 0.84427  0.70968  0.61329  Biso   1.000  H
  O27      1.0000 0.02124  0.62790  0.76944  Biso   1.000  O
  O28      1.0000 0.47950  0.37773  0.71029  Biso   1.000  O
  C155     1.0000 0.57999  0.34411  0.79400  Biso   1.000  C
  H190     1.0000 0.65774  0.32154  0.87040  Biso   1.000  H
  C156     1.0000 0.66756  0.36652  0.96712  Biso   1.000  C
  H191     1.0000 0.72375  0.77216  0.57931  Biso   1.000  H
  H192     1.0000 0.62765  0.81057  0.59911  Biso   1.000  H
  C157     1.0000 0.74729  0.85003  0.61292  Biso   1.000  C
  C158     1.0000 0.01257  0.64514  0.63988  Biso   1.000  C
  C159     1.0000 0.03680  0.62346  0.83354  Biso   1.000  C
  C160     1.0000 0.39197  0.41040  0.68880  Biso   1.000  C
  C161     1.0000 0.62763  0.29122  0.76247  Biso   1.000  C
  H193     1.0000 0.65374  0.32144  0.97419  Biso   1.000  H
  H194     1.0000 0.72733  0.37234  0.94030  Biso   1.000  H
  C162     1.0000 0.67726  0.38406  0.02849  Biso   1.000  C
  H195     1.0000 0.72052  0.86964  0.64742  Biso   1.000  H
  H196     1.0000 0.81388  0.83516  0.61900  Biso   1.000  H
  H197     1.0000 0.74311  0.88146  0.57351  Biso   1.000  H
  C163     1.0000 0.00508  0.57625  0.63511  Biso   1.000  C
  H198     1.0000 0.01199  0.67308  0.59760  Biso   1.000  H
  H199     1.0000 0.07371  0.64816  0.65670  Biso   1.000  H
  H200     1.0000 0.99108  0.59602  0.86112  Biso   1.000  H
  H201     1.0000 0.02761  0.66625  0.84339  Biso   1.000  H
  C164     1.0000 0.13748  0.59504  0.84401  Biso   1.000  C
  C165     1.0000 0.36654  0.38447  0.63478  Biso   1.000  C
  H202     1.0000 0.34108  0.40387  0.72302  Biso   1.000  H
  H203     1.0000 0.39884  0.45668  0.67508  Biso   1.000  H
  H204     1.0000 0.58407  0.28193  0.73390  Biso   1.000  H
  H205     1.0000 0.64007  0.25194  0.79471  Biso   1.000  H
  C166     1.0000 0.72095  0.30984  0.72575  Biso   1.000  C
  H206     1.0000 0.61952  0.37510  0.05592  Biso   1.000  H
  H207     1.0000 0.73195  0.35901  0.04823  Biso   1.000  H
  H208     1.0000 0.68664  0.42952  0.02123  Biso   1.000  H
  C167     1.0000 0.95349  0.56165  0.58930  Biso   1.000  C
  C168     1.0000 0.04939  0.52543  0.67687  Biso   1.000  C
  H209     1.0000 0.15060  0.59305  0.88718  Biso   1.000  H
  H210     1.0000 0.14502  0.55205  0.83590  Biso   1.000  H
  H211     1.0000 0.18202  0.62173  0.81559  Biso   1.000  H
  H212     1.0000 0.35985  0.33866  0.64869  Biso   1.000  H
  H213     1.0000 0.30647  0.40615  0.61980  Biso   1.000  H
  H214     1.0000 0.41678  0.39167  0.60090  Biso   1.000  H
  C169     1.0000 0.72233  0.34255  0.66306  Biso   1.000  C
  C170     1.0000 0.80668  0.29779  0.75403  Biso   1.000  C
  C171     1.0000 0.94897  0.49867  0.58563  Biso   1.000  C
  O29      1.0000 0.91054  0.61376  0.54896  Biso   1.000  O
  C172     1.0000 0.04218  0.46209  0.67395  Biso   1.000  C
  H215     1.0000 0.08500  0.53414  0.70779  Biso   1.000  H
  H216     1.0000 0.66508  0.35083  0.64270  Biso   1.000  H
  C173     1.0000 0.80676  0.36313  0.63002  Biso   1.000  C
  C174     1.0000 0.89137  0.31855  0.72099  Biso   1.000  C
  O30      1.0000 0.80668  0.27247  0.81978  Biso   1.000  O
  O31      1.0000 0.79605  0.25367  0.81059  Biso   1.000  O
  C175     1.0000 0.99245  0.44770  0.62781  Biso   1.000  C
  H217     1.0000 0.91558  0.48985  0.55372  Biso   1.000  H
  C176     1.0000 0.84183  0.60192  0.51012  Biso   1.000  C
  O32      1.0000 0.08434  0.41030  0.71543  Biso   1.000  O
  O33      1.0000 0.81252  0.39561  0.56776  Biso   1.000  O
  C177     1.0000 0.89267  0.35240  0.65911  Biso   1.000  C
  H218     1.0000 0.94885  0.30937  0.74121  Biso   1.000  H
  C178     1.0000 0.88441  0.23385  0.84358  Biso   1.000  C
  C179     1.0000 0.84123  0.21096  0.83378  Biso   1.000  C
  C180     1.0000 0.98366  0.37845  0.62404  Biso   1.000  C
  H219     1.0000 0.87254  0.57709  0.47991  Biso   1.000  H
  H220     1.0000 0.79144  0.57746  0.53590  Biso   1.000  H
  C181     1.0000 0.79989  0.66631  0.47595  Biso   1.000  C
  C182     1.0000 0.12448  0.42221  0.76789  Biso   1.000  C
  C183     1.0000 0.73988  0.39645  0.53015  Biso   1.000  C
  H221     1.0000 0.90811  0.20516  0.81530  Biso   1.000  H
  H222     1.0000 0.93584  0.26064  0.84599  Biso   1.000  H
  C184     1.0000 0.85835  0.19426  0.90830  Biso   1.000  C
  H223     1.0000 0.90796  0.22193  0.82878  Biso   1.000  H
  C185     1.0000 0.81485  0.18595  0.90302  Biso   1.000  C
  H224     1.0000 0.83798  0.17622  0.81182  Biso   1.000  H
  H225     1.0000 0.98426  0.37615  0.57969  Biso   1.000  H
  H226     1.0000 0.03916  0.35145  0.64181  Biso   1.000  H
  H227     1.0000 0.76875  0.69006  0.50639  Biso   1.000  H
  H228     1.0000 0.85058  0.69028  0.45111  Biso   1.000  H
  H229     1.0000 0.75328  0.66018  0.44842  Biso   1.000  H
  H230     1.0000 0.17811  0.44914  0.75398  Biso   1.000  H
  H231     1.0000 0.07628  0.44456  0.79259  Biso   1.000  H
  C186     1.0000 0.15877  0.35836  0.80696  Biso   1.000  C
  H232     1.0000 0.72640  0.35236  0.53062  Biso   1.000  H
  H233     1.0000 0.68142  0.41867  0.54617  Biso   1.000  H
  C187     1.0000 0.76784  0.43036  0.46440  Biso   1.000  C
  H234     1.0000 0.91561  0.18133  0.93101  Biso   1.000  H
  H235     1.0000 0.81326  0.21976  0.93130  Biso   1.000  H
  H236     1.0000 0.82927  0.15636  0.90438  Biso   1.000  H
  H237     1.0000 0.83094  0.21614  0.92668  Biso   1.000  H
  H238     1.0000 0.84992  0.14466  0.91730  Biso   1.000  H
  H239     1.0000 0.74651  0.18106  0.90962  Biso   1.000  H
  H240     1.0000 0.18317  0.36465  0.84500  Biso   1.000  H
  H241     1.0000 0.10587  0.33113  0.81818  Biso   1.000  H
  H242     1.0000 0.20939  0.33796  0.78302  Biso   1.000  H
  H243     1.0000 0.79021  0.47165  0.46492  Biso   1.000  H
  H244     1.0000 0.81873  0.40455  0.44621  Biso   1.000  H
  H245     1.0000 0.71280  0.43708  0.43942  Biso   1.000  H
  C188     1.0000 0.23225  0.56955  0.53557  Biso   1.000  C
  C189     1.0000 0.26028  0.60346  0.46982  Biso   1.000  C
  H246     1.0000 0.20987  0.52825  0.53510  Biso   1.000  H
  H247     1.0000 0.18136  0.59535  0.55381  Biso   1.000  H
  H248     1.0000 0.28728  0.56286  0.56060  Biso   1.000  H
  O34      1.0000 0.18763  0.60435  0.43221  Biso   1.000  O
  H249     1.0000 0.27368  0.64758  0.46940  Biso   1.000  H
  H250     1.0000 0.31867  0.58125  0.45379  Biso   1.000  H
  C190     1.0000 0.19340  0.63677  0.36999  Biso   1.000  C
  C191     1.0000 0.10749  0.64756  0.34086  Biso   1.000  C
  C192     1.0000 0.27775  0.65739  0.33695  Biso   1.000  C
  C193     1.0000 0.01650  0.62145  0.37598  Biso   1.000  C
  C194     1.0000 0.10878  0.68139  0.27903  Biso   1.000  C
  C195     1.0000 0.27914  0.69011  0.27422  Biso   1.000  C
  H251     1.0000 0.33508  0.64907  0.35731  Biso   1.000  H
  C196     1.0000 0.00770  0.55220  0.37221  Biso   1.000  C
  H252     1.0000 0.01591  0.62376  0.42028  Biso   1.000  H
  H253     1.0000 0.96092  0.64849  0.35821  Biso   1.000  H
  H254     1.0000 0.05130  0.69058  0.25881  Biso   1.000  H
  C197     1.0000 0.19348  0.70213  0.24594  Biso   1.000  C
  C198     1.0000 0.37245  0.70873  0.23755  Biso   1.000  C
  C199     1.0000 0.05120  0.50124  0.41434  Biso   1.000  C
  C200     1.0000 0.95791  0.53782  0.32602  Biso   1.000  C
  O35      1.0000 0.19348  0.72749  0.18019  Biso   1.000  O
  O36      1.0000 0.20404  0.74629  0.18938  Biso   1.000  O
  C201     1.0000 0.42017  0.65579  0.20602  Biso   1.000  C
  H255     1.0000 0.41608  0.71797  0.26611  Biso   1.000  H
  H256     1.0000 0.36009  0.74796  0.20531  Biso   1.000  H
  C202     1.0000 0.04668  0.43826  0.41067  Biso   1.000  C
  H257     1.0000 0.08457  0.51006  0.44630  Biso   1.000  H
  C203     1.0000 0.95076  0.47452  0.32314  Biso   1.000  C
  O37      1.0000 0.91581  0.58965  0.28459  Biso   1.000  O
  C204     1.0000 0.11567  0.76611  0.15639  Biso   1.000  C
  C205     1.0000 0.15885  0.78900  0.16619  Biso   1.000  C
  C206     1.0000 0.49214  0.61303  0.23368  Biso   1.000  C
  C207     1.0000 0.39103  0.64938  0.14889  Biso   1.000  C
  C208     1.0000 0.99500  0.42369  0.36490  Biso   1.000  C
  O38      1.0000 0.08954  0.38619  0.45106  Biso   1.000  O
  H258     1.0000 0.91516  0.46577  0.29218  Biso   1.000  H
  C209     1.0000 0.87561  0.57775  0.23208  Biso   1.000  C
  H259     1.0000 0.09197  0.79478  0.18471  Biso   1.000  H
  H260     1.0000 0.06425  0.73927  0.15398  Biso   1.000  H
  C210     1.0000 0.14173  0.80569  0.09172  Biso   1.000  C
  H261     1.0000 0.09220  0.77798  0.17119  Biso   1.000  H
  C211     1.0000 0.18530  0.81400  0.09700  Biso   1.000  C
  H262     1.0000 0.16218  0.82368  0.18820  Biso   1.000  H
  C212     1.0000 0.53311  0.56393  0.20470  Biso   1.000  C
  O39      1.0000 0.52065  0.62217  0.28973  Biso   1.000  O
  C213     1.0000 0.43261  0.60070  0.11972  Biso   1.000  C
  H263     1.0000 0.34234  0.67840  0.12962  Biso   1.000  H
  C214     1.0000 0.98752  0.35476  0.36014  Biso   1.000  C
  C215     1.0000 0.15824  0.39803  0.48990  Biso   1.000  C
  H264     1.0000 0.82205  0.55077  0.24599  Biso   1.000  H
  H265     1.0000 0.92380  0.55540  0.20738  Biso   1.000  H
  C216     1.0000 0.84131  0.64158  0.19306  Biso   1.000  C
  H266     1.0000 0.08447  0.81857  0.06900  Biso   1.000  H
  H267     1.0000 0.18689  0.78019  0.06872  Biso   1.000  H
  H268     1.0000 0.17088  0.84360  0.09559  Biso   1.000  H
  H269     1.0000 0.16915  0.78377  0.07329  Biso   1.000  H
  H270     1.0000 0.15016  0.85529  0.08272  Biso   1.000  H
  H271     1.0000 0.25356  0.81889  0.09040  Biso   1.000  H
  C217     1.0000 0.50387  0.55673  0.14819  Biso   1.000  C
  H272     1.0000 0.58198  0.53507  0.22412  Biso   1.000  H
  C218     1.0000 0.60812  0.58952  0.31117  Biso   1.000  C
  O40      1.0000 0.40870  0.59281  0.06250  Biso   1.000  O
  C219     1.0000 0.06893  0.33121  0.31805  Biso   1.000  C
  H273     1.0000 0.98816  0.32687  0.40242  Biso   1.000  H
  H274     1.0000 0.92644  0.35179  0.34332  Biso   1.000  H
  H275     1.0000 0.12754  0.42286  0.52011  Biso   1.000  H
  H276     1.0000 0.20865  0.42244  0.46412  Biso   1.000  H
  C220     1.0000 0.20027  0.33360  0.52402  Biso   1.000  C
  H277     1.0000 0.81691  0.63530  0.15502  Biso   1.000  H
  H278     1.0000 0.89422  0.66878  0.18179  Biso   1.000  H
  H279     1.0000 0.79075  0.66199  0.21700  Biso   1.000  H
  C221     1.0000 0.54655  0.50132  0.11910  Biso   1.000  C
  H280     1.0000 0.65907  0.59608  0.27700  Biso   1.000  H
  H281     1.0000 0.60124  0.54328  0.32489  Biso   1.000  H
  C222     1.0000 0.63354  0.61549  0.36519  Biso   1.000  C
  C223     1.0000 0.33253  0.63338  0.03290  Biso   1.000  C
  C224     1.0000 0.15204  0.29961  0.34280  Biso   1.000  C
  C225     1.0000 0.06474  0.34310  0.25291  Biso   1.000  C
  H282     1.0000 0.23134  0.30985  0.49357  Biso   1.000  H
  H283     1.0000 0.14957  0.30966  0.54891  Biso   1.000  H
  H284     1.0000 0.24687  0.33977  0.55160  Biso   1.000  H
  C226     1.0000 0.48734  0.44338  0.13881  Biso   1.000  C
  H285     1.0000 0.61184  0.48878  0.13202  Biso   1.000  H
  H286     1.0000 0.55031  0.51549  0.07310  Biso   1.000  H
  H287     1.0000 0.64023  0.66130  0.35128  Biso   1.000  H
  H288     1.0000 0.69368  0.59375  0.38022  Biso   1.000  H
  H289     1.0000 0.58337  0.60828  0.39912  Biso   1.000  H
  H290     1.0000 0.34635  0.67848  0.02578  Biso   1.000  H
  H291     1.0000 0.27275  0.62760  0.05972  Biso   1.000  H
  C227     1.0000 0.32290  0.61585  0.97148  Biso   1.000  C
  C228     1.0000 0.23006  0.28108  0.30490  Biso   1.000  C
  H292     1.0000 0.15582  0.29028  0.38668  Biso   1.000  H
  C229     1.0000 0.14325  0.32629  0.21469  Biso   1.000  C
  O41      1.0000 0.97885  0.37202  0.23053  Biso   1.000  O
  C230     1.0000 0.49792  0.39998  0.19636  Biso   1.000  C
  C231     1.0000 0.42271  0.43176  0.10006  Biso   1.000  C
  H293     1.0000 0.38056  0.62485  0.94410  Biso   1.000  H
  H294     1.0000 0.26820  0.64093  0.95178  Biso   1.000  H
  H295     1.0000 0.31351  0.57043  0.97879  Biso   1.000  H
  C232     1.0000 0.22786  0.29557  0.23991  Biso   1.000  C
  O42      1.0000 0.31459  0.25049  0.32913  Biso   1.000  O
  H296     1.0000 0.13952  0.33581  0.17081  Biso   1.000  H
  C233     1.0000 0.96328  0.37650  0.16643  Biso   1.000  C
  C234     1.0000 0.44155  0.34847  0.21417  Biso   1.000  C
  O43      1.0000 0.56511  0.41286  0.23284  Biso   1.000  O
  C235     1.0000 0.36822  0.37932  0.11717  Biso   1.000  C
  H297     1.0000 0.41542  0.46020  0.06080  Biso   1.000  H
  C236     1.0000 0.31383  0.28096  0.19706  Biso   1.000  C
  C237     1.0000 0.30770  0.20548  0.38866  Biso   1.000  C
  H298     1.0000 0.00908  0.40388  0.13890  Biso   1.000  H
  H299     1.0000 0.97247  0.33370  0.15662  Biso   1.000  H
  C238     1.0000 0.86260  0.40486  0.15601  Biso   1.000  C
  C239     1.0000 0.37591  0.33736  0.17543  Biso   1.000  C
  H300     1.0000 0.44805  0.32036  0.25362  Biso   1.000  H
  C240     1.0000 0.60035  0.36323  0.28124  Biso   1.000  C
  O44      1.0000 0.30417  0.36588  0.07838  Biso   1.000  O
  H301     1.0000 0.29192  0.26957  0.16002  Biso   1.000  H
  H302     1.0000 0.35271  0.24358  0.21931  Biso   1.000  H
  H303     1.0000 0.27633  0.22779  0.42071  Biso   1.000  H
  H304     1.0000 0.37243  0.18938  0.40091  Biso   1.000  H
  C241     1.0000 0.25280  0.14988  0.38705  Biso   1.000  C
  H305     1.0000 0.84948  0.40691  0.11279  Biso   1.000  H
  H306     1.0000 0.85513  0.44789  0.16412  Biso   1.000  H
  H307     1.0000 0.81814  0.37819  0.18438  Biso   1.000  H
  H308     1.0000 0.62850  0.32666  0.26371  Biso   1.000  H
  H309     1.0000 0.54776  0.34866  0.31240  Biso   1.000  H
  C242     1.0000 0.67443  0.38809  0.31197  Biso   1.000  C
  C243     1.0000 0.31790  0.39462  0.01282  Biso   1.000  C
  H310     1.0000 0.27964  0.13026  0.35260  Biso   1.000  H
  H311     1.0000 0.18619  0.16479  0.38102  Biso   1.000  H
  H312     1.0000 0.25704  0.11848  0.42650  Biso   1.000  H
  H313     1.0000 0.72555  0.40317  0.28068  Biso   1.000  H
  H314     1.0000 0.70031  0.35388  0.34468  Biso   1.000  H
  H315     1.0000 0.64543  0.42327  0.33050  Biso   1.000  H
  H316     1.0000 0.30374  0.44130  0.00622  Biso   1.000  H
  H317     1.0000 0.38486  0.38592  0.99769  Biso   1.000  H
  C244     1.0000 0.25457  0.36793  0.97766  Biso   1.000  C
  H318     1.0000 0.25843  0.39076  0.93387  Biso   1.000  H
  H319     1.0000 0.18908  0.37273  0.99557  Biso   1.000  H
  H320     1.0000 0.27395  0.32274  0.98016  Biso   1.000  H
  Ne1      1.0000 0.24447  0.50608  0.25097  Biso   1.000  Ne
  He1      1.0000 0.42683  0.45267  0.39680  Biso   1.000  He
  He2      1.0000 0.08683  0.54538  0.09413  Biso   1.000  He
  Ar1      1.0000 0.23965  0.49540  0.25355  Biso   1.000  Ar
  Ne2      1.0000 0.75564  0.49385  0.74903  Biso   1.000  Ne
  He3      1.0000 0.88332  0.46926  0.87564  Biso   1.000  He
  He4      1.0000 0.60138  0.53325  0.63599  Biso   1.000  He
  Ar2      1.0000 0.76040  0.50423  0.74649  Biso   1.000  Ar
  Ne3      1.0000 0.50006  0.99996  0.00001  Biso   1.000  Ne
  He5      1.0000 0.47708  0.90995  0.00225  Biso   1.000  He
  He6      1.0000 0.65136  0.14150  0.96581  Biso   1.000  He
  Ar3      1.0000 0.50004  0.99997  0.00002  Biso   1.000  Ar
