data_image0
_cell_length_a       14.065
_cell_length_b       21.414
_cell_length_c       21.84
_cell_angle_alpha    76.97
_cell_angle_beta     84.47
_cell_angle_gamma    84.14

_symmetry_space_group_name_H-M    "P 1"
_symmetry_int_tables_number       1

loop_
  _symmetry_equiv_pos_as_xyz
  'x, y, z'

loop_
  _atom_site_label
  _atom_site_occupancy
  _atom_site_fract_x
  _atom_site_fract_y
  _atom_site_fract_z
  _atom_site_thermal_displace_type
  _atom_site_B_iso_or_equiv
  _atom_site_type_symbol
  C1       1.0000 0.37245  0.70873  0.23755  Biso   1.000  C
  C2       1.0000 0.42017  0.65579  0.20602  Biso   1.000  C
  H1       1.0000 0.41608  0.71797  0.26611  Biso   1.000  H
  H2       1.0000 0.36009  0.74796  0.20531  Biso   1.000  H
  C3       1.0000 0.27914  0.69011  0.27422  Biso   1.000  C
  C4       1.0000 0.49214  0.61303  0.23368  Biso   1.000  C
  C5       1.0000 0.39103  0.64938  0.14889  Biso   1.000  C
  C6       1.0000 0.27775  0.65739  0.33695  Biso   1.000  C
  C7       1.0000 0.19348  0.70213  0.24594  Biso   1.000  C
  C8       1.0000 0.53311  0.56393  0.20470  Biso   1.000  C
  O1       1.0000 0.52065  0.62217  0.28973  Biso   1.000  O
  C9       1.0000 0.43261  0.60070  0.11972  Biso   1.000  C
  H3       1.0000 0.34234  0.67840  0.12962  Biso   1.000  H
  C10      1.0000 0.19340  0.63677  0.36999  Biso   1.000  C
  H4       1.0000 0.33508  0.64907  0.35731  Biso   1.000  H
  C11      1.0000 0.10878  0.68139  0.27903  Biso   1.000  C
  O2       1.0000 0.19348  0.72749  0.18019  Biso   1.000  O
  O3       1.0000 0.20404  0.74629  0.18938  Biso   1.000  O
  C12      1.0000 0.50387  0.55673  0.14819  Biso   1.000  C
  H5       1.0000 0.58198  0.53507  0.22412  Biso   1.000  H
  C13      1.0000 0.60812  0.58952  0.31117  Biso   1.000  C
  O4       1.0000 0.40870  0.59281  0.06250  Biso   1.000  O
  C14      1.0000 0.10749  0.64756  0.34086  Biso   1.000  C
  O5       1.0000 0.18763  0.60435  0.43221  Biso   1.000  O
  H6       1.0000 0.05130  0.69058  0.25881  Biso   1.000  H
  C15      1.0000 0.11567  0.76611  0.15639  Biso   1.000  C
  C16      1.0000 0.15885  0.78900  0.16619  Biso   1.000  C
  C17      1.0000 0.54655  0.50132  0.11910  Biso   1.000  C
  H7       1.0000 0.65907  0.59608  0.27700  Biso   1.000  H
  H8       1.0000 0.60124  0.54328  0.32489  Biso   1.000  H
  C18      1.0000 0.63354  0.61549  0.36519  Biso   1.000  C
  C19      1.0000 0.33253  0.63338  0.03290  Biso   1.000  C
  C20      1.0000 0.01650  0.62145  0.37598  Biso   1.000  C
  C21      1.0000 0.26028  0.60346  0.46982  Biso   1.000  C
  H9       1.0000 0.09197  0.79478  0.18471  Biso   1.000  H
  H10      1.0000 0.06425  0.73927  0.15398  Biso   1.000  H
  C22      1.0000 0.14173  0.80569  0.09172  Biso   1.000  C
  H11      1.0000 0.09220  0.77798  0.17119  Biso   1.000  H
  C23      1.0000 0.18530  0.81400  0.09700  Biso   1.000  C
  H12      1.0000 0.16218  0.82368  0.18820  Biso   1.000  H
  C24      1.0000 0.48734  0.44338  0.13881  Biso   1.000  C
  H13      1.0000 0.61184  0.48878  0.13202  Biso   1.000  H
  H14      1.0000 0.55031  0.51549  0.07310  Biso   1.000  H
  H15      1.0000 0.64023  0.66130  0.35128  Biso   1.000  H
  H16      1.0000 0.69368  0.59375  0.38022  Biso   1.000  H
  H17      1.0000 0.58337  0.60828  0.39912  Biso   1.000  H
  H18      1.0000 0.34635  0.67848  0.02578  Biso   1.000  H
  H19      1.0000 0.27275  0.62760  0.05972  Biso   1.000  H
  C25      1.0000 0.32281  0.61589  0.97153  Biso   1.000  C
  C26      1.0000 0.00770  0.55220  0.37221  Biso   1.000  C
  H20      1.0000 0.01591  0.62376  0.42028  Biso   1.000  H
  H21      1.0000 0.96099  0.64849  0.35821  Biso   1.000  H
  H22      1.0000 0.27368  0.64758  0.46940  Biso   1.000  H
  H23      1.0000 0.31867  0.58125  0.45379  Biso   1.000  H
  C27      1.0000 0.23225  0.56955  0.53557  Biso   1.000  C
  H24      1.0000 0.08447  0.81857  0.06900  Biso   1.000  H
  H25      1.0000 0.18689  0.78019  0.06872  Biso   1.000  H
  H26      1.0000 0.17088  0.84360  0.09559  Biso   1.000  H
  H27      1.0000 0.16915  0.78377  0.07329  Biso   1.000  H
  H28      1.0000 0.15016  0.85529  0.08272  Biso   1.000  H
  H29      1.0000 0.25356  0.81889  0.09040  Biso   1.000  H
  C28      1.0000 0.49792  0.39998  0.19636  Biso   1.000  C
  C29      1.0000 0.42271  0.43176  0.10006  Biso   1.000  C
  H30      1.0000 0.38056  0.62485  0.94410  Biso   1.000  H
  H31      1.0000 0.26813  0.64093  0.95178  Biso   1.000  H
  H32      1.0000 0.31344  0.57043  0.97879  Biso   1.000  H
  C30      1.0000 0.05120  0.50124  0.41434  Biso   1.000  C
  C31      1.0000 0.95798  0.53782  0.32602  Biso   1.000  C
  H33      1.0000 0.20987  0.52825  0.53510  Biso   1.000  H
  H34      1.0000 0.18136  0.59535  0.55381  Biso   1.000  H
  H35      1.0000 0.28728  0.56286  0.56060  Biso   1.000  H
  C32      1.0000 0.44155  0.34847  0.21417  Biso   1.000  C
  O6       1.0000 0.56511  0.41286  0.23284  Biso   1.000  O
  C33      1.0000 0.36822  0.37932  0.11717  Biso   1.000  C
  H36      1.0000 0.41542  0.46020  0.06080  Biso   1.000  H
  C34      1.0000 0.04668  0.43826  0.41067  Biso   1.000  C
  H37      1.0000 0.08457  0.51006  0.44630  Biso   1.000  H
  C35      1.0000 0.95076  0.47452  0.32314  Biso   1.000  C
  O7       1.0000 0.91581  0.58965  0.28459  Biso   1.000  O
  C36      1.0000 0.37591  0.33736  0.17543  Biso   1.000  C
  H38      1.0000 0.44805  0.32036  0.25362  Biso   1.000  H
  C37      1.0000 0.60035  0.36323  0.28124  Biso   1.000  C
  O8       1.0000 0.30417  0.36588  0.07838  Biso   1.000  O
  C38      1.0000 0.99507  0.42369  0.36490  Biso   1.000  C
  O9       1.0000 0.08954  0.38619  0.45106  Biso   1.000  O
  H39      1.0000 0.91516  0.46577  0.29218  Biso   1.000  H
  C39      1.0000 0.87568  0.57775  0.23208  Biso   1.000  C
  C40      1.0000 0.31383  0.28096  0.19706  Biso   1.000  C
  H40      1.0000 0.62850  0.32666  0.26371  Biso   1.000  H
  H41      1.0000 0.54776  0.34866  0.31240  Biso   1.000  H
  C41      1.0000 0.67443  0.38809  0.31197  Biso   1.000  C
  C42      1.0000 0.31790  0.39462  0.01282  Biso   1.000  C
  C43      1.0000 0.98759  0.35476  0.36014  Biso   1.000  C
  C44      1.0000 0.15824  0.39803  0.48990  Biso   1.000  C
  H42      1.0000 0.82205  0.55077  0.24599  Biso   1.000  H
  H43      1.0000 0.92387  0.55540  0.20738  Biso   1.000  H
  C45      1.0000 0.84138  0.64158  0.19306  Biso   1.000  C
  C46      1.0000 0.22786  0.29557  0.23991  Biso   1.000  C
  H44      1.0000 0.29192  0.26957  0.16002  Biso   1.000  H
  H45      1.0000 0.35271  0.24358  0.21931  Biso   1.000  H
  H46      1.0000 0.72555  0.40317  0.28068  Biso   1.000  H
  H47      1.0000 0.70031  0.35388  0.34468  Biso   1.000  H
  H48      1.0000 0.64543  0.42327  0.33050  Biso   1.000  H
  H49      1.0000 0.30374  0.44130  0.00622  Biso   1.000  H
  H50      1.0000 0.38486  0.38597  0.99769  Biso   1.000  H
  C47      1.0000 0.25449  0.36797  0.97771  Biso   1.000  C
  C48      1.0000 0.06893  0.33121  0.31805  Biso   1.000  C
  H51      1.0000 0.98816  0.32687  0.40242  Biso   1.000  H
  H52      1.0000 0.92644  0.35179  0.34332  Biso   1.000  H
  H53      1.0000 0.12754  0.42286  0.52011  Biso   1.000  H
  H54      1.0000 0.20865  0.42244  0.46412  Biso   1.000  H
  C49      1.0000 0.20027  0.33360  0.52402  Biso   1.000  C
  H55      1.0000 0.81698  0.63530  0.15502  Biso   1.000  H
  H56      1.0000 0.89429  0.66878  0.18179  Biso   1.000  H
  H57      1.0000 0.79075  0.66199  0.21700  Biso   1.000  H
  C50      1.0000 0.23006  0.28108  0.30490  Biso   1.000  C
  C51      1.0000 0.14325  0.32629  0.21469  Biso   1.000  C
  H58      1.0000 0.25843  0.39075  0.93392  Biso   1.000  H
  H59      1.0000 0.18900  0.37277  0.99562  Biso   1.000  H
  H60      1.0000 0.27394  0.32277  0.98020  Biso   1.000  H
  C52      1.0000 0.15204  0.29961  0.34280  Biso   1.000  C
  C53      1.0000 0.06474  0.34310  0.25291  Biso   1.000  C
  H61      1.0000 0.23134  0.30985  0.49357  Biso   1.000  H
  H62      1.0000 0.14957  0.30966  0.54891  Biso   1.000  H
  H63      1.0000 0.24687  0.33977  0.55160  Biso   1.000  H
  O10      1.0000 0.31459  0.25049  0.32913  Biso   1.000  O
  H64      1.0000 0.13952  0.33581  0.17081  Biso   1.000  H
  H65      1.0000 0.15582  0.29028  0.38668  Biso   1.000  H
  O11      1.0000 0.97885  0.37202  0.23053  Biso   1.000  O
  C54      1.0000 0.30770  0.20548  0.38866  Biso   1.000  C
  C55      1.0000 0.96335  0.37650  0.16643  Biso   1.000  C
  H66      1.0000 0.27633  0.22779  0.42071  Biso   1.000  H
  H67      1.0000 0.37243  0.18938  0.40091  Biso   1.000  H
  C56      1.0000 0.25280  0.14988  0.38705  Biso   1.000  C
  H68      1.0000 0.00908  0.40388  0.13890  Biso   1.000  H
  H69      1.0000 0.97254  0.33370  0.15662  Biso   1.000  H
  C57      1.0000 0.86267  0.40486  0.15601  Biso   1.000  C
  H70      1.0000 0.27964  0.13026  0.35260  Biso   1.000  H
  H71      1.0000 0.18619  0.16479  0.38102  Biso   1.000  H
  H72      1.0000 0.25704  0.11848  0.42650  Biso   1.000  H
  H73      1.0000 0.84955  0.40691  0.11279  Biso   1.000  H
  H74      1.0000 0.85513  0.44789  0.16412  Biso   1.000  H
  H75      1.0000 0.81814  0.37819  0.18438  Biso   1.000  H
  C58      1.0000 0.45031  0.82252  0.34020  Biso   1.000  C
  O12      1.0000 0.49365  0.85895  0.37527  Biso   1.000  O
  H76      1.0000 0.46892  0.77656  0.35482  Biso   1.000  H
  H77      1.0000 0.47127  0.83516  0.29538  Biso   1.000  H
  C59      1.0000 0.34397  0.83548  0.34991  Biso   1.000  C
  C60      1.0000 0.59155  0.84980  0.37909  Biso   1.000  C
  H78      1.0000 0.31253  0.81466  0.32319  Biso   1.000  H
  H79      1.0000 0.32697  0.88147  0.33921  Biso   1.000  H
  H80      1.0000 0.32324  0.81876  0.39370  Biso   1.000  H
  C61      1.0000 0.65286  0.81522  0.34266  Biso   1.000  C
  C62      1.0000 0.62895  0.87811  0.42193  Biso   1.000  C
  C63      1.0000 0.75034  0.80607  0.34836  Biso   1.000  C
  H81      1.0000 0.62686  0.79740  0.31301  Biso   1.000  H
  C64      1.0000 0.72666  0.86741  0.42910  Biso   1.000  C
  C65      1.0000 0.56636  0.92209  0.45766  Biso   1.000  C
  C66      1.0000 0.81545  0.77074  0.30580  Biso   1.000  C
  C67      1.0000 0.78717  0.83184  0.39332  Biso   1.000  C
  H82      1.0000 0.75253  0.88477  0.45912  Biso   1.000  H
  C68      1.0000 0.56348  0.99174  0.42118  Biso   1.000  C
  H83      1.0000 0.59135  0.91888  0.49871  Biso   1.000  H
  H84      1.0000 0.50112  0.90828  0.46511  Biso   1.000  H
  C69      1.0000 0.85055  0.81616  0.24547  Biso   1.000  C
  H85      1.0000 0.78074  0.73779  0.29500  Biso   1.000  H
  H86      1.0000 0.87084  0.74908  0.32828  Biso   1.000  H
  O13      1.0000 0.88471  0.82057  0.39841  Biso   1.000  O
  C70      1.0000 0.61857  0.03608  0.43504  Biso   1.000  C
  C71      1.0000 0.50617  0.01190  0.37079  Biso   1.000  C
  C72      1.0000 0.80524  0.82493  0.19037  Biso   1.000  C
  C73      1.0000 0.92784  0.85091  0.24542  Biso   1.000  C
  C74      1.0000 0.92422  0.83070  0.45215  Biso   1.000  C
  O14      1.0000 0.67506  0.01449  0.48528  Biso   1.000  O
  C75      1.0000 0.61460  0.09896  0.40006  Biso   1.000  C
  H87      1.0000 0.46847  0.98248  0.36061  Biso   1.000  H
  C76      1.0000 0.50372  0.07445  0.33502  Biso   1.000  C
  O15      1.0000 0.72597  0.79095  0.19287  Biso   1.000  O
  C77      1.0000 0.83864  0.86721  0.13617  Biso   1.000  C
  H88      1.0000 0.95933  0.84537  0.28261  Biso   1.000  H
  C78      1.0000 0.96011  0.89397  0.19174  Biso   1.000  C
  H89      1.0000 0.89192  0.80654  0.49070  Biso   1.000  H
  H90      1.0000 0.91674  0.87647  0.45318  Biso   1.000  H
  C79      1.0000 0.02867  0.80757  0.44762  Biso   1.000  C
  C80      1.0000 0.72446  0.06102  0.50446  Biso   1.000  C
  C81      1.0000 0.55742  0.11903  0.34987  Biso   1.000  C
  H91      1.0000 0.65156  0.12856  0.41072  Biso   1.000  H
  O16      1.0000 0.44778  0.09677  0.28464  Biso   1.000  O
  C82      1.0000 0.68719  0.78971  0.13593  Biso   1.000  C
  C83      1.0000 0.91582  0.90237  0.13598  Biso   1.000  C
  H92      1.0000 0.80795  0.87190  0.09879  Biso   1.000  H
  O17      1.0000 0.03838  0.92859  0.18910  Biso   1.000  O
  H93      1.0000 0.05998  0.83189  0.40940  Biso   1.000  H
  H94      1.0000 0.03510  0.76229  0.44649  Biso   1.000  H
  H95      1.0000 0.05850  0.81354  0.48391  Biso   1.000  H
  H96      1.0000 0.67859  0.09497  0.51582  Biso   1.000  H
  H97      1.0000 0.76906  0.08079  0.47001  Biso   1.000  H
  C84      1.0000 0.77790  0.02741  0.55998  Biso   1.000  C
  C85      1.0000 0.55436  0.18831  0.31211  Biso   1.000  C
  C86      1.0000 0.39521  0.05338  0.26484  Biso   1.000  C
  C87      1.0000 0.60546  0.74759  0.15290  Biso   1.000  C
  H98      1.0000 0.73595  0.77219  0.10770  Biso   1.000  H
  H99      1.0000 0.66442  0.83328  0.11458  Biso   1.000  H
  C88      1.0000 0.94935  0.94959  0.07664  Biso   1.000  C
  C89      1.0000 0.08419  0.92319  0.24589  Biso   1.000  C
  H100     1.0000 0.82345  0.99407  0.54820  Biso   1.000  H
  H101     1.0000 0.73309  0.00814  0.59392  Biso   1.000  H
  H102     1.0000 0.81212  0.05815  0.57398  Biso   1.000  H
  C90      1.0000 0.62057  0.19780  0.25273  Biso   1.000  C
  H103     1.0000 0.48861  0.20228  0.30080  Biso   1.000  H
  H104     1.0000 0.57152  0.21588  0.33888  Biso   1.000  H
  H105     1.0000 0.34918  0.03445  0.29892  Biso   1.000  H
  H106     1.0000 0.43821  0.01860  0.25258  Biso   1.000  H
  C91      1.0000 0.34338  0.09126  0.20932  Biso   1.000  C
  H107     1.0000 0.58224  0.74067  0.11472  Biso   1.000  H
  H108     1.0000 0.55405  0.76837  0.17599  Biso   1.000  H
  H109     1.0000 0.62715  0.70657  0.17882  Biso   1.000  H
  H110     1.0000 0.92633  0.93799  0.04011  Biso   1.000  H
  C92      1.0000 0.91496  0.01904  0.07654  Biso   1.000  C
  H111     1.0000 0.01956  0.94559  0.07202  Biso   1.000  H
  H112     1.0000 0.10721  0.87836  0.26258  Biso   1.000  H
  H113     1.0000 0.03929  0.93798  0.27780  Biso   1.000  H
  C93      1.0000 0.16730  0.96488  0.22921  Biso   1.000  C
  C94      1.0000 0.71696  0.20599  0.25433  Biso   1.000  C
  C95      1.0000 0.58610  0.20025  0.19499  Biso   1.000  C
  H114     1.0000 0.38980  0.10838  0.17538  Biso   1.000  H
  H115     1.0000 0.30277  0.12648  0.22171  Biso   1.000  H
  H116     1.0000 0.30421  0.06337  0.19499  Biso   1.000  H
  C96      1.0000 0.97549  0.06124  0.08625  Biso   1.000  C
  C97      1.0000 0.82188  0.04209  0.06599  Biso   1.000  C
  H117     1.0000 0.21418  0.94721  0.20079  Biso   1.000  H
  H118     1.0000 0.19661  0.96609  0.26729  Biso   1.000  H
  H119     1.0000 0.14415  0.00810  0.20880  Biso   1.000  H
  C98      1.0000 0.77718  0.21342  0.19956  Biso   1.000  C
  O18      1.0000 0.74651  0.20631  0.31263  Biso   1.000  O
  C99      1.0000 0.64610  0.20880  0.14008  Biso   1.000  C
  H120     1.0000 0.52072  0.19607  0.19291  Biso   1.000  H
  C100     1.0000 0.94614  0.12523  0.08668  Biso   1.000  C
  H121     1.0000 0.03965  0.04639  0.09290  Biso   1.000  H
  O19      1.0000 0.77791  0.99581  0.03639  Biso   1.000  O
  C101     1.0000 0.79146  0.10508  0.06749  Biso   1.000  C
  O20      1.0000 0.74805  0.00300  0.07310  Biso   1.000  O
  C102     1.0000 0.74306  0.21385  0.14206  Biso   1.000  C
  H122     1.0000 0.84249  0.21826  0.20140  Biso   1.000  H
  C103     1.0000 0.84101  0.22202  0.31716  Biso   1.000  C
  O21      1.0000 0.61335  0.21160  0.08140  Biso   1.000  O
  C104     1.0000 0.85185  0.14760  0.07871  Biso   1.000  C
  O22      1.0000 0.00648  0.16810  0.09695  Biso   1.000  O
  C105     1.0000 0.69957  0.02021  0.00052  Biso   1.000  C
  H123     1.0000 0.72716  0.11959  0.06071  Biso   1.000  H
  C106     1.0000 0.64746  0.01829  0.09700  Biso   1.000  C
  C107     1.0000 0.81300  0.21526  0.08418  Biso   1.000  C
  H124     1.0000 0.84951  0.26605  0.29392  Biso   1.000  H
  H125     1.0000 0.88785  0.19280  0.29910  Biso   1.000  H
  C108     1.0000 0.85529  0.21566  0.38508  Biso   1.000  C
  C109     1.0000 0.51532  0.21938  0.07513  Biso   1.000  C
  C110     1.0000 0.10574  0.15459  0.08380  Biso   1.000  C
  C111     1.0000 0.66211  0.96884  0.97921  Biso   1.000  C
  H126     1.0000 0.71986  0.05335  0.96399  Biso   1.000  H
  H127     1.0000 0.64936  0.04008  0.02602  Biso   1.000  H
  C112     1.0000 0.60181  0.96181  0.14291  Biso   1.000  C
  H128     1.0000 0.60829  0.03289  0.06090  Biso   1.000  H
  H129     1.0000 0.64639  0.05407  0.11830  Biso   1.000  H
  H130     1.0000 0.65896  0.00067  0.14441  Biso   1.000  H
  H131     1.0000 0.78048  0.23640  0.04628  Biso   1.000  H
  H132     1.0000 0.86636  0.24028  0.08691  Biso   1.000  H
  H133     1.0000 0.91887  0.22719  0.38918  Biso   1.000  H
  H134     1.0000 0.84848  0.17157  0.40751  Biso   1.000  H
  H135     1.0000 0.80770  0.24406  0.40280  Biso   1.000  H
  H136     1.0000 0.48820  0.25950  0.08682  Biso   1.000  H
  H137     1.0000 0.48415  0.18368  0.10332  Biso   1.000  H
  C113     1.0000 0.49771  0.22131  0.00834  Biso   1.000  C
  H138     1.0000 0.11813  0.14797  0.04072  Biso   1.000  H
  H139     1.0000 0.12869  0.11527  0.11288  Biso   1.000  H
  C114     1.0000 0.15735  0.21000  0.09092  Biso   1.000  C
  H140     1.0000 0.63622  0.93841  0.01518  Biso   1.000  H
  H141     1.0000 0.71309  0.94716  0.95659  Biso   1.000  H
  H142     1.0000 0.61158  0.98676  0.95141  Biso   1.000  H
  C115     1.0000 0.60869  0.98746  0.91870  Biso   1.000  C
  C116     1.0000 0.66300  0.93354  0.95810  Biso   1.000  C
  H143     1.0000 0.67781  0.94591  0.99599  Biso   1.000  H
  H144     1.0000 0.61921  0.92250  0.12778  Biso   1.000  H
  H145     1.0000 0.53263  0.97029  0.14550  Biso   1.000  H
  H146     1.0000 0.62473  0.95691  0.18438  Biso   1.000  H
  C117     1.0000 0.52182  0.97249  0.14701  Biso   1.000  C
  C118     1.0000 0.60837  0.98838  0.17689  Biso   1.000  C
  H147     1.0000 0.52173  0.25976  0.98129  Biso   1.000  H
  H148     1.0000 0.53056  0.18356  0.99571  Biso   1.000  H
  H149     1.0000 0.42935  0.22179  0.00471  Biso   1.000  H
  H150     1.0000 0.13735  0.24807  0.06009  Biso   1.000  H
  H151     1.0000 0.22588  0.19997  0.08432  Biso   1.000  H
  H152     1.0000 0.14218  0.21769  0.13301  Biso   1.000  H
  C119     1.0000 0.52969  0.97645  0.89027  Biso   1.000  C
  C120     1.0000 0.63640  0.04955  0.90988  Biso   1.000  C
  H153     1.0000 0.62499  0.89672  0.96960  Biso   1.000  H
  H154     1.0000 0.72206  0.92234  0.93477  Biso   1.000  H
  C121     1.0000 0.49424  0.91038  0.15592  Biso   1.000  C
  C122     1.0000 0.47035  0.02350  0.10968  Biso   1.000  C
  H155     1.0000 0.63124  0.95088  0.20748  Biso   1.000  H
  H156     1.0000 0.58917  0.02357  0.19791  Biso   1.000  H
  H157     1.0000 0.51100  0.93447  0.89626  Biso   1.000  H
  C123     1.0000 0.47828  0.02745  0.85299  Biso   1.000  C
  C124     1.0000 0.58498  0.10065  0.87260  Biso   1.000  C
  H158     1.0000 0.68980  0.05705  0.92916  Biso   1.000  H
  H159     1.0000 0.52897  0.87586  0.18108  Biso   1.000  H
  C125     1.0000 0.41512  0.89930  0.12740  Biso   1.000  C
  C126     1.0000 0.39134  0.01249  0.08130  Biso   1.000  C
  H160     1.0000 0.48910  0.06549  0.10369  Biso   1.000  H
  C127     1.0000 0.39830  0.03814  0.85709  Biso   1.000  C
  C128     1.0000 0.50587  0.08952  0.84408  Biso   1.000  C
  C129     1.0000 0.39181  0.01153  0.82306  Biso   1.000  C
  H161     1.0000 0.60369  0.14255  0.86657  Biso   1.000  H
  H162     1.0000 0.39642  0.85741  0.13339  Biso   1.000  H
  C130     1.0000 0.36370  0.95039  0.09012  Biso   1.000  C
  C131     1.0000 0.33710  0.06640  0.04190  Biso   1.000  C
  C132     1.0000 0.33793  0.03105  0.02079  Biso   1.000  C
  H163     1.0000 0.38845  0.01318  0.04859  Biso   1.000  H
  C133     1.0000 0.35257  0.98165  0.90300  Biso   1.000  C
  H164     1.0000 0.34108  0.99923  0.85559  Biso   1.000  H
  H165     1.0000 0.38090  0.07746  0.87218  Biso   1.000  H
  H166     1.0000 0.46748  0.02965  0.85450  Biso   1.000  H
  H167     1.0000 0.37538  0.04305  0.81557  Biso   1.000  H
  H168     1.0000 0.47122  0.12404  0.81887  Biso   1.000  H
  H169     1.0000 0.41087  0.97633  0.80209  Biso   1.000  H
  H170     1.0000 0.36888  0.04902  0.79247  Biso   1.000  H
  H171     1.0000 0.31031  0.94291  0.07079  Biso   1.000  H
  H172     1.0000 0.36389  0.06154  0.98478  Biso   1.000  H
  H173     1.0000 0.37505  0.10318  0.03040  Biso   1.000  H
  H174     1.0000 0.27798  0.07761  0.06518  Biso   1.000  H
  H175     1.0000 0.32230  0.05398  0.00401  Biso   1.000  H
  H176     1.0000 0.28695  0.05279  0.04336  Biso   1.000  H
  C134     1.0000 0.30054  0.97974  0.99948  Biso   1.000  C
  O23      1.0000 0.25199  0.99695  0.92690  Biso   1.000  O
  H177     1.0000 0.39182  0.96706  0.93906  Biso   1.000  H
  H178     1.0000 0.35372  0.94582  0.88170  Biso   1.000  H
  H179     1.0000 0.28033  0.94656  0.03596  Biso   1.000  H
  H180     1.0000 0.35068  0.95982  0.97398  Biso   1.000  H
  O24      1.0000 0.22220  0.00415  0.96357  Biso   1.000  O
  C135     1.0000 0.17823  0.95782  0.93397  Biso   1.000  C
  C136     1.0000 0.08508  0.98086  0.92346  Biso   1.000  C
  C137     1.0000 0.20859  0.89483  0.93246  Biso   1.000  C
  C138     1.0000 0.02462  0.93870  0.91375  Biso   1.000  C
  C139     1.0000 0.05083  0.05031  0.92336  Biso   1.000  C
  C140     1.0000 0.14819  0.85235  0.92124  Biso   1.000  C
  H181     1.0000 0.27288  0.88035  0.93929  Biso   1.000  H
  H182     1.0000 0.96039  0.95351  0.90710  Biso   1.000  H
  C141     1.0000 0.05391  0.87468  0.91328  Biso   1.000  C
  H183     1.0000 0.98055  0.05435  0.92798  Biso   1.000  H
  C142     1.0000 0.08430  0.09753  0.86402  Biso   1.000  C
  H184     1.0000 0.07385  0.06196  0.95989  Biso   1.000  H
  C143     1.0000 0.18710  0.78469  0.91582  Biso   1.000  C
  O25      1.0000 0.99364  0.83180  0.90300  Biso   1.000  O
  C144     1.0000 0.04000  0.10593  0.80826  Biso   1.000  C
  C145     1.0000 0.16154  0.13273  0.86383  Biso   1.000  C
  C146     1.0000 0.25698  0.78605  0.85794  Biso   1.000  C
  H185     1.0000 0.21956  0.76356  0.95367  Biso   1.000  H
  H186     1.0000 0.13368  0.75962  0.91309  Biso   1.000  H
  C147     1.0000 0.89429  0.84535  0.91620  Biso   1.000  C
  O26      1.0000 0.96173  0.07131  0.81090  Biso   1.000  O
  C148     1.0000 0.07235  0.14900  0.75453  Biso   1.000  C
  H187     1.0000 0.19223  0.12805  0.90116  Biso   1.000  H
  C149     1.0000 0.19494  0.17496  0.80963  Biso   1.000  C
  C150     1.0000 0.22286  0.78648  0.80044  Biso   1.000  C
  C151     1.0000 0.35401  0.79115  0.85992  Biso   1.000  C
  H188     1.0000 0.88191  0.85192  0.95928  Biso   1.000  H
  H189     1.0000 0.87142  0.88464  0.88707  Biso   1.000  H
  C152     1.0000 0.84268  0.78994  0.90908  Biso   1.000  C
  C153     1.0000 0.91592  0.07675  0.75411  Biso   1.000  C
  C154     1.0000 0.14963  0.18373  0.75453  Biso   1.000  C
  H190     1.0000 0.04078  0.15453  0.71739  Biso   1.000  H
  O27      1.0000 0.27421  0.20900  0.80709  Biso   1.000  O
  H191     1.0000 0.15755  0.78163  0.79860  Biso   1.000  H
  C155     1.0000 0.28307  0.79396  0.74567  Biso   1.000  C
  O28      1.0000 0.38669  0.78835  0.91855  Biso   1.000  O
  C156     1.0000 0.41401  0.79964  0.80501  Biso   1.000  C
  H192     1.0000 0.86270  0.75184  0.93986  Biso   1.000  H
  H193     1.0000 0.77423  0.79993  0.91568  Biso   1.000  H
  H194     1.0000 0.85792  0.78225  0.86699  Biso   1.000  H
  H195     1.0000 0.89297  0.12154  0.73738  Biso   1.000  H
  H196     1.0000 0.96082  0.06197  0.72220  Biso   1.000  H
  C157     1.0000 0.83281  0.03506  0.77079  Biso   1.000  C
  C158     1.0000 0.18473  0.22916  0.69420  Biso   1.000  C
  C159     1.0000 0.31291  0.21023  0.86407  Biso   1.000  C
  O29      1.0000 0.25353  0.79363  0.68737  Biso   1.000  O
  C160     1.0000 0.37946  0.80215  0.74727  Biso   1.000  C
  C161     1.0000 0.48480  0.78053  0.92482  Biso   1.000  C
  H197     1.0000 0.47939  0.80383  0.80709  Biso   1.000  H
  H198     1.0000 0.85588  0.99185  0.79120  Biso   1.000  H
  H199     1.0000 0.78592  0.05275  0.79917  Biso   1.000  H
  H200     1.0000 0.80357  0.03387  0.73266  Biso   1.000  H
  C162     1.0000 0.24977  0.19388  0.65164  Biso   1.000  C
  H201     1.0000 0.21944  0.26215  0.70500  Biso   1.000  H
  H202     1.0000 0.12934  0.25088  0.67167  Biso   1.000  H
  H203     1.0000 0.26424  0.22771  0.89230  Biso   1.000  H
  H204     1.0000 0.33570  0.16663  0.88537  Biso   1.000  H
  C163     1.0000 0.39472  0.25236  0.84710  Biso   1.000  C
  C164     1.0000 0.15910  0.77793  0.68280  Biso   1.000  C
  C165     1.0000 0.44567  0.81163  0.68789  Biso   1.000  C
  H205     1.0000 0.51190  0.74044  0.91318  Biso   1.000  H
  H206     1.0000 0.51588  0.81626  0.89668  Biso   1.000  H
  C166     1.0000 0.50240  0.77863  0.99166  Biso   1.000  C
  C167     1.0000 0.21302  0.16805  0.60668  Biso   1.000  C
  C168     1.0000 0.34732  0.18473  0.65730  Biso   1.000  C
  H207     1.0000 0.41794  0.25922  0.88528  Biso   1.000  H
  H208     1.0000 0.44614  0.23154  0.82396  Biso   1.000  H
  H209     1.0000 0.37303  0.29332  0.82118  Biso   1.000  H
  H210     1.0000 0.15060  0.73384  0.70608  Biso   1.000  H
  H211     1.0000 0.11218  0.80715  0.70090  Biso   1.000  H
  C169     1.0000 0.14475  0.78425  0.61488  Biso   1.000  C
  H212     1.0000 0.51149  0.79767  0.69920  Biso   1.000  H
  H213     1.0000 0.42859  0.78408  0.66107  Biso   1.000  H
  C170     1.0000 0.44269  0.88086  0.65013  Biso   1.000  C
  H214     1.0000 0.47838  0.74019  0.01866  Biso   1.000  H
  H215     1.0000 0.46961  0.81638  0.00429  Biso   1.000  H
  H216     1.0000 0.57068  0.77815  0.99529  Biso   1.000  H
  O30      1.0000 0.11548  0.17933  0.60154  Biso   1.000  O
  C171     1.0000 0.27352  0.13254  0.57086  Biso   1.000  C
  H217     1.0000 0.37331  0.20255  0.68699  Biso   1.000  H
  C172     1.0000 0.40863  0.15016  0.62086  Biso   1.000  C
  H218     1.0000 0.08117  0.77277  0.61078  Biso   1.000  H
  H219     1.0000 0.15155  0.82837  0.59249  Biso   1.000  H
  H220     1.0000 0.19234  0.75583  0.59720  Biso   1.000  H
  C173     1.0000 0.38551  0.90099  0.59994  Biso   1.000  C
  C174     1.0000 0.49640  0.92546  0.66493  Biso   1.000  C
  C175     1.0000 0.07589  0.16926  0.54781  Biso   1.000  C
  C176     1.0000 0.37116  0.12184  0.57802  Biso   1.000  C
  H221     1.0000 0.24758  0.11517  0.54088  Biso   1.000  H
  O31      1.0000 0.50653  0.14094  0.62473  Biso   1.000  O
  H222     1.0000 0.34848  0.87134  0.58928  Biso   1.000  H
  C177     1.0000 0.38147  0.96388  0.56492  Biso   1.000  C
  O32      1.0000 0.55226  0.90312  0.71536  Biso   1.000  O
  C178     1.0000 0.49387  0.98804  0.62921  Biso   1.000  C
  C179     1.0000 0.97143  0.19237  0.55238  Biso   1.000  C
  H223     1.0000 0.10819  0.19335  0.50930  Biso   1.000  H
  H224     1.0000 0.08337  0.12348  0.54677  Biso   1.000  H
  C180     1.0000 0.43375  0.07785  0.54234  Biso   1.000  C
  C181     1.0000 0.54979  0.17742  0.65980  Biso   1.000  C
  O33      1.0000 0.32505  0.98547  0.51467  Biso   1.000  O
  C182     1.0000 0.43671  0.00817  0.57877  Biso   1.000  C
  C183     1.0000 0.60490  0.94656  0.73516  Biso   1.000  C
  H225     1.0000 0.53171  0.01746  0.63939  Biso   1.000  H
  H226     1.0000 0.94013  0.16806  0.59060  Biso   1.000  H
  H227     1.0000 0.96501  0.23767  0.55346  Biso   1.000  H
  H228     1.0000 0.94161  0.18635  0.51609  Biso   1.000  H
  H229     1.0000 0.40875  0.08106  0.50129  Biso   1.000  H
  H230     1.0000 0.49898  0.09167  0.53489  Biso   1.000  H
  H231     1.0000 0.53119  0.22334  0.64518  Biso   1.000  H
  H232     1.0000 0.52892  0.16475  0.70457  Biso   1.000  H
  C184     1.0000 0.65621  0.16446  0.65009  Biso   1.000  C
  C185     1.0000 0.27558  0.93894  0.49549  Biso   1.000  C
  H233     1.0000 0.65086  0.96545  0.70108  Biso   1.000  H
  H234     1.0000 0.56190  0.98136  0.74737  Biso   1.000  H
  C186     1.0000 0.65666  0.90864  0.79068  Biso   1.000  C
  H235     1.0000 0.68759  0.18524  0.67676  Biso   1.000  H
  H236     1.0000 0.67320  0.11847  0.66079  Biso   1.000  H
  H237     1.0000 0.67687  0.18114  0.60630  Biso   1.000  H
  H238     1.0000 0.32144  0.90497  0.48418  Biso   1.000  H
  H239     1.0000 0.23097  0.91916  0.52999  Biso   1.000  H
  C187     1.0000 0.22221  0.97254  0.43997  Biso   1.000  C
  H240     1.0000 0.61031  0.89153  0.82457  Biso   1.000  H
  H241     1.0000 0.69726  0.87346  0.77829  Biso   1.000  H
  H242     1.0000 0.69590  0.93654  0.80496  Biso   1.000  H
  H243     1.0000 0.26695  0.99176  0.40608  Biso   1.000  H
  H244     1.0000 0.18799  0.94176  0.42597  Biso   1.000  H
  H245     1.0000 0.17665  0.00587  0.45180  Biso   1.000  H
  C188     1.0000 0.79989  0.66631  0.47595  Biso   1.000  C
  C189     1.0000 0.84183  0.60192  0.51012  Biso   1.000  C
  H246     1.0000 0.76875  0.69006  0.50639  Biso   1.000  H
  H247     1.0000 0.85058  0.69028  0.45111  Biso   1.000  H
  H248     1.0000 0.75328  0.66018  0.44842  Biso   1.000  H
  O34      1.0000 0.91054  0.61376  0.54896  Biso   1.000  O
  H249     1.0000 0.87254  0.57709  0.47991  Biso   1.000  H
  H250     1.0000 0.79144  0.57746  0.53590  Biso   1.000  H
  C190     1.0000 0.95349  0.56165  0.58930  Biso   1.000  C
  C191     1.0000 0.94897  0.49867  0.58563  Biso   1.000  C
  C192     1.0000 0.00508  0.57625  0.63511  Biso   1.000  C
  C193     1.0000 0.99245  0.44770  0.62781  Biso   1.000  C
  H251     1.0000 0.91558  0.48985  0.55372  Biso   1.000  H
  C194     1.0000 0.04932  0.52543  0.67687  Biso   1.000  C
  C195     1.0000 0.01257  0.64514  0.63988  Biso   1.000  C
  C196     1.0000 0.98366  0.37845  0.62404  Biso   1.000  C
  C197     1.0000 0.04218  0.46209  0.67395  Biso   1.000  C
  H252     1.0000 0.08493  0.53414  0.70779  Biso   1.000  H
  C198     1.0000 0.93115  0.66875  0.68192  Biso   1.000  C
  H253     1.0000 0.01199  0.67308  0.59760  Biso   1.000  H
  H254     1.0000 0.07364  0.64816  0.65670  Biso   1.000  H
  C199     1.0000 0.89267  0.35240  0.65911  Biso   1.000  C
  H255     1.0000 0.98426  0.37615  0.57969  Biso   1.000  H
  H256     1.0000 0.03916  0.35145  0.64181  Biso   1.000  H
  O35      1.0000 0.08427  0.41030  0.71543  Biso   1.000  O
  C200     1.0000 0.84804  0.70035  0.65717  Biso   1.000  C
  C201     1.0000 0.93535  0.65681  0.74706  Biso   1.000  C
  C202     1.0000 0.80676  0.36313  0.63002  Biso   1.000  C
  C203     1.0000 0.89137  0.31855  0.72099  Biso   1.000  C
  C204     1.0000 0.12448  0.42221  0.76789  Biso   1.000  C
  C205     1.0000 0.77010  0.71883  0.69507  Biso   1.000  C
  H257     1.0000 0.84427  0.70968  0.61329  Biso   1.000  H
  C206     1.0000 0.85691  0.67361  0.78533  Biso   1.000  C
  O36      1.0000 0.02124  0.62790  0.76944  Biso   1.000  O
  C207     1.0000 0.72233  0.34255  0.66306  Biso   1.000  C
  O37      1.0000 0.81252  0.39561  0.56776  Biso   1.000  O
  C208     1.0000 0.80668  0.29779  0.75403  Biso   1.000  C
  H258     1.0000 0.94885  0.30937  0.74121  Biso   1.000  H
  H259     1.0000 0.17804  0.44914  0.75398  Biso   1.000  H
  H260     1.0000 0.07628  0.44456  0.79259  Biso   1.000  H
  C209     1.0000 0.15877  0.35836  0.80696  Biso   1.000  C
  C210     1.0000 0.77230  0.70433  0.76011  Biso   1.000  C
  O38      1.0000 0.68557  0.74941  0.67089  Biso   1.000  O
  H261     1.0000 0.86056  0.66414  0.82921  Biso   1.000  H
  C211     1.0000 0.03680  0.62346  0.83354  Biso   1.000  C
  C212     1.0000 0.72095  0.30984  0.72575  Biso   1.000  C
  H262     1.0000 0.66508  0.35083  0.64270  Biso   1.000  H
  C213     1.0000 0.73988  0.39645  0.53015  Biso   1.000  C
  O39      1.0000 0.80668  0.27247  0.81978  Biso   1.000  O
  O40      1.0000 0.79605  0.25367  0.81059  Biso   1.000  O
  H263     1.0000 0.18317  0.36465  0.84500  Biso   1.000  H
  H264     1.0000 0.10587  0.33113  0.81818  Biso   1.000  H
  H265     1.0000 0.20932  0.33796  0.78302  Biso   1.000  H
  C214     1.0000 0.68626  0.71899  0.80291  Biso   1.000  C
  C215     1.0000 0.69239  0.79442  0.61136  Biso   1.000  C
  H266     1.0000 0.99108  0.59602  0.86112  Biso   1.000  H
  H267     1.0000 0.02761  0.66625  0.84339  Biso   1.000  H
  C216     1.0000 0.13748  0.59504  0.84401  Biso   1.000  C
  C217     1.0000 0.62763  0.29122  0.76247  Biso   1.000  C
  H268     1.0000 0.72640  0.35236  0.53062  Biso   1.000  H
  H269     1.0000 0.68142  0.41867  0.54617  Biso   1.000  H
  C218     1.0000 0.76784  0.43036  0.46440  Biso   1.000  C
  C219     1.0000 0.88441  0.23385  0.84358  Biso   1.000  C
  C220     1.0000 0.84123  0.21096  0.83378  Biso   1.000  C
  C221     1.0000 0.62417  0.66259  0.82459  Biso   1.000  C
  H270     1.0000 0.70817  0.73033  0.84000  Biso   1.000  H
  H271     1.0000 0.64737  0.75637  0.78071  Biso   1.000  H
  H272     1.0000 0.72375  0.77216  0.57931  Biso   1.000  H
  H273     1.0000 0.62765  0.81057  0.59911  Biso   1.000  H
  C222     1.0000 0.74729  0.85003  0.61292  Biso   1.000  C
  H274     1.0000 0.15060  0.59305  0.88718  Biso   1.000  H
  H275     1.0000 0.14495  0.55205  0.83590  Biso   1.000  H
  H276     1.0000 0.18195  0.62173  0.81559  Biso   1.000  H
  C223     1.0000 0.57999  0.34411  0.79400  Biso   1.000  C
  H277     1.0000 0.58407  0.28193  0.73390  Biso   1.000  H
  H278     1.0000 0.64007  0.25194  0.79471  Biso   1.000  H
  H279     1.0000 0.79021  0.47165  0.46492  Biso   1.000  H
  H280     1.0000 0.81873  0.40455  0.44621  Biso   1.000  H
  H281     1.0000 0.71280  0.43708  0.43942  Biso   1.000  H
  H282     1.0000 0.90811  0.20516  0.81530  Biso   1.000  H
  H283     1.0000 0.93584  0.26064  0.84599  Biso   1.000  H
  C224     1.0000 0.85835  0.19426  0.90830  Biso   1.000  C
  H284     1.0000 0.90796  0.22193  0.82878  Biso   1.000  H
  C225     1.0000 0.81485  0.18595  0.90302  Biso   1.000  C
  H285     1.0000 0.83798  0.17622  0.81182  Biso   1.000  H
  C226     1.0000 0.55861  0.65143  0.78585  Biso   1.000  C
  C227     1.0000 0.63186  0.62058  0.88284  Biso   1.000  C
  H286     1.0000 0.72052  0.86964  0.64742  Biso   1.000  H
  H287     1.0000 0.81388  0.83516  0.61900  Biso   1.000  H
  H288     1.0000 0.74311  0.88146  0.57351  Biso   1.000  H
  C228     1.0000 0.50794  0.38692  0.76633  Biso   1.000  C
  C229     1.0000 0.60905  0.35057  0.85112  Biso   1.000  C
  H289     1.0000 0.91561  0.18133  0.93101  Biso   1.000  H
  H290     1.0000 0.81326  0.21976  0.93130  Biso   1.000  H
  H291     1.0000 0.82927  0.15636  0.90438  Biso   1.000  H
  H292     1.0000 0.83094  0.21614  0.92668  Biso   1.000  H
  H293     1.0000 0.84992  0.14466  0.91730  Biso   1.000  H
  H294     1.0000 0.74651  0.18106  0.90962  Biso   1.000  H
  C230     1.0000 0.50216  0.59997  0.80366  Biso   1.000  C
  H295     1.0000 0.55211  0.67954  0.74640  Biso   1.000  H
  C231     1.0000 0.57737  0.56815  0.89995  Biso   1.000  C
  O41      1.0000 0.69591  0.63407  0.92163  Biso   1.000  O
  O42      1.0000 0.47950  0.37773  0.71029  Biso   1.000  O
  C232     1.0000 0.46698  0.43598  0.79527  Biso   1.000  C
  C233     1.0000 0.56747  0.39925  0.88025  Biso   1.000  C
  H296     1.0000 0.65774  0.32154  0.87040  Biso   1.000  H
  C234     1.0000 0.51281  0.55652  0.86121  Biso   1.000  C
  O43      1.0000 0.43496  0.58709  0.76718  Biso   1.000  O
  H297     1.0000 0.58466  0.53975  0.93922  Biso   1.000  H
  C235     1.0000 0.68218  0.60533  0.98715  Biso   1.000  C
  C236     1.0000 0.39197  0.41040  0.68880  Biso   1.000  C
  C237     1.0000 0.49628  0.44323  0.85178  Biso   1.000  C
  H298     1.0000 0.41818  0.46483  0.77590  Biso   1.000  H
  O44      1.0000 0.59146  0.40710  0.93747  Biso   1.000  O
  C238     1.0000 0.45360  0.49858  0.88091  Biso   1.000  C
  C239     1.0000 0.39981  0.63667  0.71878  Biso   1.000  C
  H299     1.0000 0.69641  0.55865  0.99380  Biso   1.000  H
  H300     1.0000 0.61530  0.61399  0.00228  Biso   1.000  H
  C240     1.0000 0.74559  0.63198  0.02231  Biso   1.000  C
  C241     1.0000 0.36654  0.38447  0.63478  Biso   1.000  C
  H301     1.0000 0.34108  0.40387  0.72302  Biso   1.000  H
  H302     1.0000 0.39884  0.45668  0.67508  Biso   1.000  H
  C242     1.0000 0.66756  0.36652  0.96712  Biso   1.000  C
  H303     1.0000 0.38832  0.51112  0.86800  Biso   1.000  H
  H304     1.0000 0.44977  0.48441  0.92691  Biso   1.000  H
  H305     1.0000 0.37159  0.67324  0.73631  Biso   1.000  H
  H306     1.0000 0.45240  0.65124  0.68762  Biso   1.000  H
  C243     1.0000 0.32565  0.61187  0.68800  Biso   1.000  C
  H307     1.0000 0.74165  0.60920  0.06610  Biso   1.000  H
  H308     1.0000 0.81108  0.62718  0.00440  Biso   1.000  H
  H309     1.0000 0.72621  0.67718  0.01981  Biso   1.000  H
  H310     1.0000 0.35985  0.33866  0.64869  Biso   1.000  H
  H311     1.0000 0.30647  0.40615  0.61980  Biso   1.000  H
  H312     1.0000 0.41678  0.39167  0.60090  Biso   1.000  H
  H313     1.0000 0.65374  0.32144  0.97419  Biso   1.000  H
  H314     1.0000 0.72733  0.37234  0.94030  Biso   1.000  H
  C244     1.0000 0.67726  0.38406  0.02849  Biso   1.000  C
  H315     1.0000 0.27461  0.59674  0.71929  Biso   1.000  H
  H316     1.0000 0.29978  0.64604  0.65529  Biso   1.000  H
  H317     1.0000 0.35466  0.57665  0.66947  Biso   1.000  H
  H318     1.0000 0.61959  0.37510  0.05592  Biso   1.000  H
  H319     1.0000 0.73197  0.35898  0.04819  Biso   1.000  H
  H320     1.0000 0.68665  0.42948  0.02118  Biso   1.000  H
  Ne1      1.0000 0.24448  0.50608  0.25097  Biso   1.000  Ne
  He1      1.0000 0.42683  0.45267  0.39680  Biso   1.000  He
  He2      1.0000 0.08686  0.54536  0.09412  Biso   1.000  He
  Ar1      1.0000 0.23965  0.49540  0.25355  Biso   1.000  Ar
  Ne2      1.0000 0.75564  0.49385  0.74903  Biso   1.000  Ne
  He3      1.0000 0.88333  0.46925  0.87564  Biso   1.000  He
  He4      1.0000 0.60139  0.53325  0.63599  Biso   1.000  He
  Ar2      1.0000 0.76035  0.50412  0.74651  Biso   1.000  Ar
  Ne3      1.0000 0.50005  0.99996  0.99999  Biso   1.000  Ne
  He5      1.0000 0.47695  0.90997  0.00221  Biso   1.000  He
  He6      1.0000 0.65141  0.14153  0.96580  Biso   1.000  He
  Ar3      1.0000 0.50003  0.99997  0.00000  Biso   1.000  Ar
