data_image0
_cell_length_a       20.675
_cell_length_b       21.171
_cell_length_c       26.02
_cell_angle_alpha    67.22
_cell_angle_beta     87.31
_cell_angle_gamma    61.31

_symmetry_space_group_name_H-M    "P 1"
_symmetry_int_tables_number       1

loop_
  _symmetry_equiv_pos_as_xyz
  'x, y, z'

loop_
  _atom_site_label
  _atom_site_occupancy
  _atom_site_fract_x
  _atom_site_fract_y
  _atom_site_fract_z
  _atom_site_thermal_displace_type
  _atom_site_B_iso_or_equiv
  _atom_site_type_symbol
  C1       1.0000 0.71057  0.41778  0.54520  Biso   1.000  C
  C2       1.0000 0.72140  0.35027  0.59047  Biso   1.000  C
  F1       1.0000 0.69110  0.48275  0.55531  Biso   1.000  F
  C3       1.0000 0.71540  0.42279  0.49137  Biso   1.000  C
  C4       1.0000 0.73977  0.28318  0.58400  Biso   1.000  C
  F2       1.0000 0.71519  0.35149  0.64209  Biso   1.000  F
  C5       1.0000 0.73368  0.35527  0.48427  Biso   1.000  C
  B1       1.0000 0.70140  0.49886  0.44001  Biso   1.000  B
  B2       1.0000 0.75010  0.20596  0.63329  Biso   1.000  B
  C6       1.0000 0.74462  0.28705  0.52937  Biso   1.000  C
  H1       1.0000 0.73888  0.35556  0.44779  Biso   1.000  H
  O1       1.0000 0.68950  0.56857  0.43967  Biso   1.000  O
  O2       1.0000 0.69870  0.50293  0.38466  Biso   1.000  O
  O3       1.0000 0.74577  0.14750  0.62402  Biso   1.000  O
  O4       1.0000 0.76265  0.18769  0.68999  Biso   1.000  O
  H2       1.0000 0.75559  0.24199  0.52298  Biso   1.000  H
  C7       1.0000 0.67848  0.61899  0.38267  Biso   1.000  C
  C8       1.0000 0.68379  0.57894  0.34929  Biso   1.000  C
  C9       1.0000 0.75616  0.09089  0.67776  Biso   1.000  C
  C10      1.0000 0.76640  0.11487  0.71749  Biso   1.000  C
  C11      1.0000 0.66500  0.69386  0.35868  Biso   1.000  C
  C12      1.0000 0.67593  0.61191  0.29221  Biso   1.000  C
  C13      1.0000 0.75647  0.02108  0.69177  Biso   1.000  C
  C14      1.0000 0.77745  0.06980  0.77360  Biso   1.000  C
  C15      1.0000 0.65880  0.74693  0.38720  Biso   1.000  C
  C16      1.0000 0.65468  0.73107  0.29978  Biso   1.000  C
  H3       1.0000 0.68073  0.58377  0.27008  Biso   1.000  H
  C17      1.0000 0.66023  0.69014  0.26809  Biso   1.000  C
  H4       1.0000 0.74988  0.00507  0.66388  Biso   1.000  H
  C18      1.0000 0.76660  0.97651  0.74787  Biso   1.000  C
  C19      1.0000 0.78956  0.08623  0.82416  Biso   1.000  C
  C20      1.0000 0.77791  0.99719  0.79048  Biso   1.000  C
  H5       1.0000 0.66665  0.72058  0.42939  Biso   1.000  H
  C21      1.0000 0.58189  0.81903  0.36131  Biso   1.000  C
  C22      1.0000 0.71512  0.77374  0.36520  Biso   1.000  C
  C23      1.0000 0.63802  0.81591  0.27791  Biso   1.000  C
  Br1      1.0000 0.65033  0.73961  0.18778  Biso   1.000  Br
  Br2      1.0000 0.76696  0.87872  0.77127  Biso   1.000  Br
  H6       1.0000 0.78958  0.13708  0.81248  Biso   1.000  H
  C24      1.0000 0.72846  0.08328  0.85788  Biso   1.000  C
  C25      1.0000 0.86182  0.01423  0.86245  Biso   1.000  C
  C26      1.0000 0.78836  0.95491  0.85327  Biso   1.000  C
  C27      1.0000 0.56990  0.85706  0.30258  Biso   1.000  C
  C28      1.0000 0.52177  0.84863  0.38750  Biso   1.000  C
  C29      1.0000 0.70369  0.81153  0.30550  Biso   1.000  C
  C30      1.0000 0.77409  0.76437  0.39461  Biso   1.000  C
  H7       1.0000 0.62960  0.84244  0.23560  Biso   1.000  H
  C31      1.0000 0.72663  0.01223  0.87337  Biso   1.000  C
  C32      1.0000 0.67967  0.13548  0.87929  Biso   1.000  C
  C33      1.0000 0.92046  0.01131  0.88568  Biso   1.000  C
  C34      1.0000 0.86059  0.94229  0.87938  Biso   1.000  C
  H8       1.0000 0.78817  0.90420  0.86499  Biso   1.000  H
  C35      1.0000 0.50131  0.92256  0.27258  Biso   1.000  C
  C36      1.0000 0.45401  0.91204  0.35610  Biso   1.000  C
  O5       1.0000 0.51666  0.82016  0.44479  Biso   1.000  O
  C37      1.0000 0.75089  0.83746  0.27909  Biso   1.000  C
  C38      1.0000 0.82065  0.79208  0.36579  Biso   1.000  C
  O6       1.0000 0.80029  0.72848  0.45207  Biso   1.000  O
  C39      1.0000 0.67373  0.00101  0.90345  Biso   1.000  C
  C40      1.0000 0.62974  0.12020  0.91099  Biso   1.000  C
  O7       1.0000 0.67263  0.20631  0.87417  Biso   1.000  O
  O8       1.0000 0.93214  0.07386  0.87731  Biso   1.000  O
  C41      1.0000 0.97823  0.94135  0.92546  Biso   1.000  C
  C42      1.0000 0.91957  0.87403  0.91818  Biso   1.000  C
  Br3      1.0000 0.48657  0.97556  0.19239  Biso   1.000  Br
  C43      1.0000 0.44080  0.95206  0.29830  Biso   1.000  C
  O9       1.0000 0.40240  0.92843  0.39249  Biso   1.000  O
  B3       1.0000 0.44194  0.87159  0.44589  Biso   1.000  B
  Br4      1.0000 0.73494  0.88897  0.19815  Biso   1.000  Br
  C44      1.0000 0.81240  0.82887  0.30808  Biso   1.000  C
  O10      1.0000 0.87760  0.77334  0.40518  Biso   1.000  O
  B4       1.0000 0.86420  0.73366  0.45778  Biso   1.000  B
  C45      1.0000 0.62336  0.05478  0.92309  Biso   1.000  C
  Br5      1.0000 0.66900  0.90813  0.92046  Biso   1.000  Br
  O11      1.0000 0.59052  0.18030  0.92910  Biso   1.000  O
  B5       1.0000 0.61774  0.23241  0.90498  Biso   1.000  B
  B6       1.0000 0.99844  0.03820  0.91467  Biso   1.000  B
  C46      1.0000 0.97988  0.87092  0.94247  Biso   1.000  C
  O12      1.0000 0.02713  0.95814  0.94462  Biso   1.000  O
  Br6      1.0000 0.91866  0.77619  0.94454  Biso   1.000  Br
  H9       1.0000 0.39360  0.99652  0.27761  Biso   1.000  H
  C47      1.0000 0.40954  0.86419  0.50149  Biso   1.000  C
  H10      1.0000 0.84491  0.84675  0.28950  Biso   1.000  H
  C48      1.0000 0.91677  0.70034  0.51240  Biso   1.000  C
  H11      1.0000 0.58666  0.04690  0.94357  Biso   1.000  H
  C49      1.0000 0.58292  0.31031  0.91408  Biso   1.000  C
  C50      1.0000 0.03684  0.08459  0.91767  Biso   1.000  C
  H12      1.0000 0.01988  0.82283  0.96929  Biso   1.000  H
  C51      1.0000 0.33348  0.91058  0.49840  Biso   1.000  C
  C52      1.0000 0.45324  0.81958  0.55387  Biso   1.000  C
  C53      1.0000 0.90527  0.66266  0.56618  Biso   1.000  C
  C54      1.0000 0.98365  0.70199  0.50957  Biso   1.000  C
  C55      1.0000 0.54862  0.31534  0.95998  Biso   1.000  C
  C56      1.0000 0.57802  0.37943  0.87388  Biso   1.000  C
  C57      1.0000 0.09572  0.05334  0.95876  Biso   1.000  C
  C58      1.0000 0.01374  0.16061  0.87506  Biso   1.000  C
  F3       1.0000 0.28487  0.95115  0.44889  Biso   1.000  F
  C59      1.0000 0.30266  0.91329  0.54718  Biso   1.000  C
  H13      1.0000 0.30154  0.94117  0.46260  Biso   1.000  H
  C60      1.0000 0.42232  0.82269  0.60270  Biso   1.000  C
  H14      1.0000 0.50544  0.78598  0.55738  Biso   1.000  H
  F4       1.0000 0.52987  0.76207  0.56229  Biso   1.000  F
  F5       1.0000 0.84014  0.66077  0.57257  Biso   1.000  F
  C61      1.0000 0.95572  0.63122  0.61416  Biso   1.000  C
  H15      1.0000 0.99454  0.72558  0.47360  Biso   1.000  H
  C62      1.0000 0.03428  0.66998  0.55759  Biso   1.000  C
  C63      1.0000 0.50799  0.38483  0.96557  Biso   1.000  C
  H16      1.0000 0.55331  0.26836  0.98905  Biso   1.000  H
  F6       1.0000 0.55320  0.25229  0.00103  Biso   1.000  F
  C64      1.0000 0.53840  0.44974  0.87917  Biso   1.000  C
  H17      1.0000 0.60254  0.37802  0.84219  Biso   1.000  H
  F7       1.0000 0.61065  0.37421  0.82996  Biso   1.000  F
  F8       1.0000 0.11993  0.97970  0.00217  Biso   1.000  F
  C65      1.0000 0.13176  0.09261  0.95948  Biso   1.000  C
  H18      1.0000 0.97245  0.18471  0.84616  Biso   1.000  H
  C66      1.0000 0.05044  0.20088  0.87489  Biso   1.000  C
  F9       1.0000 0.22723  0.95718  0.54096  Biso   1.000  F
  C67      1.0000 0.34633  0.87217  0.59957  Biso   1.000  C
  H19      1.0000 0.24996  0.94446  0.54367  Biso   1.000  H
  H20      1.0000 0.45401  0.79022  0.63866  Biso   1.000  H
  F10      1.0000 0.47284  0.76478  0.65517  Biso   1.000  F
  F11      1.0000 0.93807  0.59667  0.66498  Biso   1.000  F
  C68      1.0000 0.02157  0.63337  0.61158  Biso   1.000  C
  H21      1.0000 0.07876  0.67299  0.55400  Biso   1.000  H
  C69      1.0000 0.50121  0.45460  0.92537  Biso   1.000  C
  H22      1.0000 0.48412  0.38535  0.99768  Biso   1.000  H
  F12      1.0000 0.47458  0.38649  0.01042  Biso   1.000  F
  H23      1.0000 0.53602  0.49604  0.85107  Biso   1.000  H
  F13      1.0000 0.53301  0.50992  0.83889  Biso   1.000  F
  C70      1.0000 0.11225  0.16630  0.91716  Biso   1.000  C
  F14      1.0000 0.18886  0.05704  0.00289  Biso   1.000  F
  H24      1.0000 0.03384  0.25241  0.84587  Biso   1.000  H
  B7       1.0000 0.31345  0.88338  0.65280  Biso   1.000  B
  B8       1.0000 0.07976  0.59670  0.66447  Biso   1.000  B
  B9       1.0000 0.45091  0.53554  0.92905  Biso   1.000  B
  B10      1.0000 0.15815  0.20711  0.91496  Biso   1.000  B
  O13      1.0000 0.35623  0.83777  0.70607  Biso   1.000  O
  O14      1.0000 0.24421  0.94289  0.65000  Biso   1.000  O
  O15      1.0000 0.08008  0.55056  0.71872  Biso   1.000  O
  O16      1.0000 0.14166  0.60719  0.66088  Biso   1.000  O
  O17      1.0000 0.44603  0.60553  0.89097  Biso   1.000  O
  O18      1.0000 0.40403  0.54610  0.96823  Biso   1.000  O
  O19      1.0000 0.13069  0.28778  0.88932  Biso   1.000  O
  O20      1.0000 0.23359  0.16521  0.93883  Biso   1.000  O
  C71      1.0000 0.30953  0.87338  0.73848  Biso   1.000  C
  C72      1.0000 0.24342  0.93530  0.70539  Biso   1.000  C
  C73      1.0000 0.14295  0.53252  0.75109  Biso   1.000  C
  C74      1.0000 0.18048  0.56658  0.71508  Biso   1.000  C
  C75      1.0000 0.39269  0.66271  0.90697  Biso   1.000  C
  C76      1.0000 0.36740  0.62724  0.95317  Biso   1.000  C
  C77      1.0000 0.19063  0.29733  0.89808  Biso   1.000  C
  C78      1.0000 0.25264  0.22304  0.92846  Biso   1.000  C
  C79      1.0000 0.32422  0.85453  0.79488  Biso   1.000  C
  C80      1.0000 0.18491  0.98358  0.72659  Biso   1.000  C
  C81      1.0000 0.16843  0.48934  0.80766  Biso   1.000  C
  C82      1.0000 0.24644  0.55940  0.73480  Biso   1.000  C
  C83      1.0000 0.36830  0.74062  0.88526  Biso   1.000  C
  C84      1.0000 0.31340  0.66984  0.97886  Biso   1.000  C
  C85      1.0000 0.19466  0.36359  0.88518  Biso   1.000  C
  C86      1.0000 0.32083  0.21259  0.94429  Biso   1.000  C
  C87      1.0000 0.39461  0.78814  0.83779  Biso   1.000  C
  C88      1.0000 0.26747  0.90175  0.81726  Biso   1.000  C
  C89      1.0000 0.20031  0.96399  0.78278  Biso   1.000  C
  H25      1.0000 0.13858  0.02638  0.70349  Biso   1.000  H
  C90      1.0000 0.13394  0.45089  0.85260  Biso   1.000  C
  C91      1.0000 0.23464  0.48102  0.82869  Biso   1.000  C
  C92      1.0000 0.27232  0.51550  0.79298  Biso   1.000  C
  H26      1.0000 0.27195  0.58277  0.71030  Biso   1.000  H
  C93      1.0000 0.31229  0.78754  0.90917  Biso   1.000  C
  C94      1.0000 0.28770  0.75012  0.95567  Biso   1.000  C
  H27      1.0000 0.29567  0.64507  0.01029  Biso   1.000  H
  C95      1.0000 0.26273  0.35480  0.90489  Biso   1.000  C
  H28      1.0000 0.36344  0.16152  0.96328  Biso   1.000  H
  C96      1.0000 0.32381  0.28114  0.93096  Biso   1.000  C
  H29      1.0000 0.43432  0.75512  0.82107  Biso   1.000  H
  C97      1.0000 0.42038  0.82595  0.86465  Biso   1.000  C
  C98      1.0000 0.29131  0.87372  0.88027  Biso   1.000  C
  Br7      1.0000 0.12554  0.02851  0.81409  Biso   1.000  Br
  H30      1.0000 0.08682  0.45742  0.83685  Biso   1.000  H
  C99      1.0000 0.12253  0.48651  0.89499  Biso   1.000  C
  C100     1.0000 0.25713  0.43371  0.89245  Biso   1.000  C
  Br8      1.0000 0.36293  0.50127  0.82276  Biso   1.000  Br
  Br9      1.0000 0.21372  0.81277  0.98816  Biso   1.000  Br
  Br10     1.0000 0.41738  0.26912  0.95114  Biso   1.000  Br
  C101     1.0000 0.36370  0.87583  0.88598  Biso   1.000  C
  C102     1.0000 0.49102  0.81383  0.87439  Biso   1.000  C
  H31      1.0000 0.25139  0.90691  0.89668  Biso   1.000  H
  C103     1.0000 0.19012  0.47603  0.91797  Biso   1.000  C
  C104     1.0000 0.05872  0.52482  0.91297  Biso   1.000  C
  H32      1.0000 0.30432  0.42761  0.90756  Biso   1.000  H
  C105     1.0000 0.37967  0.91212  0.91297  Biso   1.000  C
  C106     1.0000 0.50408  0.85162  0.90286  Biso   1.000  C
  O21      1.0000 0.55775  0.76380  0.86275  Biso   1.000  O
  C107     1.0000 0.18802  0.50503  0.95795  Biso   1.000  C
  O22      1.0000 0.98726  0.54413  0.89508  Biso   1.000  O
  C108     1.0000 0.05843  0.55323  0.95258  Biso   1.000  C
  Br11     1.0000 0.30290  0.97841  0.94209  Biso   1.000  Br
  C109     1.0000 0.45077  0.90195  0.92148  Biso   1.000  C
  O23      1.0000 0.58029  0.82554  0.90984  Biso   1.000  O
  B11      1.0000 0.61211  0.76991  0.88729  Biso   1.000  B
  Br12     1.0000 0.27791  0.49015  0.98969  Biso   1.000  Br
  C110     1.0000 0.12239  0.54426  0.97695  Biso   1.000  C
  B12      1.0000 0.94258  0.58694  0.92427  Biso   1.000  B
  O24      1.0000 0.98549  0.59212  0.96134  Biso   1.000  O
  H33      1.0000 0.46098  0.92875  0.93917  Biso   1.000  H
  C111     1.0000 0.69739  0.72061  0.89465  Biso   1.000  C
  H34      1.0000 0.12167  0.56325  0.00462  Biso   1.000  H
  C112     1.0000 0.85658  0.63073  0.91539  Biso   1.000  C
  C113     1.0000 0.73620  0.68022  0.86267  Biso   1.000  C
  C114     1.0000 0.74031  0.71274  0.93857  Biso   1.000  C
  C115     1.0000 0.81371  0.63739  0.87168  Biso   1.000  C
  C116     1.0000 0.81861  0.66884  0.94869  Biso   1.000  C
  F15      1.0000 0.69801  0.68470  0.81938  Biso   1.000  F
  H35      1.0000 0.71568  0.73790  0.96269  Biso   1.000  H
  F16      1.0000 0.84621  0.60071  0.83795  Biso   1.000  F
  H36      1.0000 0.84590  0.66525  0.97907  Biso   1.000  H
  C117     1.0000 0.28917  0.58238  0.45477  Biso   1.000  C
  C118     1.0000 0.28439  0.57737  0.50860  Biso   1.000  C
  C119     1.0000 0.27842  0.64984  0.40950  Biso   1.000  C
  F17      1.0000 0.30867  0.51736  0.44466  Biso   1.000  F
  B13      1.0000 0.29835  0.50128  0.56000  Biso   1.000  B
  C120     1.0000 0.26609  0.64484  0.51570  Biso   1.000  C
  C121     1.0000 0.25997  0.71698  0.41597  Biso   1.000  C
  F18      1.0000 0.28463  0.64862  0.35788  Biso   1.000  F
  O25      1.0000 0.31029  0.43160  0.56030  Biso   1.000  O
  O26      1.0000 0.30106  0.49718  0.61531  Biso   1.000  O
  C122     1.0000 0.25519  0.71306  0.47060  Biso   1.000  C
  H37      1.0000 0.26086  0.64460  0.55218  Biso   1.000  H
  B14      1.0000 0.24971  0.79415  0.36668  Biso   1.000  B
  C123     1.0000 0.32126  0.38117  0.61730  Biso   1.000  C
  C124     1.0000 0.31598  0.42117  0.65068  Biso   1.000  C
  H38      1.0000 0.24415  0.75817  0.47699  Biso   1.000  H
  O27      1.0000 0.23709  0.81247  0.30998  Biso   1.000  O
  O28      1.0000 0.25397  0.85267  0.37595  Biso   1.000  O
  C125     1.0000 0.33474  0.30630  0.64129  Biso   1.000  C
  C126     1.0000 0.32383  0.38820  0.70776  Biso   1.000  C
  C127     1.0000 0.23341  0.88524  0.28248  Biso   1.000  C
  C128     1.0000 0.24361  0.90922  0.32221  Biso   1.000  C
  C129     1.0000 0.34097  0.25318  0.61277  Biso   1.000  C
  C130     1.0000 0.34506  0.26909  0.70019  Biso   1.000  C
  C131     1.0000 0.33956  0.31002  0.73188  Biso   1.000  C
  H39      1.0000 0.31906  0.41639  0.72989  Biso   1.000  H
  C132     1.0000 0.22230  0.93033  0.22641  Biso   1.000  C
  C133     1.0000 0.24330  0.97903  0.30820  Biso   1.000  C
  C134     1.0000 0.41788  0.18108  0.63866  Biso   1.000  C
  C135     1.0000 0.28470  0.22637  0.63477  Biso   1.000  C
  H40      1.0000 0.33309  0.27958  0.57058  Biso   1.000  H
  C136     1.0000 0.36175  0.18420  0.72206  Biso   1.000  C
  Br13     1.0000 0.34943  0.26050  0.81219  Biso   1.000  Br
  C137     1.0000 0.21023  0.91393  0.17581  Biso   1.000  C
  C138     1.0000 0.22191  0.00292  0.20949  Biso   1.000  C
  C139     1.0000 0.23319  0.02366  0.25210  Biso   1.000  C
  H41      1.0000 0.24989  0.99504  0.33609  Biso   1.000  H
  C140     1.0000 0.47799  0.15148  0.61247  Biso   1.000  C
  C141     1.0000 0.42989  0.14310  0.69739  Biso   1.000  C
  C142     1.0000 0.22570  0.23579  0.60536  Biso   1.000  C
  C143     1.0000 0.29607  0.18858  0.69447  Biso   1.000  C
  H42      1.0000 0.37014  0.15772  0.76437  Biso   1.000  H
  C144     1.0000 0.27131  0.91683  0.14209  Biso   1.000  C
  C145     1.0000 0.13792  0.98593  0.13752  Biso   1.000  C
  H43      1.0000 0.21023  0.86303  0.18749  Biso   1.000  H
  C146     1.0000 0.21138  0.04525  0.14670  Biso   1.000  C
  Br14     1.0000 0.23283  0.12144  0.22870  Biso   1.000  Br
  O29      1.0000 0.48309  0.17997  0.55522  Biso   1.000  O
  C147     1.0000 0.54581  0.08807  0.64387  Biso   1.000  C
  C148     1.0000 0.49848  0.07760  0.72739  Biso   1.000  C
  O30      1.0000 0.19950  0.27168  0.54790  Biso   1.000  O
  C149     1.0000 0.17909  0.20808  0.63418  Biso   1.000  C
  C150     1.0000 0.24885  0.16270  0.72088  Biso   1.000  C
  C151     1.0000 0.32015  0.86460  0.12072  Biso   1.000  C
  C152     1.0000 0.27311  0.98793  0.12660  Biso   1.000  C
  C153     1.0000 0.07933  0.98885  0.11429  Biso   1.000  C
  C154     1.0000 0.13918  0.05782  0.12059  Biso   1.000  C
  H44      1.0000 0.21157  0.09596  0.13498  Biso   1.000  H
  B15      1.0000 0.55781  0.12857  0.55408  Biso   1.000  B
  O31      1.0000 0.59737  0.07168  0.60748  Biso   1.000  O
  C155     1.0000 0.55895  0.04811  0.70167  Biso   1.000  C
  Br15     1.0000 0.51324  0.02455  0.80757  Biso   1.000  Br
  B16      1.0000 0.13562  0.26645  0.54219  Biso   1.000  B
  O32      1.0000 0.12217  0.22677  0.59479  Biso   1.000  O
  C156     1.0000 0.18738  0.17129  0.69189  Biso   1.000  C
  Br16     1.0000 0.26482  0.11114  0.80182  Biso   1.000  Br
  O33      1.0000 0.32712  0.79383  0.12584  Biso   1.000  O
  C157     1.0000 0.37003  0.87991  0.08898  Biso   1.000  C
  C158     1.0000 0.32603  0.99910  0.09651  Biso   1.000  C
  O34      1.0000 0.06766  0.92628  0.12271  Biso   1.000  O
  C159     1.0000 0.02151  0.05881  0.07451  Biso   1.000  C
  C160     1.0000 0.08017  0.12613  0.08179  Biso   1.000  C
  C161     1.0000 0.59020  0.13597  0.49848  Biso   1.000  C
  H45      1.0000 0.60617  0.00356  0.72240  Biso   1.000  H
  C162     1.0000 0.08299  0.29977  0.48757  Biso   1.000  C
  H46      1.0000 0.15488  0.15342  0.71047  Biso   1.000  H
  B17      1.0000 0.38200  0.76775  0.09499  Biso   1.000  B
  O35      1.0000 0.40925  0.81981  0.07087  Biso   1.000  O
  C163     1.0000 0.37641  0.94532  0.07688  Biso   1.000  C
  Br17     1.0000 0.33077  0.09195  0.07955  Biso   1.000  Br
  B18      1.0000 0.00133  0.96190  0.08530  Biso   1.000  B
  O36      1.0000 0.97266  0.04203  0.05534  Biso   1.000  O
  C164     1.0000 0.01991  0.12924  0.05750  Biso   1.000  C
  Br18     1.0000 0.08116  0.22392  0.05543  Biso   1.000  Br
  C165     1.0000 0.66631  0.08959  0.50157  Biso   1.000  C
  C166     1.0000 0.54653  0.18053  0.44610  Biso   1.000  C
  C167     1.0000 0.09449  0.33744  0.43379  Biso   1.000  C
  C168     1.0000 0.01609  0.29817  0.49040  Biso   1.000  C
  C169     1.0000 0.41684  0.68980  0.08589  Biso   1.000  C
  H47      1.0000 0.41311  0.95321  0.05640  Biso   1.000  H
  C170     1.0000 0.96293  0.91552  0.08230  Biso   1.000  C
  H48      1.0000 0.97992  0.17731  0.03072  Biso   1.000  H
  C171     1.0000 0.69713  0.08688  0.45279  Biso   1.000  C
  F19      1.0000 0.71489  0.04896  0.55108  Biso   1.000  F
  H49      1.0000 0.69820  0.05899  0.53737  Biso   1.000  H
  C172     1.0000 0.57742  0.17747  0.39727  Biso   1.000  C
  H50      1.0000 0.49430  0.21418  0.44259  Biso   1.000  H
  F20      1.0000 0.46990  0.23804  0.43768  Biso   1.000  F
  C173     1.0000 0.04402  0.36894  0.38580  Biso   1.000  C
  F21      1.0000 0.15962  0.33933  0.42740  Biso   1.000  F
  C174     1.0000 0.96551  0.33018  0.44238  Biso   1.000  C
  H51      1.0000 0.00520  0.27459  0.52637  Biso   1.000  H
  C175     1.0000 0.45117  0.68483  0.03999  Biso   1.000  C
  C176     1.0000 0.42172  0.62073  0.12609  Biso   1.000  C
  C177     1.0000 0.90402  0.94682  0.04121  Biso   1.000  C
  C178     1.0000 0.98601  0.83955  0.12491  Biso   1.000  C
  C179     1.0000 0.65343  0.12794  0.40040  Biso   1.000  C
  F22      1.0000 0.77254  0.04292  0.45901  Biso   1.000  F
  H52      1.0000 0.74980  0.05565  0.45630  Biso   1.000  H
  H53      1.0000 0.54573  0.20994  0.36131  Biso   1.000  H
  F23      1.0000 0.52693  0.23533  0.34480  Biso   1.000  F
  C180     1.0000 0.97820  0.36674  0.38839  Biso   1.000  C
  F24      1.0000 0.06174  0.40344  0.33499  Biso   1.000  F
  H54      1.0000 0.92098  0.32717  0.44597  Biso   1.000  H
  C181     1.0000 0.49175  0.61534  0.03440  Biso   1.000  C
  H55      1.0000 0.44648  0.73180  0.01092  Biso   1.000  H
  F25      1.0000 0.44659  0.74788  0.99894  Biso   1.000  F
  C182     1.0000 0.46134  0.55042  0.12080  Biso   1.000  C
  H56      1.0000 0.39725  0.62214  0.15778  Biso   1.000  H
  F26      1.0000 0.38917  0.62590  0.17001  Biso   1.000  F
  C183     1.0000 0.86806  0.90750  0.04049  Biso   1.000  C
  F27      1.0000 0.87982  0.02046  0.99780  Biso   1.000  F
  C184     1.0000 0.94932  0.79923  0.12508  Biso   1.000  C
  H57      1.0000 0.02729  0.81545  0.15381  Biso   1.000  H
  B19      1.0000 0.68629  0.11678  0.34717  Biso   1.000  B
  B20      1.0000 0.91998  0.40347  0.33550  Biso   1.000  B
  C185     1.0000 0.49855  0.54551  0.07460  Biso   1.000  C
  H58      1.0000 0.51567  0.61482  0.00228  Biso   1.000  H
  F28      1.0000 0.52516  0.61367  0.98955  Biso   1.000  F
  H59      1.0000 0.46372  0.50412  0.14890  Biso   1.000  H
  F29      1.0000 0.46673  0.49024  0.16108  Biso   1.000  F
  C186     1.0000 0.88752  0.83381  0.08281  Biso   1.000  C
  F30      1.0000 0.81096  0.94307  0.99708  Biso   1.000  F
  H60      1.0000 0.96593  0.74770  0.15410  Biso   1.000  H
  O37      1.0000 0.64354  0.16234  0.29390  Biso   1.000  O
  O38      1.0000 0.75556  0.05722  0.34997  Biso   1.000  O
  O39      1.0000 0.91974  0.44954  0.28125  Biso   1.000  O
  O40      1.0000 0.85808  0.39297  0.33909  Biso   1.000  O
  B21      1.0000 0.54883  0.46463  0.07092  Biso   1.000  B
  B22      1.0000 0.84162  0.79300  0.08501  Biso   1.000  B
  C187     1.0000 0.69024  0.12673  0.26149  Biso   1.000  C
  C188     1.0000 0.75632  0.06487  0.29458  Biso   1.000  C
  C189     1.0000 0.85684  0.46764  0.24888  Biso   1.000  C
  C190     1.0000 0.81934  0.43353  0.28489  Biso   1.000  C
  O41      1.0000 0.55371  0.39463  0.10900  Biso   1.000  O
  O42      1.0000 0.59579  0.45401  0.03173  Biso   1.000  O
  O43      1.0000 0.86907  0.71233  0.11065  Biso   1.000  O
  O44      1.0000 0.76623  0.83490  0.06114  Biso   1.000  O
  C191     1.0000 0.67557  0.14563  0.20509  Biso   1.000  C
  C192     1.0000 0.81486  0.01653  0.27338  Biso   1.000  C
  C193     1.0000 0.83131  0.51082  0.19231  Biso   1.000  C
  C194     1.0000 0.75330  0.44076  0.26517  Biso   1.000  C
  C195     1.0000 0.60708  0.33739  0.09300  Biso   1.000  C
  C196     1.0000 0.63234  0.37292  0.04680  Biso   1.000  C
  C197     1.0000 0.80915  0.70283  0.10189  Biso   1.000  C
  C198     1.0000 0.74715  0.77712  0.07151  Biso   1.000  C
  C199     1.0000 0.60517  0.21203  0.16218  Biso   1.000  C
  C200     1.0000 0.73227  0.09842  0.18270  Biso   1.000  C
  C201     1.0000 0.79945  0.03612  0.21719  Biso   1.000  C
  H61      1.0000 0.86118  0.97373  0.29648  Biso   1.000  H
  C202     1.0000 0.86584  0.54919  0.14742  Biso   1.000  C
  C203     1.0000 0.76515  0.51914  0.17128  Biso   1.000  C
  C204     1.0000 0.72744  0.48461  0.20699  Biso   1.000  C
  H62      1.0000 0.72782  0.41734  0.28967  Biso   1.000  H
  C205     1.0000 0.63147  0.25949  0.11471  Biso   1.000  C
  C206     1.0000 0.68638  0.33032  0.02111  Biso   1.000  C
  C207     1.0000 0.80515  0.63652  0.11479  Biso   1.000  C
  C208     1.0000 0.67893  0.78752  0.05568  Biso   1.000  C
  C209     1.0000 0.57936  0.17421  0.13532  Biso   1.000  C
  H63      1.0000 0.56546  0.24505  0.17890  Biso   1.000  H
  C210     1.0000 0.70850  0.12639  0.11970  Biso   1.000  C
  Br19     1.0000 0.87425  0.97165  0.18588  Biso   1.000  Br
  C211     1.0000 0.87725  0.51366  0.10498  Biso   1.000  C
  H64      1.0000 0.91292  0.54274  0.16311  Biso   1.000  H
  C212     1.0000 0.74264  0.56640  0.10752  Biso   1.000  C
  Br20     1.0000 0.63684  0.49883  0.17720  Biso   1.000  Br
  C213     1.0000 0.68745  0.21263  0.09080  Biso   1.000  C
  C214     1.0000 0.71207  0.24999  0.04430  Biso   1.000  C
  H65      1.0000 0.70410  0.35504  0.98968  Biso   1.000  H
  C215     1.0000 0.73705  0.64529  0.09512  Biso   1.000  C
  C216     1.0000 0.67593  0.71902  0.06901  Biso   1.000  C
  H66      1.0000 0.63630  0.83865  0.03668  Biso   1.000  H
  C217     1.0000 0.50877  0.18634  0.12558  Biso   1.000  C
  C218     1.0000 0.63604  0.12433  0.11399  Biso   1.000  C
  H67      1.0000 0.74838  0.09320  0.10328  Biso   1.000  H
  C219     1.0000 0.94102  0.47534  0.08699  Biso   1.000  C
  C220     1.0000 0.80967  0.52413  0.08200  Biso   1.000  C
  H68      1.0000 0.69545  0.57250  0.09241  Biso   1.000  H
  Br21     1.0000 0.78607  0.18740  0.01181  Biso   1.000  Br
  Br22     1.0000 0.58239  0.73099  0.04883  Biso   1.000  Br
  O45      1.0000 0.44201  0.23631  0.13722  Biso   1.000  O
  C221     1.0000 0.49568  0.14849  0.09711  Biso   1.000  C
  C222     1.0000 0.62007  0.08804  0.08699  Biso   1.000  C
  O46      1.0000 0.01252  0.45604  0.10489  Biso   1.000  O
  C223     1.0000 0.94136  0.44694  0.04739  Biso   1.000  C
  C224     1.0000 0.81180  0.49508  0.04202  Biso   1.000  C
  B23      1.0000 0.38763  0.23025  0.11268  Biso   1.000  B
  O47      1.0000 0.41945  0.17463  0.09013  Biso   1.000  O
  C225     1.0000 0.54897  0.09821  0.07849  Biso   1.000  C
  Br23     1.0000 0.69685  0.02175  0.05788  Biso   1.000  Br
  B24      1.0000 0.05716  0.41322  0.07570  Biso   1.000  B
  O48      1.0000 0.01425  0.40805  0.03863  Biso   1.000  O
  C226     1.0000 0.87735  0.45591  0.02302  Biso   1.000  C
  Br24     1.0000 0.72186  0.50995  0.01028  Biso   1.000  Br
  C227     1.0000 0.30238  0.27950  0.10532  Biso   1.000  C
  H69      1.0000 0.53876  0.07142  0.06080  Biso   1.000  H
  C228     1.0000 0.14316  0.36944  0.08458  Biso   1.000  C
  H70      1.0000 0.87809  0.43686  0.99535  Biso   1.000  H
  C229     1.0000 0.26354  0.31994  0.13730  Biso   1.000  C
  C230     1.0000 0.25948  0.28742  0.06140  Biso   1.000  C
  C231     1.0000 0.18606  0.36272  0.12829  Biso   1.000  C
  C232     1.0000 0.18118  0.33132  0.05128  Biso   1.000  C
  F31      1.0000 0.30176  0.31541  0.18059  Biso   1.000  F
  H71      1.0000 0.28409  0.26219  0.03732  Biso   1.000  H
  F32      1.0000 0.15356  0.39940  0.16201  Biso   1.000  F
  H72      1.0000 0.15389  0.33491  0.02090  Biso   1.000  H
  Ne1      1.0000 0.26302  0.48221  0.26979  Biso   1.000  Ne
  He1      1.0000 0.40707  0.46182  0.32076  Biso   1.000  He
  He2      1.0000 0.14887  0.57644  0.28428  Biso   1.000  He
  He3      1.0000 0.30797  0.29249  0.33361  Biso   1.000  He
  He4      1.0000 0.19610  0.58245  0.17467  Biso   1.000  He
  Ar1      1.0000 0.25887  0.48767  0.27588  Biso   1.000  Ar
  Ne2      1.0000 0.73675  0.51792  0.73018  Biso   1.000  Ne
  He5      1.0000 0.81144  0.37670  0.92254  Biso   1.000  He
  He6      1.0000 0.59129  0.53838  0.67877  Biso   1.000  He
  He7      1.0000 0.92694  0.37597  0.66814  Biso   1.000  He
  He8      1.0000 0.68832  0.72393  0.66210  Biso   1.000  He
  Ar2      1.0000 0.74093  0.51247  0.72406  Biso   1.000  Ar
