data_image0
_cell_length_a       12.691
_cell_length_b       12.694
_cell_length_c       32.898
_cell_angle_alpha    80.85
_cell_angle_beta     85.53
_cell_angle_gamma    84.36

_symmetry_space_group_name_H-M    "P 1"
_symmetry_int_tables_number       1

loop_
  _symmetry_equiv_pos_as_xyz
  'x, y, z'

loop_
  _atom_site_label
  _atom_site_occupancy
  _atom_site_fract_x
  _atom_site_fract_y
  _atom_site_fract_z
  _atom_site_thermal_displace_type
  _atom_site_B_iso_or_equiv
  _atom_site_type_symbol
  C1       1.0000 0.58293  0.85707  0.53502  Biso   1.000  C
  C2       1.0000 0.50050  0.88220  0.56769  Biso   1.000  C
  H1       1.0000 0.54930  0.85345  0.51018  Biso   1.000  H
  H2       1.0000 0.63069  0.91266  0.52977  Biso   1.000  H
  H3       1.0000 0.62152  0.78986  0.54402  Biso   1.000  H
  H4       1.0000 0.61768  0.93663  0.54819  Biso   1.000  H
  C3       1.0000 0.52183  0.82246  0.60900  Biso   1.000  C
  H5       1.0000 0.49999  0.83927  0.58095  Biso   1.000  H
  H6       1.0000 0.43225  0.86561  0.56022  Biso   1.000  H
  H7       1.0000 0.49599  0.95832  0.56898  Biso   1.000  H
  C4       1.0000 0.42287  0.82194  0.63689  Biso   1.000  C
  H8       1.0000 0.54865  0.74933  0.60656  Biso   1.000  H
  H9       1.0000 0.57561  0.85546  0.62081  Biso   1.000  H
  H10      1.0000 0.55487  0.74968  0.61227  Biso   1.000  H
  C5       1.0000 0.60815  0.89541  0.61270  Biso   1.000  C
  O1       1.0000 0.39683  0.92714  0.64710  Biso   1.000  O
  H11      1.0000 0.43386  0.77105  0.66184  Biso   1.000  H
  H12      1.0000 0.36507  0.80076  0.62322  Biso   1.000  H
  H13      1.0000 0.57655  0.95888  0.62353  Biso   1.000  H
  H14      1.0000 0.65883  0.85829  0.63186  Biso   1.000  H
  C6       1.0000 0.66695  0.92914  0.56929  Biso   1.000  C
  C7       1.0000 0.31314  0.93120  0.67641  Biso   1.000  C
  H15      1.0000 0.69633  0.99650  0.56892  Biso   1.000  H
  H16      1.0000 0.72324  0.87550  0.56442  Biso   1.000  H
  C8       1.0000 0.20861  0.93794  0.66240  Biso   1.000  C
  C9       1.0000 0.32976  0.92835  0.71679  Biso   1.000  C
  C10      1.0000 0.12183  0.94057  0.69013  Biso   1.000  C
  O2       1.0000 0.19635  0.93515  0.62149  Biso   1.000  O
  C11      1.0000 0.24165  0.93163  0.74647  Biso   1.000  C
  C12      1.0000 0.44166  0.91207  0.73092  Biso   1.000  C
  C13      1.0000 0.01238  0.93636  0.67579  Biso   1.000  C
  C14      1.0000 0.13654  0.93797  0.73286  Biso   1.000  C
  C15      1.0000 0.20744  0.03718  0.59533  Biso   1.000  C
  C16      1.0000 0.25435  0.92646  0.78910  Biso   1.000  C
  H17      1.0000 0.45046  0.95882  0.75079  Biso   1.000  H
  H18      1.0000 0.49284  0.92648  0.70772  Biso   1.000  H
  O3       1.0000 0.45484  0.80146  0.74955  Biso   1.000  O
  O4       1.0000 0.98505  0.82902  0.68976  Biso   1.000  O
  H19      1.0000 0.01270  0.95267  0.64599  Biso   1.000  H
  H20      1.0000 0.96187  0.98739  0.68763  Biso   1.000  H
  C17      1.0000 0.05016  0.93848  0.76276  Biso   1.000  C
  H21      1.0000 0.15145  0.08962  0.60283  Biso   1.000  H
  H22      1.0000 0.27519  0.06283  0.59891  Biso   1.000  H
  C18      1.0000 0.20105  0.02291  0.55201  Biso   1.000  C
  C19      1.0000 0.16892  0.92520  0.81709  Biso   1.000  C
  H23      1.0000 0.32218  0.92378  0.79827  Biso   1.000  H
  C20      1.0000 0.55865  0.77236  0.76467  Biso   1.000  C
  C21      1.0000 0.88097  0.81374  0.67958  Biso   1.000  C
  C22      1.0000 0.06513  0.93217  0.80326  Biso   1.000  C
  H24      1.0000 0.98142  0.94325  0.75430  Biso   1.000  H
  H25      1.0000 0.26394  0.97884  0.54415  Biso   1.000  H
  C23      1.0000 0.10858  0.97503  0.54159  Biso   1.000  C
  H26      1.0000 0.13697  0.98733  0.55149  Biso   1.000  H
  C24      1.0000 0.28095  0.96912  0.52632  Biso   1.000  C
  H27      1.0000 0.20370  0.09257  0.53502  Biso   1.000  H
  H28      1.0000 0.18721  0.09450  0.53693  Biso   1.000  H
  H29      1.0000 0.17894  0.91965  0.84507  Biso   1.000  H
  H30      1.0000 0.61309  0.78578  0.74258  Biso   1.000  H
  H31      1.0000 0.56991  0.81294  0.78633  Biso   1.000  H
  C25      1.0000 0.56061  0.65444  0.78117  Biso   1.000  C
  C26      1.0000 0.86395  0.69874  0.69652  Biso   1.000  C
  H32      1.0000 0.82850  0.86185  0.69202  Biso   1.000  H
  H33      1.0000 0.87566  0.82692  0.64990  Biso   1.000  H
  H34      1.0000 0.00689  0.93250  0.82224  Biso   1.000  H
  H35      1.0000 0.10038  0.90757  0.55960  Biso   1.000  H
  C27      1.0000 0.12358  0.95520  0.49531  Biso   1.000  C
  H36      1.0000 0.04508  0.02245  0.54538  Biso   1.000  H
  H37      1.0000 0.30163  0.89688  0.53943  Biso   1.000  H
  C28      1.0000 0.21393  0.96811  0.48411  Biso   1.000  C
  H38      1.0000 0.34274  0.00874  0.51984  Biso   1.000  H
  C29      1.0000 0.54666  0.61964  0.82227  Biso   1.000  C
  C30      1.0000 0.57042  0.57863  0.75273  Biso   1.000  C
  C31      1.0000 0.87412  0.62444  0.67027  Biso   1.000  C
  C32      1.0000 0.84568  0.66654  0.73943  Biso   1.000  C
  H39      1.0000 0.06347  0.92248  0.48859  Biso   1.000  H
  H40      1.0000 0.18688  0.90884  0.49164  Biso   1.000  H
  H41      1.0000 0.16803  0.91155  0.48920  Biso   1.000  H
  H42      1.0000 0.12938  0.02248  0.47754  Biso   1.000  H
  H43      1.0000 0.17330  0.03576  0.47760  Biso   1.000  H
  H44      1.0000 0.26414  0.95711  0.46131  Biso   1.000  H
  C33      1.0000 0.53635  0.50967  0.83791  Biso   1.000  C
  O5       1.0000 0.54184  0.69007  0.85050  Biso   1.000  O
  C34      1.0000 0.56335  0.46859  0.76834  Biso   1.000  C
  C35      1.0000 0.58363  0.61000  0.70951  Biso   1.000  C
  O6       1.0000 0.90493  0.65334  0.62927  Biso   1.000  O
  C36      1.0000 0.86461  0.51343  0.68591  Biso   1.000  C
  C37      1.0000 0.83881  0.55532  0.75541  Biso   1.000  C
  C38      1.0000 0.83538  0.74081  0.76797  Biso   1.000  C
  C39      1.0000 0.54532  0.43485  0.81156  Biso   1.000  C
  O7       1.0000 0.51072  0.48014  0.87928  Biso   1.000  O
  C40      1.0000 0.43724  0.72586  0.86447  Biso   1.000  C
  C41      1.0000 0.57206  0.39497  0.73956  Biso   1.000  C
  H45      1.0000 0.58694  0.68218  0.69896  Biso   1.000  H
  C42      1.0000 0.59175  0.53631  0.68291  Biso   1.000  C
  C43      1.0000 0.82409  0.65882  0.60045  Biso   1.000  C
  C44      1.0000 0.84927  0.47917  0.72703  Biso   1.000  C
  O8       1.0000 0.87015  0.44331  0.65789  Biso   1.000  O
  C45      1.0000 0.82382  0.52512  0.79830  Biso   1.000  C
  C46      1.0000 0.82010  0.70840  0.80903  Biso   1.000  C
  H46      1.0000 0.83913  0.81333  0.75816  Biso   1.000  H
  C47      1.0000 0.52800  0.32065  0.82847  Biso   1.000  C
  C48      1.0000 0.59850  0.47288  0.90541  Biso   1.000  C
  H47      1.0000 0.39783  0.76156  0.84130  Biso   1.000  H
  H48      1.0000 0.39988  0.66533  0.87798  Biso   1.000  H
  C49      1.0000 0.44672  0.80215  0.89430  Biso   1.000  C
  C50      1.0000 0.58518  0.42751  0.69859  Biso   1.000  C
  H49      1.0000 0.56872  0.32241  0.74927  Biso   1.000  H
  H50      1.0000 0.60161  0.55828  0.65462  Biso   1.000  H
  C51      1.0000 0.87468  0.69707  0.55803  Biso   1.000  C
  H51      1.0000 0.79866  0.58883  0.60128  Biso   1.000  H
  H52      1.0000 0.76459  0.70840  0.60718  Biso   1.000  H
  C52      1.0000 0.84991  0.36150  0.74332  Biso   1.000  C
  C53      1.0000 0.97638  0.40343  0.64565  Biso   1.000  C
  H53      1.0000 0.82016  0.45315  0.80891  Biso   1.000  H
  C54      1.0000 0.81441  0.59885  0.82498  Biso   1.000  C
  H54      1.0000 0.81334  0.75868  0.82699  Biso   1.000  H
  O9       1.0000 0.42349  0.30439  0.81857  Biso   1.000  O
  H55      1.0000 0.53362  0.30756  0.85812  Biso   1.000  H
  H56      1.0000 0.58040  0.27237  0.81607  Biso   1.000  H
  H57      1.0000 0.65425  0.42058  0.89754  Biso   1.000  H
  H58      1.0000 0.62749  0.54166  0.90282  Biso   1.000  H
  C55      1.0000 0.55659  0.43938  0.94860  Biso   1.000  C
  H59      1.0000 0.48672  0.76458  0.91701  Biso   1.000  H
  H60      1.0000 0.37622  0.82287  0.90553  Biso   1.000  H
  C56      1.0000 0.49824  0.90055  0.87690  Biso   1.000  C
  H61      1.0000 0.58971  0.37757  0.68057  Biso   1.000  H
  C57      1.0000 0.96315  0.62189  0.54439  Biso   1.000  C
  H62      1.0000 0.90135  0.76601  0.55825  Biso   1.000  H
  H63      1.0000 0.82055  0.70749  0.53813  Biso   1.000  H
  H64      1.0000 0.84179  0.32097  0.72132  Biso   1.000  H
  H65      1.0000 0.79322  0.34806  0.76445  Biso   1.000  H
  O10      1.0000 0.95200  0.33334  0.76026  Biso   1.000  O
  H66      1.0000 0.01692  0.46246  0.63312  Biso   1.000  H
  H67      1.0000 0.01178  0.36610  0.66956  Biso   1.000  H
  C58      1.0000 0.96878  0.32790  0.61510  Biso   1.000  C
  H68      1.0000 0.80440  0.57690  0.85324  Biso   1.000  H
  C59      1.0000 0.39600  0.19676  0.83226  Biso   1.000  C
  H69      1.0000 0.50718  0.49806  0.95554  Biso   1.000  H
  H70      1.0000 0.61600  0.43623  0.96576  Biso   1.000  H
  C60      1.0000 0.50362  0.34098  0.96301  Biso   1.000  C
  H71      1.0000 0.60970  0.44289  0.96791  Biso   1.000  H
  H72      1.0000 0.49385  0.48510  0.95530  Biso   1.000  H
  C61      1.0000 0.52931  0.32317  0.95021  Biso   1.000  C
  H73      1.0000 0.56516  0.88101  0.86250  Biso   1.000  H
  H74      1.0000 0.45338  0.94413  0.85701  Biso   1.000  H
  C62      1.0000 0.51886  0.96689  0.91029  Biso   1.000  C
  C63      1.0000 0.01908  0.66762  0.50469  Biso   1.000  C
  H75      1.0000 0.01369  0.60517  0.56562  Biso   1.000  H
  H76      1.0000 0.93513  0.55564  0.54097  Biso   1.000  H
  C64      1.0000 0.96304  0.22499  0.78059  Biso   1.000  C
  H77      1.0000 0.03972  0.30336  0.60551  Biso   1.000  H
  H78      1.0000 0.93305  0.36648  0.59144  Biso   1.000  H
  C65      1.0000 0.90947  0.23191  0.63321  Biso   1.000  C
  C66      1.0000 0.28612  0.19424  0.81844  Biso   1.000  C
  H79      1.0000 0.44565  0.14592  0.81992  Biso   1.000  H
  H80      1.0000 0.39673  0.17942  0.86207  Biso   1.000  H
  H81      1.0000 0.47348  0.34082  0.99099  Biso   1.000  H
  H82      1.0000 0.44710  0.33586  0.94536  Biso   1.000  H
  C67      1.0000 0.58738  0.24872  0.96110  Biso   1.000  C
  H83      1.0000 0.47064  0.32205  0.93305  Biso   1.000  H
  C68      1.0000 0.49889  0.27417  0.99479  Biso   1.000  C
  H84      1.0000 0.59001  0.28097  0.93944  Biso   1.000  H
  H85      1.0000 0.57107  0.92787  0.92784  Biso   1.000  H
  H86      1.0000 0.45406  0.98043  0.92645  Biso   1.000  H
  H87      1.0000 0.54428  0.03373  0.89742  Biso   1.000  H
  H88      1.0000 0.03539  0.73896  0.50623  Biso   1.000  H
  H89      1.0000 0.08345  0.62376  0.49991  Biso   1.000  H
  H90      1.0000 0.97401  0.66924  0.48241  Biso   1.000  H
  C69      1.0000 0.07480  0.20748  0.79401  Biso   1.000  C
  H91      1.0000 0.91242  0.21436  0.80422  Biso   1.000  H
  H92      1.0000 0.95172  0.17581  0.76186  Biso   1.000  H
  H93      1.0000 0.95035  0.18851  0.65444  Biso   1.000  H
  H94      1.0000 0.84246  0.25683  0.64623  Biso   1.000  H
  C70      1.0000 0.88719  0.16151  0.60150  Biso   1.000  C
  C71      1.0000 0.20093  0.19466  0.84716  Biso   1.000  C
  C72      1.0000 0.26834  0.19881  0.77633  Biso   1.000  C
  H95      1.0000 0.64209  0.25404  0.97905  Biso   1.000  H
  H96      1.0000 0.55593  0.18230  0.96970  Biso   1.000  H
  H97      1.0000 0.61761  0.25077  0.93333  Biso   1.000  H
  H98      1.0000 0.47988  0.20262  0.99534  Biso   1.000  H
  H99      1.0000 0.55827  0.27233  0.01141  Biso   1.000  H
  H100     1.0000 0.43982  0.31670  0.00552  Biso   1.000  H
  C73      1.0000 0.09450  0.20206  0.83448  Biso   1.000  C
  C74      1.0000 0.16151  0.20246  0.76393  Biso   1.000  C
  H101     1.0000 0.85174  0.10114  0.61523  Biso   1.000  H
  H102     1.0000 0.84296  0.20263  0.58123  Biso   1.000  H
  H103     1.0000 0.95297  0.13695  0.58817  Biso   1.000  H
  O11      1.0000 0.21582  0.19466  0.88773  Biso   1.000  O
  C75      1.0000 0.35301  0.19864  0.74539  Biso   1.000  C
  O12      1.0000 0.01247  0.20370  0.86450  Biso   1.000  O
  C76      1.0000 0.14710  0.20592  0.72200  Biso   1.000  C
  C77      1.0000 0.20572  0.09213  0.91315  Biso   1.000  C
  H104     1.0000 0.42241  0.19594  0.75301  Biso   1.000  H
  C78      1.0000 0.33522  0.20215  0.70534  Biso   1.000  C
  C79      1.0000 0.98876  0.30845  0.87746  Biso   1.000  C
  C80      1.0000 0.23011  0.20605  0.69291  Biso   1.000  C
  H105     1.0000 0.07845  0.20814  0.71361  Biso   1.000  H
  H106     1.0000 0.13350  0.07270  0.91386  Biso   1.000  H
  H107     1.0000 0.25296  0.03736  0.90214  Biso   1.000  H
  C81      1.0000 0.23394  0.10195  0.95551  Biso   1.000  C
  H108     1.0000 0.39216  0.20193  0.68572  Biso   1.000  H
  H109     1.0000 0.05099  0.33012  0.88810  Biso   1.000  H
  H110     1.0000 0.96819  0.36132  0.85411  Biso   1.000  H
  C82      1.0000 0.90001  0.30138  0.91029  Biso   1.000  C
  H111     1.0000 0.21788  0.20862  0.66524  Biso   1.000  H
  H112     1.0000 0.30465  0.12559  0.95440  Biso   1.000  H
  H113     1.0000 0.18446  0.15460  0.96690  Biso   1.000  H
  C83      1.0000 0.22972  0.99073  0.98331  Biso   1.000  C
  H114     1.0000 0.83460  0.29647  0.89751  Biso   1.000  H
  H115     1.0000 0.91337  0.23592  0.92947  Biso   1.000  H
  C84      1.0000 0.88473  0.39430  0.93410  Biso   1.000  C
  H116     1.0000 0.84073  0.27729  0.89838  Biso   1.000  H
  H117     1.0000 0.87873  0.37392  0.91522  Biso   1.000  H
  C85      1.0000 0.91094  0.23622  0.95030  Biso   1.000  C
  H118     1.0000 0.26008  0.93574  0.96745  Biso   1.000  H
  H119     1.0000 0.15590  0.97811  0.99059  Biso   1.000  H
  H120     1.0000 0.26258  0.93510  0.96825  Biso   1.000  H
  C86      1.0000 0.11311  0.96812  0.99701  Biso   1.000  C
  C87      1.0000 0.28602  0.97896  0.02200  Biso   1.000  C
  H121     1.0000 0.26925  0.98937  0.00753  Biso   1.000  H
  H122     1.0000 0.82225  0.38469  0.95277  Biso   1.000  H
  H123     1.0000 0.86917  0.45878  0.91460  Biso   1.000  H
  C88      1.0000 0.97361  0.41385  0.95891  Biso   1.000  C
  H124     1.0000 0.93711  0.16311  0.94762  Biso   1.000  H
  H125     1.0000 0.84372  0.23571  0.96656  Biso   1.000  H
  C89      1.0000 0.98690  0.28822  0.96869  Biso   1.000  C
  H126     1.0000 0.07938  0.95026  0.97415  Biso   1.000  H
  H127     1.0000 0.11224  0.90950  0.01931  Biso   1.000  H
  H128     1.0000 0.07578  0.03082  0.00580  Biso   1.000  H
  H129     1.0000 0.35897  0.99364  0.01533  Biso   1.000  H
  H130     1.0000 0.28370  0.90724  0.03640  Biso   1.000  H
  H131     1.0000 0.25291  0.02867  0.03921  Biso   1.000  H
  H132     1.0000 0.03840  0.41614  0.94172  Biso   1.000  H
  H133     1.0000 0.95758  0.48086  0.96899  Biso   1.000  H
  H134     1.0000 0.98168  0.35699  0.98174  Biso   1.000  H
  H135     1.0000 0.95071  0.34692  0.98078  Biso   1.000  H
  H136     1.0000 0.02048  0.23781  0.98963  Biso   1.000  H
  H137     1.0000 0.03889  0.31436  0.94786  Biso   1.000  H
  C90      1.0000 0.41693  0.14306  0.46502  Biso   1.000  C
  C91      1.0000 0.49944  0.11802  0.43231  Biso   1.000  C
  H138     1.0000 0.45064  0.14669  0.48982  Biso   1.000  H
  H139     1.0000 0.36925  0.08756  0.47023  Biso   1.000  H
  H140     1.0000 0.37842  0.21029  0.45598  Biso   1.000  H
  H141     1.0000 0.38226  0.06359  0.45181  Biso   1.000  H
  C92      1.0000 0.47803  0.17776  0.39100  Biso   1.000  C
  H142     1.0000 0.49994  0.16095  0.41905  Biso   1.000  H
  H143     1.0000 0.56768  0.13461  0.43978  Biso   1.000  H
  H144     1.0000 0.50395  0.04181  0.43105  Biso   1.000  H
  C93      1.0000 0.57707  0.17828  0.36311  Biso   1.000  C
  H145     1.0000 0.45129  0.25081  0.39344  Biso   1.000  H
  H146     1.0000 0.42433  0.14476  0.37919  Biso   1.000  H
  H147     1.0000 0.44506  0.25054  0.38773  Biso   1.000  H
  C94      1.0000 0.39180  0.10473  0.38730  Biso   1.000  C
  O13      1.0000 0.60310  0.07308  0.35290  Biso   1.000  O
  H148     1.0000 0.56608  0.22917  0.33816  Biso   1.000  H
  H149     1.0000 0.63487  0.19946  0.37678  Biso   1.000  H
  H150     1.0000 0.42338  0.04134  0.37647  Biso   1.000  H
  H151     1.0000 0.34111  0.14193  0.36814  Biso   1.000  H
  C95      1.0000 0.33299  0.07108  0.43071  Biso   1.000  C
  C96      1.0000 0.68681  0.06892  0.32363  Biso   1.000  C
  H152     1.0000 0.30361  0.00372  0.43108  Biso   1.000  H
  H153     1.0000 0.27670  0.12472  0.43558  Biso   1.000  H
  C97      1.0000 0.67018  0.07187  0.28321  Biso   1.000  C
  C98      1.0000 0.79125  0.06228  0.33760  Biso   1.000  C
  C99      1.0000 0.55828  0.08815  0.26908  Biso   1.000  C
  C100     1.0000 0.75829  0.06851  0.25353  Biso   1.000  C
  C101     1.0000 0.87811  0.05965  0.30987  Biso   1.000  C
  O14      1.0000 0.80359  0.06508  0.37851  Biso   1.000  O
  O15      1.0000 0.54510  0.19876  0.25045  Biso   1.000  O
  H154     1.0000 0.54947  0.04140  0.24921  Biso   1.000  H
  H155     1.0000 0.50710  0.07374  0.29228  Biso   1.000  H
  C102     1.0000 0.86340  0.06225  0.26714  Biso   1.000  C
  C103     1.0000 0.74559  0.07376  0.21090  Biso   1.000  C
  C104     1.0000 0.98755  0.06386  0.32421  Biso   1.000  C
  C105     1.0000 0.79241  0.96304  0.40467  Biso   1.000  C
  C106     1.0000 0.44129  0.22786  0.23533  Biso   1.000  C
  C107     1.0000 0.94978  0.06174  0.23724  Biso   1.000  C
  C108     1.0000 0.83102  0.07502  0.18291  Biso   1.000  C
  H156     1.0000 0.67768  0.07644  0.20173  Biso   1.000  H
  H157     1.0000 0.98724  0.04755  0.35401  Biso   1.000  H
  H158     1.0000 0.03807  0.01283  0.31236  Biso   1.000  H
  O16      1.0000 0.01490  0.17112  0.31024  Biso   1.000  O
  H159     1.0000 0.84842  0.91052  0.39717  Biso   1.000  H
  H160     1.0000 0.72475  0.93730  0.40112  Biso   1.000  H
  C109     1.0000 0.79882  0.97724  0.44799  Biso   1.000  C
  H161     1.0000 0.38677  0.21444  0.25742  Biso   1.000  H
  H162     1.0000 0.42995  0.18728  0.21367  Biso   1.000  H
  C110     1.0000 0.43925  0.34578  0.21883  Biso   1.000  C
  C111     1.0000 0.93481  0.06805  0.19674  Biso   1.000  C
  H163     1.0000 0.01852  0.05689  0.24570  Biso   1.000  H
  H164     1.0000 0.82099  0.08057  0.15493  Biso   1.000  H
  C112     1.0000 0.11897  0.18648  0.32042  Biso   1.000  C
  H165     1.0000 0.73600  0.02130  0.45585  Biso   1.000  H
  C113     1.0000 0.89136  0.02519  0.45841  Biso   1.000  C
  H166     1.0000 0.86298  0.01281  0.44851  Biso   1.000  H
  C114     1.0000 0.71898  0.03109  0.47371  Biso   1.000  C
  H167     1.0000 0.79616  0.90757  0.46498  Biso   1.000  H
  H168     1.0000 0.81273  0.90564  0.46307  Biso   1.000  H
  C115     1.0000 0.45328  0.38050  0.17773  Biso   1.000  C
  C116     1.0000 0.42945  0.42151  0.24727  Biso   1.000  C
  H169     1.0000 0.99305  0.06765  0.17776  Biso   1.000  H
  C117     1.0000 0.13598  0.30148  0.30348  Biso   1.000  C
  H170     1.0000 0.17144  0.13837  0.30798  Biso   1.000  H
  H171     1.0000 0.12428  0.17322  0.35010  Biso   1.000  H
  H172     1.0000 0.89956  0.09257  0.44040  Biso   1.000  H
  C118     1.0000 0.87636  0.04502  0.50469  Biso   1.000  C
  H173     1.0000 0.95487  0.97770  0.45462  Biso   1.000  H
  H174     1.0000 0.69830  0.10334  0.46057  Biso   1.000  H
  C119     1.0000 0.78593  0.03211  0.51589  Biso   1.000  C
  H175     1.0000 0.65720  0.99148  0.48016  Biso   1.000  H
  C120     1.0000 0.46359  0.49055  0.16209  Biso   1.000  C
  O17      1.0000 0.45810  0.31015  0.14950  Biso   1.000  O
  C121     1.0000 0.43659  0.53163  0.23166  Biso   1.000  C
  C122     1.0000 0.41632  0.39014  0.29049  Biso   1.000  C
  C123     1.0000 0.12574  0.37578  0.32973  Biso   1.000  C
  C124     1.0000 0.15425  0.33368  0.26057  Biso   1.000  C
  H176     1.0000 0.93647  0.07774  0.51141  Biso   1.000  H
  H177     1.0000 0.81306  0.09138  0.50836  Biso   1.000  H
  H178     1.0000 0.83191  0.08859  0.51080  Biso   1.000  H
  H179     1.0000 0.87048  0.97774  0.52246  Biso   1.000  H
  H180     1.0000 0.82664  0.96446  0.52240  Biso   1.000  H
  H181     1.0000 0.73581  0.04303  0.53869  Biso   1.000  H
  C125     1.0000 0.45462  0.56537  0.18844  Biso   1.000  C
  O18      1.0000 0.48923  0.52000  0.12072  Biso   1.000  O
  C126     1.0000 0.56270  0.27436  0.13553  Biso   1.000  C
  C127     1.0000 0.42787  0.60525  0.26044  Biso   1.000  C
  H182     1.0000 0.41300  0.31804  0.30104  Biso   1.000  H
  C128     1.0000 0.40819  0.46383  0.31709  Biso   1.000  C
  C129     1.0000 0.13524  0.48679  0.31409  Biso   1.000  C
  O19      1.0000 0.09500  0.34687  0.37077  Biso   1.000  O
  C130     1.0000 0.16106  0.44482  0.24459  Biso   1.000  C
  C131     1.0000 0.16457  0.25933  0.23203  Biso   1.000  C
  C132     1.0000 0.47186  0.67957  0.17153  Biso   1.000  C
  C133     1.0000 0.40143  0.52734  0.09459  Biso   1.000  C
  H183     1.0000 0.60211  0.23866  0.15870  Biso   1.000  H
  H184     1.0000 0.60007  0.33481  0.12202  Biso   1.000  H
  C134     1.0000 0.55323  0.19799  0.10570  Biso   1.000  C
  C135     1.0000 0.41477  0.57263  0.30141  Biso   1.000  C
  H185     1.0000 0.43122  0.67781  0.25072  Biso   1.000  H
  H186     1.0000 0.39825  0.44186  0.34538  Biso   1.000  H
  C136     1.0000 0.15067  0.52105  0.27297  Biso   1.000  C
  O20      1.0000 0.12978  0.55691  0.34211  Biso   1.000  O
  C137     1.0000 0.17585  0.34140  0.39955  Biso   1.000  C
  C138     1.0000 0.17613  0.47502  0.20170  Biso   1.000  C
  C139     1.0000 0.17976  0.29182  0.19097  Biso   1.000  C
  H187     1.0000 0.16081  0.18681  0.24184  Biso   1.000  H
  H188     1.0000 0.46624  0.69266  0.14188  Biso   1.000  H
  H189     1.0000 0.41955  0.72778  0.18393  Biso   1.000  H
  O21      1.0000 0.57637  0.69583  0.18143  Biso   1.000  O
  H190     1.0000 0.34570  0.57956  0.10246  Biso   1.000  H
  H191     1.0000 0.37245  0.45856  0.09718  Biso   1.000  H
  C140     1.0000 0.44327  0.56084  0.05140  Biso   1.000  C
  H192     1.0000 0.51322  0.23564  0.08299  Biso   1.000  H
  H193     1.0000 0.62371  0.17735  0.09447  Biso   1.000  H
  C141     1.0000 0.50171  0.09959  0.12309  Biso   1.000  C
  H194     1.0000 0.41023  0.62265  0.31943  Biso   1.000  H
  C142     1.0000 0.14996  0.63864  0.25668  Biso   1.000  C
  C143     1.0000 0.02355  0.59679  0.35435  Biso   1.000  C
  H195     1.0000 0.20128  0.41139  0.39872  Biso   1.000  H
  H196     1.0000 0.23535  0.29174  0.39282  Biso   1.000  H
  C144     1.0000 0.12526  0.30307  0.44197  Biso   1.000  C
  H197     1.0000 0.17978  0.54707  0.19109  Biso   1.000  H
  C145     1.0000 0.18545  0.40137  0.17502  Biso   1.000  C
  H198     1.0000 0.18659  0.24153  0.17304  Biso   1.000  H
  C146     1.0000 0.60394  0.80346  0.16774  Biso   1.000  C
  H199     1.0000 0.49276  0.50208  0.04446  Biso   1.000  H
  H200     1.0000 0.38395  0.56391  0.03424  Biso   1.000  H
  C147     1.0000 0.49631  0.65924  0.03699  Biso   1.000  C
  H201     1.0000 0.39023  0.55733  0.03208  Biso   1.000  H
  H202     1.0000 0.50601  0.51512  0.04470  Biso   1.000  H
  C148     1.0000 0.47062  0.67705  0.04979  Biso   1.000  C
  H203     1.0000 0.43477  0.11921  0.13750  Biso   1.000  H
  H204     1.0000 0.54657  0.05601  0.14299  Biso   1.000  H
  C149     1.0000 0.48108  0.03333  0.08971  Biso   1.000  C
  O22      1.0000 0.04786  0.66688  0.23974  Biso   1.000  O
  H205     1.0000 0.15807  0.67925  0.27868  Biso   1.000  H
  H206     1.0000 0.20672  0.65216  0.23555  Biso   1.000  H
  H207     1.0000 0.98302  0.53776  0.36688  Biso   1.000  H
  H208     1.0000 0.98815  0.63412  0.33044  Biso   1.000  H
  C150     1.0000 0.03116  0.67224  0.38490  Biso   1.000  C
  H209     1.0000 0.09859  0.23421  0.44175  Biso   1.000  H
  H210     1.0000 0.17939  0.29273  0.46187  Biso   1.000  H
  C151     1.0000 0.03679  0.37825  0.45561  Biso   1.000  C
  H211     1.0000 0.19554  0.42332  0.14676  Biso   1.000  H
  H212     1.0000 0.55429  0.85430  0.18008  Biso   1.000  H
  H213     1.0000 0.60321  0.82080  0.13793  Biso   1.000  H
  C152     1.0000 0.71382  0.80590  0.18156  Biso   1.000  C
  H214     1.0000 0.52646  0.65940  0.00901  Biso   1.000  H
  H215     1.0000 0.55284  0.66436  0.05464  Biso   1.000  H
  C153     1.0000 0.41255  0.75150  0.03890  Biso   1.000  C
  H216     1.0000 0.52922  0.67817  0.06695  Biso   1.000  H
  C154     1.0000 0.50098  0.72597  0.00521  Biso   1.000  C
  H217     1.0000 0.40994  0.71917  0.06056  Biso   1.000  H
  H218     1.0000 0.42887  0.07227  0.07216  Biso   1.000  H
  H219     1.0000 0.54588  0.01979  0.07355  Biso   1.000  H
  H220     1.0000 0.45566  0.96649  0.10258  Biso   1.000  H
  C155     1.0000 0.03690  0.77523  0.21941  Biso   1.000  C
  H221     1.0000 0.96022  0.69686  0.39449  Biso   1.000  H
  H222     1.0000 0.06689  0.63374  0.40856  Biso   1.000  H
  C156     1.0000 0.09046  0.76831  0.36679  Biso   1.000  C
  H223     1.0000 0.98617  0.39497  0.43438  Biso   1.000  H
  C157     1.0000 0.98086  0.33260  0.49531  Biso   1.000  C
  H224     1.0000 0.06473  0.44450  0.45903  Biso   1.000  H
  C158     1.0000 0.79900  0.80556  0.15284  Biso   1.000  C
  C159     1.0000 0.73161  0.80133  0.22367  Biso   1.000  C
  H225     1.0000 0.35785  0.74610  0.02095  Biso   1.000  H
  H226     1.0000 0.44402  0.81784  0.03030  Biso   1.000  H
  H227     1.0000 0.38233  0.74945  0.06667  Biso   1.000  H
  H228     1.0000 0.52006  0.79760  0.00466  Biso   1.000  H
  H229     1.0000 0.44167  0.72789  0.98859  Biso   1.000  H
  H230     1.0000 0.56004  0.68352  0.99448  Biso   1.000  H
  C160     1.0000 0.92513  0.79274  0.20599  Biso   1.000  C
  H231     1.0000 0.08751  0.78586  0.19578  Biso   1.000  H
  H232     1.0000 0.04823  0.82433  0.23814  Biso   1.000  H
  H233     1.0000 0.04951  0.81171  0.34556  Biso   1.000  H
  H234     1.0000 0.15749  0.74331  0.35377  Biso   1.000  H
  C161     1.0000 0.11275  0.83871  0.39850  Biso   1.000  C
  H235     1.0000 0.96455  0.26118  0.49377  Biso   1.000  H
  H236     1.0000 0.91641  0.37646  0.50009  Biso   1.000  H
  H237     1.0000 0.02592  0.33098  0.51758  Biso   1.000  H
  C162     1.0000 0.90544  0.79816  0.16551  Biso   1.000  C
  O23      1.0000 0.78411  0.80556  0.11227  Biso   1.000  O
  C163     1.0000 0.83843  0.79776  0.23607  Biso   1.000  C
  C164     1.0000 0.64693  0.80158  0.25461  Biso   1.000  C
  H238     1.0000 0.14820  0.89908  0.38477  Biso   1.000  H
  H239     1.0000 0.15698  0.79759  0.41877  Biso   1.000  H
  H240     1.0000 0.04697  0.86327  0.41183  Biso   1.000  H
  O24      1.0000 0.98739  0.79652  0.13550  Biso   1.000  O
  C165     1.0000 0.79423  0.90801  0.08685  Biso   1.000  C
  C166     1.0000 0.85283  0.79430  0.27800  Biso   1.000  C
  H241     1.0000 0.57753  0.80420  0.24699  Biso   1.000  H
  C167     1.0000 0.66471  0.79807  0.29466  Biso   1.000  C
  C168     1.0000 0.01118  0.69169  0.12254  Biso   1.000  C
  H242     1.0000 0.86644  0.92753  0.08614  Biso   1.000  H
  H243     1.0000 0.74698  0.96286  0.09786  Biso   1.000  H
  C169     1.0000 0.76601  0.89819  0.04449  Biso   1.000  C
  C170     1.0000 0.76983  0.79417  0.30709  Biso   1.000  C
  H244     1.0000 0.92141  0.79208  0.28639  Biso   1.000  H
  H245     1.0000 0.60778  0.79829  0.31428  Biso   1.000  H
  H246     1.0000 0.94888  0.67002  0.11190  Biso   1.000  H
  H247     1.0000 0.03174  0.63890  0.14589  Biso   1.000  H
  C171     1.0000 0.09993  0.69884  0.08971  Biso   1.000  C
  H248     1.0000 0.69522  0.87455  0.04560  Biso   1.000  H
  H249     1.0000 0.81547  0.84562  0.03310  Biso   1.000  H
  C172     1.0000 0.77022  0.00942  0.01669  Biso   1.000  C
  H250     1.0000 0.78207  0.79152  0.33476  Biso   1.000  H
  H251     1.0000 0.16534  0.70375  0.10249  Biso   1.000  H
  H252     1.0000 0.08657  0.76430  0.07053  Biso   1.000  H
  C173     1.0000 0.11521  0.60592  0.06590  Biso   1.000  C
  H253     1.0000 0.15921  0.72294  0.10162  Biso   1.000  H
  H254     1.0000 0.12122  0.62622  0.08478  Biso   1.000  H
  C174     1.0000 0.08900  0.76400  0.04970  Biso   1.000  C
  C175     1.0000 0.71393  0.02118  0.97800  Biso   1.000  C
  H255     1.0000 0.73069  0.01085  0.99247  Biso   1.000  H
  H256     1.0000 0.73987  0.06440  0.03255  Biso   1.000  H
  H257     1.0000 0.84397  0.02204  0.00941  Biso   1.000  H
  H258     1.0000 0.73737  0.06504  0.03175  Biso   1.000  H
  C176     1.0000 0.88684  0.03202  0.00299  Biso   1.000  C
  H259     1.0000 0.17769  0.61553  0.04723  Biso   1.000  H
  H260     1.0000 0.13078  0.54136  0.08540  Biso   1.000  H
  C177     1.0000 0.02633  0.58629  0.04109  Biso   1.000  C
  H261     1.0000 0.06275  0.83711  0.05238  Biso   1.000  H
  H262     1.0000 0.15621  0.76451  0.03344  Biso   1.000  H
  C178     1.0000 0.01304  0.71200  0.03131  Biso   1.000  C
  H263     1.0000 0.74702  0.97155  0.96079  Biso   1.000  H
  H264     1.0000 0.64097  0.00658  0.98467  Biso   1.000  H
  H265     1.0000 0.71624  0.09298  0.96360  Biso   1.000  H
  H266     1.0000 0.92416  0.96940  0.99420  Biso   1.000  H
  H267     1.0000 0.88770  0.09072  0.98069  Biso   1.000  H
  H268     1.0000 0.92057  0.04988  0.02585  Biso   1.000  H
  H269     1.0000 0.96154  0.58408  0.05828  Biso   1.000  H
  H270     1.0000 0.04237  0.51928  0.03101  Biso   1.000  H
  H271     1.0000 0.01819  0.64315  0.01826  Biso   1.000  H
  H272     1.0000 0.04915  0.65330  0.01922  Biso   1.000  H
  H273     1.0000 0.97946  0.76241  0.01037  Biso   1.000  H
  H274     1.0000 0.96106  0.68578  0.05214  Biso   1.000  H
  Ne1      1.0000 0.78107  0.44186  0.24269  Biso   1.000  Ne
  He1      1.0000 0.71372  0.47157  0.35985  Biso   1.000  He
  He2      1.0000 0.85836  0.39214  0.13580  Biso   1.000  He
  Ar1      1.0000 0.79788  0.43088  0.24351  Biso   1.000  Ar
  Ne2      1.0000 0.21886  0.55833  0.75731  Biso   1.000  Ne
  He3      1.0000 0.13610  0.61083  0.86483  Biso   1.000  He
  He4      1.0000 0.27007  0.53534  0.65786  Biso   1.000  He
  Ar2      1.0000 0.20191  0.56844  0.75914  Biso   1.000  Ar
