data_image0
_cell_length_a       21.31
_cell_length_b       9.987
_cell_length_c       15.247
_cell_angle_alpha    90
_cell_angle_beta     111.85
_cell_angle_gamma    90

_symmetry_space_group_name_H-M    "P 1"
_symmetry_int_tables_number       1

loop_
  _symmetry_equiv_pos_as_xyz
  'x, y, z'

loop_
  _atom_site_label
  _atom_site_occupancy
  _atom_site_fract_x
  _atom_site_fract_y
  _atom_site_fract_z
  _atom_site_thermal_displace_type
  _atom_site_B_iso_or_equiv
  _atom_site_type_symbol
  O1       1.0000 0.58660  0.14659  0.41260  Biso   1.000  O
  C1       1.0000 0.60472  0.27045  0.38109  Biso   1.000  C
  C2       1.0000 0.57232  0.28467  0.27283  Biso   1.000  C
  C3       1.0000 0.68147  0.27846  0.41557  Biso   1.000  C
  H1       1.0000 0.58536  0.35406  0.41076  Biso   1.000  H
  O2       1.0000 0.50169  0.29368  0.24760  Biso   1.000  O
  C4       1.0000 0.60129  0.40813  0.24153  Biso   1.000  C
  H2       1.0000 0.58362  0.19766  0.23700  Biso   1.000  H
  O3       1.0000 0.70308  0.39231  0.37918  Biso   1.000  O
  O4       1.0000 0.70632  0.15931  0.38780  Biso   1.000  O
  H3       1.0000 0.70191  0.28777  0.49302  Biso   1.000  H
  C5       1.0000 0.67791  0.39451  0.27742  Biso   1.000  C
  O5       1.0000 0.57099  0.40713  0.14111  Biso   1.000  O
  H4       1.0000 0.59052  0.50325  0.26944  Biso   1.000  H
  C6       1.0000 0.75320  0.08020  0.45952  Biso   1.000  C
  C7       1.0000 0.71611  0.50396  0.24782  Biso   1.000  C
  H5       1.0000 0.68697  0.30189  0.24485  Biso   1.000  H
  C8       1.0000 0.54661  0.53289  0.09730  Biso   1.000  C
  C9       1.0000 0.82592  0.11245  0.46793  Biso   1.000  C
  H6       1.0000 0.75146  0.10003  0.52948  Biso   1.000  H
  C10      1.0000 0.73429  0.93542  0.43013  Biso   1.000  C
  O6       1.0000 0.69931  0.63372  0.27022  Biso   1.000  O
  H7       1.0000 0.70332  0.49755  0.17108  Biso   1.000  H
  H8       1.0000 0.77076  0.48793  0.28477  Biso   1.000  H
  C11      1.0000 0.47688  0.50916  0.01908  Biso   1.000  C
  O7       1.0000 0.59081  0.58997  0.05801  Biso   1.000  O
  H9       1.0000 0.54297  0.60318  0.15079  Biso   1.000  H
  C12      1.0000 0.85039  0.24472  0.51259  Biso   1.000  C
  O8       1.0000 0.87179  0.01342  0.52828  Biso   1.000  O
  H10      1.0000 0.82497  0.11255  0.39529  Biso   1.000  H
  C13      1.0000 0.78740  0.83939  0.49280  Biso   1.000  C
  O9       1.0000 0.66961  0.90978  0.43571  Biso   1.000  O
  H11      1.0000 0.73173  0.91950  0.35741  Biso   1.000  H
  O10      1.0000 0.43291  0.45059  0.05823  Biso   1.000  O
  C14      1.0000 0.48371  0.42105  0.94128  Biso   1.000  C
  H12      1.0000 0.45556  0.60579  0.98714  Biso   1.000  H
  C15      1.0000 0.60278  0.50636  0.98770  Biso   1.000  C
  O11      1.0000 0.84670  0.24752  0.60537  Biso   1.000  O
  H13      1.0000 0.81848  0.32482  0.46871  Biso   1.000  H
  H14      1.0000 0.90306  0.25984  0.51902  Biso   1.000  H
  C16      1.0000 0.85749  0.87964  0.49733  Biso   1.000  C
  O12      1.0000 0.77360  0.70402  0.45860  Biso   1.000  O
  H15      1.0000 0.78565  0.84460  0.56396  Biso   1.000  H
  C17      1.0000 0.53609  0.48213  0.90609  Biso   1.000  C
  O13      1.0000 0.42122  0.41474  0.86313  Biso   1.000  O
  H16      1.0000 0.49910  0.32022  0.97053  Biso   1.000  H
  H17      1.0000 0.62316  0.40723  0.01526  Biso   1.000  H
  C18      1.0000 0.65381  0.57995  0.95781  Biso   1.000  C
  O14      1.0000 0.85871  0.86452  0.40603  Biso   1.000  O
  H18      1.0000 0.89630  0.81586  0.54792  Biso   1.000  H
  O15      1.0000 0.54698  0.38520  0.84320  Biso   1.000  O
  H19      1.0000 0.51786  0.57865  0.87111  Biso   1.000  H
  O16      1.0000 0.70904  0.60799  0.02600  Biso   1.000  O
  O17      1.0000 0.63098  0.69801  0.91351  Biso   1.000  O
  C19      1.0000 0.91809  0.80695  0.39819  Biso   1.000  C
  C20      1.0000 0.52610  0.42315  0.74717  Biso   1.000  C
  C21      1.0000 0.89630  0.67207  0.34879  Biso   1.000  C
  C22      1.0000 0.94370  0.90388  0.34088  Biso   1.000  C
  H20      1.0000 0.95960  0.79083  0.46666  Biso   1.000  H
  C23      1.0000 0.48569  0.30790  0.68703  Biso   1.000  C
  O18      1.0000 0.58261  0.45249  0.72357  Biso   1.000  O
  H21      1.0000 0.49473  0.51397  0.73438  Biso   1.000  H
  C24      1.0000 0.95231  0.61730  0.31961  Biso   1.000  C
  O19      1.0000 0.88250  0.57915  0.41027  Biso   1.000  O
  H22      1.0000 0.85000  0.68659  0.28576  Biso   1.000  H
  C25      1.0000 0.97642  0.02804  0.39642  Biso   1.000  C
  O20      1.0000 0.99371  0.83859  0.31438  Biso   1.000  O
  H23      1.0000 0.89924  0.93391  0.27912  Biso   1.000  H
  C26      1.0000 0.52981  0.18394  0.70152  Biso   1.000  C
  O21      1.0000 0.42733  0.28006  0.70823  Biso   1.000  O
  H24      1.0000 0.46864  0.33764  0.61227  Biso   1.000  H
  C27      1.0000 0.62888  0.34194  0.73417  Biso   1.000  C
  C28      1.0000 0.97142  0.72344  0.26223  Biso   1.000  C
  O22      1.0000 0.92898  0.49815  0.26548  Biso   1.000  O
  H25      1.0000 0.99738  0.59267  0.38207  Biso   1.000  H
  O23      1.0000 0.99040  0.12276  0.33947  Biso   1.000  O
  H26      1.0000 0.94187  0.07239  0.42702  Biso   1.000  H
  H27      1.0000 0.02391  0.99930  0.45352  Biso   1.000  H
  C29      1.0000 0.59211  0.21858  0.68117  Biso   1.000  C
  O24      1.0000 0.49261  0.08010  0.64061  Biso   1.000  O
  H28      1.0000 0.54551  0.14879  0.77494  Biso   1.000  H
  C30      1.0000 0.68040  0.39191  0.69573  Biso   1.000  C
  H29      1.0000 0.65312  0.31090  0.80843  Biso   1.000  H
  O25      1.0000 0.91319  0.74847  0.17871  Biso   1.000  O
  H30      1.0000 0.01325  0.68769  0.24273  Biso   1.000  H
  O26      1.0000 0.63768  0.10814  0.71381  Biso   1.000  O
  H31      1.0000 0.57613  0.23891  0.60514  Biso   1.000  H
  O27      1.0000 0.64859  0.43366  0.59899  Biso   1.000  O
  H32      1.0000 0.71643  0.31090  0.69989  Biso   1.000  H
  H33      1.0000 0.70768  0.47742  0.73841  Biso   1.000  H
  C31      1.0000 0.91680  0.72514  0.08847  Biso   1.000  C
  C32      1.0000 0.66281  0.04646  0.64958  Biso   1.000  C
  C33      1.0000 0.85609  0.64584  0.03159  Biso   1.000  C
  C34      1.0000 0.91749  0.85832  0.04049  Biso   1.000  C
  H34      1.0000 0.96318  0.67027  0.09540  Biso   1.000  H
  C35      1.0000 0.65142  0.89677  0.65262  Biso   1.000  C
  O28      1.0000 0.73329  0.07390  0.67672  Biso   1.000  O
  H35      1.0000 0.63659  0.08551  0.57772  Biso   1.000  H
  C36      1.0000 0.85461  0.62341  0.93280  Biso   1.000  C
  O29      1.0000 0.85558  0.51817  0.07497  Biso   1.000  O
  H36      1.0000 0.81112  0.70301  0.02819  Biso   1.000  H
  O30      1.0000 0.91890  0.82808  0.94778  Biso   1.000  O
  C37      1.0000 0.97932  0.94403  0.09151  Biso   1.000  C
  H37      1.0000 0.87276  0.91469  0.03886  Biso   1.000  H
  C38      1.0000 0.69060  0.84420  0.75218  Biso   1.000  C
  O31      1.0000 0.58042  0.87444  0.62372  Biso   1.000  O
  H38      1.0000 0.67006  0.84240  0.60436  Biso   1.000  H
  C39      1.0000 0.77421  0.03064  0.77133  Biso   1.000  C
  C40      1.0000 0.86230  0.75698  0.88892  Biso   1.000  C
  O32      1.0000 0.79677  0.55412  0.87387  Biso   1.000  O
  H39      1.0000 0.89780  0.55843  0.93923  Biso   1.000  H
  H40      1.0000 0.98068  0.02724  0.04480  Biso   1.000  H
  H41      1.0000 0.97486  0.98498  0.15602  Biso   1.000  H
  O33      1.0000 0.04109  0.87103  0.11730  Biso   1.000  O
  C41      1.0000 0.76502  0.87694  0.77769  Biso   1.000  C
  O34      1.0000 0.68268  0.70281  0.75699  Biso   1.000  O
  H42      1.0000 0.67102  0.89166  0.80200  Biso   1.000  H
  C42      1.0000 0.84439  0.07800  0.78921  Biso   1.000  C
  H43      1.0000 0.75962  0.07299  0.82758  Biso   1.000  H
  O35      1.0000 0.80131  0.83238  0.87168  Biso   1.000  O
  H44      1.0000 0.87011  0.73836  0.82257  Biso   1.000  H
  H45      1.0000 0.78412  0.82677  0.72837  Biso   1.000  H
  O36      1.0000 0.87102  0.01902  0.72463  Biso   1.000  O
  H46      1.0000 0.87723  0.05057  0.86178  Biso   1.000  H
  H47      1.0000 0.84383  0.18734  0.78130  Biso   1.000  H
  O37      1.0000 0.41339  0.64664  0.58742  Biso   1.000  O
  C43      1.0000 0.39530  0.77050  0.61887  Biso   1.000  C
  C44      1.0000 0.31850  0.77851  0.58438  Biso   1.000  C
  C45      1.0000 0.42771  0.78472  0.72719  Biso   1.000  C
  H48      1.0000 0.41463  0.85411  0.58926  Biso   1.000  H
  O38      1.0000 0.29372  0.65926  0.61222  Biso   1.000  O
  O39      1.0000 0.29689  0.89226  0.62077  Biso   1.000  O
  H49      1.0000 0.29811  0.78782  0.50694  Biso   1.000  H
  C46      1.0000 0.39869  0.90808  0.75850  Biso   1.000  C
  O40      1.0000 0.49830  0.79373  0.75242  Biso   1.000  O
  H50      1.0000 0.41635  0.69761  0.76295  Biso   1.000  H
  C47      1.0000 0.24679  0.58015  0.54050  Biso   1.000  C
  C48      1.0000 0.32208  0.89446  0.72260  Biso   1.000  C
  O41      1.0000 0.42900  0.90708  0.85891  Biso   1.000  O
  H51      1.0000 0.40945  0.00320  0.73051  Biso   1.000  H
  C49      1.0000 0.26569  0.43537  0.56990  Biso   1.000  C
  C50      1.0000 0.17412  0.61240  0.53209  Biso   1.000  C
  H52      1.0000 0.24853  0.59998  0.47054  Biso   1.000  H
  H53      1.0000 0.31299  0.80194  0.75510  Biso   1.000  H
  C51      1.0000 0.28388  0.00401  0.75221  Biso   1.000  C
  C52      1.0000 0.45338  0.03294  0.90272  Biso   1.000  C
  C53      1.0000 0.21259  0.33944  0.50722  Biso   1.000  C
  O42      1.0000 0.33042  0.40983  0.56431  Biso   1.000  O
  H54      1.0000 0.26828  0.41945  0.64254  Biso   1.000  H
  O43      1.0000 0.12818  0.51337  0.47168  Biso   1.000  O
  C54      1.0000 0.14960  0.74467  0.48743  Biso   1.000  C
  H55      1.0000 0.17502  0.61260  0.60473  Biso   1.000  H
  H56      1.0000 0.29667  0.99750  0.82895  Biso   1.000  H
  H57      1.0000 0.22925  0.98788  0.71518  Biso   1.000  H
  O44      1.0000 0.30072  0.13367  0.72981  Biso   1.000  O
  C55      1.0000 0.52309  0.00921  0.98087  Biso   1.000  C
  O45      1.0000 0.40922  0.09002  0.94201  Biso   1.000  O
  H58      1.0000 0.45700  0.10313  0.84916  Biso   1.000  H
  C56      1.0000 0.14250  0.37959  0.50270  Biso   1.000  C
  O46      1.0000 0.22639  0.20397  0.54142  Biso   1.000  O
  H59      1.0000 0.21436  0.34455  0.43599  Biso   1.000  H
  O47      1.0000 0.15331  0.74747  0.39458  Biso   1.000  O
  H60      1.0000 0.18151  0.82477  0.53132  Biso   1.000  H
  H61      1.0000 0.09693  0.75989  0.48100  Biso   1.000  H
  O48      1.0000 0.56712  0.95064  0.94180  Biso   1.000  O
  C57      1.0000 0.51631  0.92100  0.05867  Biso   1.000  C
  H62      1.0000 0.54443  0.10574  0.01288  Biso   1.000  H
  C58      1.0000 0.39721  0.00641  0.01232  Biso   1.000  C
  O49      1.0000 0.14128  0.36447  0.59399  Biso   1.000  O
  H63      1.0000 0.10368  0.31581  0.45210  Biso   1.000  H
  C59      1.0000 0.46390  0.98208  0.09393  Biso   1.000  C
  O50      1.0000 0.57881  0.91469  0.13690  Biso   1.000  O
  H64      1.0000 0.50094  0.82017  0.02949  Biso   1.000  H
  H65      1.0000 0.37680  0.90728  0.98469  Biso   1.000  H
  C60      1.0000 0.34618  0.08000  0.04221  Biso   1.000  C
  C61      1.0000 0.08188  0.30690  0.60177  Biso   1.000  C
  O51      1.0000 0.45300  0.88515  0.15682  Biso   1.000  O
  H66      1.0000 0.48211  0.07860  0.12884  Biso   1.000  H
  O52      1.0000 0.29100  0.10804  0.97402  Biso   1.000  O
  O53      1.0000 0.36901  0.19796  0.08651  Biso   1.000  O
  C62      1.0000 0.10373  0.17212  0.65123  Biso   1.000  C
  C63      1.0000 0.05631  0.40393  0.65907  Biso   1.000  C
  H67      1.0000 0.04043  0.29078  0.53336  Biso   1.000  H
  C64      1.0000 0.47391  0.92320  0.25278  Biso   1.000  C
  C65      1.0000 0.04768  0.11725  0.68041  Biso   1.000  C
  O54      1.0000 0.11751  0.07920  0.58968  Biso   1.000  O
  H68      1.0000 0.15001  0.18654  0.71419  Biso   1.000  H
  C66      1.0000 0.02361  0.52799  0.60360  Biso   1.000  C
  O55      1.0000 0.00630  0.33864  0.68557  Biso   1.000  O
  H69      1.0000 0.10072  0.43396  0.72083  Biso   1.000  H
  C67      1.0000 0.51430  0.80785  0.31299  Biso   1.000  C
  O56      1.0000 0.41741  0.95254  0.27639  Biso   1.000  O
  H70      1.0000 0.50529  0.01392  0.26557  Biso   1.000  H
  C68      1.0000 0.02861  0.22339  0.73779  Biso   1.000  C
  H71      1.0000 0.00259  0.09272  0.61788  Biso   1.000  H
  O57      1.0000 0.07099  0.99810  0.73447  Biso   1.000  O
  O58      1.0000 0.00962  0.62281  0.66049  Biso   1.000  O
  H72      1.0000 0.05812  0.57234  0.57301  Biso   1.000  H
  H73      1.0000 0.97606  0.49925  0.54644  Biso   1.000  H
  C69      1.0000 0.47018  0.68389  0.29850  Biso   1.000  C
  O59      1.0000 0.57271  0.78011  0.29179  Biso   1.000  O
  H74      1.0000 0.53139  0.83759  0.38775  Biso   1.000  H
  C70      1.0000 0.37109  0.84189  0.26579  Biso   1.000  C
  O60      1.0000 0.08680  0.24852  0.82132  Biso   1.000  O
  H75      1.0000 0.98674  0.18764  0.75730  Biso   1.000  H
  C71      1.0000 0.40791  0.71863  0.31878  Biso   1.000  C
  O61      1.0000 0.50742  0.58005  0.35941  Biso   1.000  O
  H76      1.0000 0.45450  0.64884  0.22501  Biso   1.000  H
  C72      1.0000 0.31959  0.89186  0.30430  Biso   1.000  C
  H77      1.0000 0.34692  0.81085  0.19159  Biso   1.000  H
  C73      1.0000 0.08321  0.22509  0.91148  Biso   1.000  C
  O62      1.0000 0.36230  0.60809  0.28621  Biso   1.000  O
  H78      1.0000 0.42391  0.73896  0.39489  Biso   1.000  H
  O63      1.0000 0.35138  0.93371  0.40096  Biso   1.000  O
  H79      1.0000 0.28361  0.81095  0.30013  Biso   1.000  H
  H80      1.0000 0.29229  0.97737  0.26155  Biso   1.000  H
  C74      1.0000 0.14388  0.14579  0.96837  Biso   1.000  C
  C75      1.0000 0.08249  0.35827  0.95953  Biso   1.000  C
  H81      1.0000 0.03681  0.17022  0.90463  Biso   1.000  H
  C76      1.0000 0.33720  0.54651  0.35037  Biso   1.000  C
  O64      1.0000 0.14439  0.01822  0.92498  Biso   1.000  O
  H82      1.0000 0.18891  0.20306  0.97183  Biso   1.000  H
  C77      1.0000 0.14543  0.12336  0.06722  Biso   1.000  C
  C78      1.0000 0.02072  0.44398  0.90851  Biso   1.000  C
  H83      1.0000 0.12727  0.41474  0.96116  Biso   1.000  H
  O65      1.0000 0.08107  0.32813  0.05217  Biso   1.000  O
  C79      1.0000 0.34861  0.39682  0.34740  Biso   1.000  C
  O66      1.0000 0.26669  0.57395  0.32331  Biso   1.000  O
  H84      1.0000 0.36340  0.58546  0.42230  Biso   1.000  H
  C80      1.0000 0.13769  0.25703  0.11111  Biso   1.000  C
  O67      1.0000 0.20319  0.05407  0.12609  Biso   1.000  O
  H85      1.0000 0.10219  0.05848  0.06079  Biso   1.000  H
  H86      1.0000 0.02510  0.48503  0.84393  Biso   1.000  H
  H87      1.0000 0.01931  0.52729  0.95522  Biso   1.000  H
  O68      1.0000 0.95890  0.37098  0.88272  Biso   1.000  O
  C81      1.0000 0.30941  0.34425  0.24777  Biso   1.000  C
  O69      1.0000 0.41961  0.37439  0.37630  Biso   1.000  O
  H88      1.0000 0.32993  0.34235  0.39567  Biso   1.000  H
  C82      1.0000 0.22578  0.53059  0.22869  Biso   1.000  C
  O70      1.0000 0.19871  0.33243  0.12828  Biso   1.000  O
  H89      1.0000 0.12992  0.23841  0.17746  Biso   1.000  H
  C83      1.0000 0.23502  0.37689  0.22233  Biso   1.000  C
  O71      1.0000 0.31730  0.20276  0.24303  Biso   1.000  O
  H90      1.0000 0.32901  0.39171  0.19802  Biso   1.000  H
  C84      1.0000 0.15560  0.57795  0.21081  Biso   1.000  C
  H91      1.0000 0.24036  0.57304  0.17244  Biso   1.000  H
  H92      1.0000 0.21591  0.32682  0.27165  Biso   1.000  H
  O72      1.0000 0.12902  0.51897  0.27540  Biso   1.000  O
  H93      1.0000 0.12276  0.55062  0.13824  Biso   1.000  H
  H94      1.0000 0.15619  0.68739  0.21865  Biso   1.000  H
