data_image0
_cell_length_a       21.451
_cell_length_b       10.014
_cell_length_c       15.24
_cell_angle_alpha    90
_cell_angle_beta     111.25
_cell_angle_gamma    90

_symmetry_space_group_name_H-M    "P 1"
_symmetry_int_tables_number       1

loop_
  _symmetry_equiv_pos_as_xyz
  'x, y, z'

loop_
  _atom_site_label
  _atom_site_occupancy
  _atom_site_fract_x
  _atom_site_fract_y
  _atom_site_fract_z
  _atom_site_thermal_displace_type
  _atom_site_B_iso_or_equiv
  _atom_site_type_symbol
  O1       1.0000 0.58510  0.15069  0.41982  Biso   1.000  O
  C1       1.0000 0.60498  0.27462  0.38750  Biso   1.000  C
  C2       1.0000 0.57548  0.28380  0.28000  Biso   1.000  C
  C3       1.0000 0.68187  0.28111  0.42397  Biso   1.000  C
  H1       1.0000 0.58561  0.36010  0.41510  Biso   1.000  H
  O2       1.0000 0.50379  0.28790  0.24437  Biso   1.000  O
  C4       1.0000 0.60418  0.40733  0.24972  Biso   1.000  C
  H2       1.0000 0.58927  0.19333  0.25029  Biso   1.000  H
  O3       1.0000 0.70260  0.39495  0.38750  Biso   1.000  O
  O4       1.0000 0.70468  0.16237  0.39398  Biso   1.000  O
  H3       1.0000 0.70276  0.28870  0.50127  Biso   1.000  H
  C5       1.0000 0.68032  0.39555  0.28450  Biso   1.000  C
  O5       1.0000 0.57660  0.40773  0.14820  Biso   1.000  O
  H4       1.0000 0.59175  0.49970  0.27873  Biso   1.000  H
  C6       1.0000 0.75128  0.08238  0.46558  Biso   1.000  C
  C7       1.0000 0.71701  0.50629  0.25627  Biso   1.000  C
  H5       1.0000 0.69178  0.30507  0.25226  Biso   1.000  H
  C8       1.0000 0.55222  0.53285  0.10511  Biso   1.000  C
  C9       1.0000 0.82379  0.11474  0.47128  Biso   1.000  C
  H6       1.0000 0.74980  0.10026  0.53605  Biso   1.000  H
  C10      1.0000 0.73240  0.93968  0.43319  Biso   1.000  C
  O6       1.0000 0.69782  0.63571  0.27190  Biso   1.000  O
  H7       1.0000 0.70767  0.49581  0.18073  Biso   1.000  H
  H8       1.0000 0.77080  0.49491  0.29682  Biso   1.000  H
  C11      1.0000 0.48251  0.50469  0.03048  Biso   1.000  C
  O7       1.0000 0.59463  0.58768  0.06252  Biso   1.000  O
  H9       1.0000 0.55004  0.60595  0.15785  Biso   1.000  H
  C12      1.0000 0.84799  0.24795  0.51528  Biso   1.000  C
  O8       1.0000 0.86909  0.01827  0.53169  Biso   1.000  O
  H10      1.0000 0.82253  0.11344  0.39848  Biso   1.000  H
  C13      1.0000 0.78589  0.84392  0.49571  Biso   1.000  C
  O9       1.0000 0.66908  0.91292  0.44129  Biso   1.000  O
  H11      1.0000 0.72903  0.92580  0.35997  Biso   1.000  H
  O10      1.0000 0.43960  0.44348  0.07132  Biso   1.000  O
  H12      1.0000 0.45999  0.60116  0.00113  Biso   1.000  H
  C14      1.0000 0.48790  0.42041  0.94931  Biso   1.000  C
  C15      1.0000 0.60550  0.50180  0.99268  Biso   1.000  C
  O11      1.0000 0.84350  0.25654  0.60611  Biso   1.000  O
  H13      1.0000 0.81714  0.32704  0.47009  Biso   1.000  H
  H14      1.0000 0.90047  0.26143  0.52211  Biso   1.000  H
  C16      1.0000 0.85521  0.88256  0.50113  Biso   1.000  C
  O12      1.0000 0.77259  0.70901  0.46002  Biso   1.000  O
  H15      1.0000 0.78390  0.84981  0.56675  Biso   1.000  H
  C17      1.0000 0.53879  0.48143  0.91249  Biso   1.000  C
  O13      1.0000 0.42589  0.41292  0.87250  Biso   1.000  O
  H16      1.0000 0.50328  0.31975  0.97789  Biso   1.000  H
  H17      1.0000 0.62385  0.40144  0.01887  Biso   1.000  H
  C18      1.0000 0.65840  0.57000  0.96367  Biso   1.000  C
  O14      1.0000 0.85750  0.87008  0.40883  Biso   1.000  O
  H18      1.0000 0.89255  0.81746  0.55147  Biso   1.000  H
  O15      1.0000 0.54693  0.38736  0.84722  Biso   1.000  O
  H19      1.0000 0.52169  0.57919  0.87975  Biso   1.000  H
  H20      1.0000 0.70361  0.58428  0.02682  Biso   1.000  H
  O16      1.0000 0.63769  0.69413  0.92108  Biso   1.000  O
  H21      1.0000 0.67019  0.50479  0.91369  Biso   1.000  H
  C19      1.0000 0.91719  0.81576  0.40060  Biso   1.000  C
  C20      1.0000 0.52751  0.43080  0.75281  Biso   1.000  C
  C21      1.0000 0.89771  0.68394  0.35082  Biso   1.000  C
  C22      1.0000 0.94211  0.91302  0.34491  Biso   1.000  C
  H22      1.0000 0.95772  0.80048  0.46910  Biso   1.000  H
  C23      1.0000 0.48692  0.31915  0.69093  Biso   1.000  C
  O17      1.0000 0.58500  0.45746  0.72930  Biso   1.000  O
  H23      1.0000 0.49797  0.52327  0.74253  Biso   1.000  H
  C24      1.0000 0.95359  0.63092  0.32090  Biso   1.000  C
  O18      1.0000 0.88332  0.58758  0.41172  Biso   1.000  O
  H24      1.0000 0.85269  0.69942  0.28767  Biso   1.000  H
  C25      1.0000 0.97449  0.03805  0.40060  Biso   1.000  C
  O19      1.0000 0.99303  0.85291  0.31654  Biso   1.000  O
  H25      1.0000 0.89704  0.94038  0.28450  Biso   1.000  H
  C26      1.0000 0.52908  0.19433  0.70388  Biso   1.000  C
  O20      1.0000 0.42631  0.29429  0.70832  Biso   1.000  O
  H26      1.0000 0.47196  0.35071  0.61693  Biso   1.000  H
  C27      1.0000 0.62937  0.34781  0.73979  Biso   1.000  C
  C28      1.0000 0.97140  0.73647  0.26423  Biso   1.000  C
  O21      1.0000 0.93111  0.51128  0.26599  Biso   1.000  O
  H27      1.0000 0.99812  0.60655  0.38286  Biso   1.000  H
  O22      1.0000 0.98649  0.13721  0.34547  Biso   1.000  O
  H28      1.0000 0.94116  0.07789  0.43446  Biso   1.000  H
  H29      1.0000 0.02250  0.00879  0.45488  Biso   1.000  H
  C29      1.0000 0.59249  0.22598  0.68600  Biso   1.000  C
  O23      1.0000 0.49333  0.09037  0.64143  Biso   1.000  O
  H30      1.0000 0.54154  0.15918  0.77668  Biso   1.000  H
  C30      1.0000 0.68288  0.39704  0.70480  Biso   1.000  C
  H31      1.0000 0.65176  0.31496  0.81350  Biso   1.000  H
  O24      1.0000 0.91409  0.76343  0.18270  Biso   1.000  O
  H32      1.0000 0.01273  0.70042  0.24388  Biso   1.000  H
  O25      1.0000 0.63512  0.11184  0.71810  Biso   1.000  O
  H33      1.0000 0.57950  0.24805  0.61074  Biso   1.000  H
  O26      1.0000 0.65311  0.44428  0.60912  Biso   1.000  O
  H34      1.0000 0.71734  0.31436  0.70754  Biso   1.000  H
  H35      1.0000 0.71065  0.47893  0.75021  Biso   1.000  H
  C31      1.0000 0.91752  0.74196  0.09103  Biso   1.000  C
  C32      1.0000 0.66019  0.04813  0.65523  Biso   1.000  C
  C33      1.0000 0.85831  0.65798  0.03541  Biso   1.000  C
  C34      1.0000 0.91728  0.87627  0.04428  Biso   1.000  C
  H36      1.0000 0.96369  0.68973  0.09561  Biso   1.000  H
  C35      1.0000 0.65032  0.89804  0.66361  Biso   1.000  C
  O27      1.0000 0.72951  0.07639  0.67861  Biso   1.000  O
  H37      1.0000 0.63369  0.08398  0.58293  Biso   1.000  H
  C36      1.0000 0.85801  0.64080  0.93558  Biso   1.000  C
  O28      1.0000 0.85949  0.53335  0.07801  Biso   1.000  O
  H38      1.0000 0.81225  0.70891  0.03288  Biso   1.000  H
  O29      1.0000 0.91831  0.85111  0.95213  Biso   1.000  O
  C37      1.0000 0.97709  0.96295  0.09441  Biso   1.000  C
  H39      1.0000 0.87256  0.92970  0.04478  Biso   1.000  H
  C38      1.0000 0.69151  0.85001  0.76401  Biso   1.000  C
  O30      1.0000 0.58049  0.87248  0.64101  Biso   1.000  O
  H40      1.0000 0.66767  0.84282  0.61440  Biso   1.000  H
  C39      1.0000 0.77032  0.03865  0.77281  Biso   1.000  C
  C40      1.0000 0.86368  0.77601  0.89369  Biso   1.000  C
  O31      1.0000 0.80230  0.56940  0.87693  Biso   1.000  O
  H41      1.0000 0.90197  0.58029  0.94065  Biso   1.000  H
  H42      1.0000 0.97225  0.00379  0.15855  Biso   1.000  H
  H43      1.0000 0.97826  0.04614  0.04738  Biso   1.000  H
  O32      1.0000 0.03862  0.89435  0.12011  Biso   1.000  O
  C41      1.0000 0.76479  0.88696  0.78337  Biso   1.000  C
  O33      1.0000 0.68551  0.70961  0.77133  Biso   1.000  O
  H44      1.0000 0.67341  0.89724  0.81540  Biso   1.000  H
  C42      1.0000 0.83951  0.09297  0.78970  Biso   1.000  C
  H45      1.0000 0.75451  0.08089  0.82800  Biso   1.000  H
  O34      1.0000 0.80262  0.84612  0.87743  Biso   1.000  O
  H46      1.0000 0.87252  0.76044  0.82772  Biso   1.000  H
  H47      1.0000 0.78368  0.83763  0.73345  Biso   1.000  H
  O35      1.0000 0.86778  0.03126  0.72768  Biso   1.000  O
  H48      1.0000 0.87191  0.07240  0.86299  Biso   1.000  H
  H49      1.0000 0.83620  0.20112  0.77738  Biso   1.000  H
  O36      1.0000 0.41489  0.65069  0.58020  Biso   1.000  O
  C43      1.0000 0.39500  0.77462  0.61251  Biso   1.000  C
  C44      1.0000 0.31809  0.78111  0.57597  Biso   1.000  C
  C45      1.0000 0.42451  0.78380  0.72002  Biso   1.000  C
  H50      1.0000 0.41438  0.86010  0.58491  Biso   1.000  H
  O37      1.0000 0.29530  0.66237  0.60604  Biso   1.000  O
  O38      1.0000 0.29739  0.89495  0.61251  Biso   1.000  O
  H51      1.0000 0.29723  0.78870  0.49874  Biso   1.000  H
  C46      1.0000 0.39580  0.90733  0.75029  Biso   1.000  C
  O39      1.0000 0.49617  0.78790  0.75557  Biso   1.000  O
  H52      1.0000 0.41071  0.69333  0.74973  Biso   1.000  H
  C47      1.0000 0.24871  0.58238  0.53443  Biso   1.000  C
  C48      1.0000 0.31971  0.89555  0.71551  Biso   1.000  C
  O40      1.0000 0.42339  0.90773  0.85181  Biso   1.000  O
  H53      1.0000 0.40826  0.99970  0.72122  Biso   1.000  H
  C49      1.0000 0.26763  0.43968  0.56682  Biso   1.000  C
  C50      1.0000 0.17619  0.61474  0.52873  Biso   1.000  C
  H54      1.0000 0.25023  0.60026  0.46396  Biso   1.000  H
  H55      1.0000 0.30823  0.80507  0.74769  Biso   1.000  H
  C51      1.0000 0.28300  0.00629  0.74367  Biso   1.000  C
  C52      1.0000 0.44781  0.03285  0.89490  Biso   1.000  C
  C53      1.0000 0.21409  0.34392  0.50430  Biso   1.000  C
  O41      1.0000 0.33090  0.41292  0.55872  Biso   1.000  O
  H56      1.0000 0.27094  0.42580  0.63997  Biso   1.000  H
  O42      1.0000 0.13089  0.51827  0.46833  Biso   1.000  O
  C54      1.0000 0.15199  0.74795  0.48473  Biso   1.000  C
  H57      1.0000 0.17750  0.61344  0.60153  Biso   1.000  H
  H58      1.0000 0.29231  0.99581  0.81929  Biso   1.000  H
  H59      1.0000 0.22923  0.99491  0.70319  Biso   1.000  H
  O43      1.0000 0.30221  0.13571  0.72812  Biso   1.000  O
  C55      1.0000 0.51752  0.00469  0.96953  Biso   1.000  C
  O44      1.0000 0.40540  0.08768  0.93750  Biso   1.000  O
  H60      1.0000 0.44994  0.10595  0.84217  Biso   1.000  H
  C56      1.0000 0.14478  0.38256  0.49888  Biso   1.000  C
  O45      1.0000 0.22739  0.20901  0.54000  Biso   1.000  O
  H61      1.0000 0.21608  0.34981  0.43326  Biso   1.000  H
  O46      1.0000 0.15649  0.75654  0.39391  Biso   1.000  O
  H62      1.0000 0.18284  0.82704  0.52993  Biso   1.000  H
  H63      1.0000 0.09956  0.76143  0.47790  Biso   1.000  H
  O47      1.0000 0.56038  0.94348  0.92870  Biso   1.000  O
  C57      1.0000 0.51208  0.92041  0.05070  Biso   1.000  C
  H64      1.0000 0.53999  0.10116  0.99889  Biso   1.000  H
  C58      1.0000 0.39451  0.00180  0.00727  Biso   1.000  C
  O48      1.0000 0.14248  0.37008  0.59118  Biso   1.000  O
  H65      1.0000 0.10743  0.31746  0.44854  Biso   1.000  H
  C59      1.0000 0.46119  0.98143  0.08753  Biso   1.000  C
  O49      1.0000 0.57409  0.91292  0.12752  Biso   1.000  O
  H66      1.0000 0.49670  0.81975  0.02212  Biso   1.000  H
  H67      1.0000 0.37611  0.90144  0.98108  Biso   1.000  H
  C60      1.0000 0.34161  0.07000  0.03627  Biso   1.000  C
  C61      1.0000 0.08279  0.31576  0.59942  Biso   1.000  C
  O50      1.0000 0.45310  0.88736  0.15279  Biso   1.000  O
  H68      1.0000 0.47834  0.07919  0.12026  Biso   1.000  H
  H69      1.0000 0.29642  0.08428  0.97319  Biso   1.000  H
  O51      1.0000 0.36228  0.19413  0.07887  Biso   1.000  O
  H70      1.0000 0.32979  0.00479  0.08633  Biso   1.000  H
  C62      1.0000 0.10232  0.18394  0.64919  Biso   1.000  C
  C63      1.0000 0.05792  0.41302  0.65511  Biso   1.000  C
  H71      1.0000 0.04231  0.30048  0.53091  Biso   1.000  H
  C64      1.0000 0.47252  0.93080  0.24720  Biso   1.000  C
  C65      1.0000 0.04639  0.13092  0.67911  Biso   1.000  C
  O52      1.0000 0.11671  0.08758  0.58829  Biso   1.000  O
  H72      1.0000 0.14734  0.19942  0.71234  Biso   1.000  H
  C66      1.0000 0.02550  0.53805  0.59942  Biso   1.000  C
  O53      1.0000 0.00700  0.35291  0.68348  Biso   1.000  O
  H73      1.0000 0.10297  0.44038  0.71544  Biso   1.000  H
  C67      1.0000 0.51311  0.81915  0.30909  Biso   1.000  C
  O54      1.0000 0.41499  0.95746  0.27072  Biso   1.000  O
  H74      1.0000 0.50202  0.02327  0.25748  Biso   1.000  H
  C68      1.0000 0.02858  0.23647  0.73579  Biso   1.000  C
  O55      1.0000 0.06892  0.01128  0.73403  Biso   1.000  O
  H75      1.0000 0.00191  0.10655  0.61716  Biso   1.000  H
  O56      1.0000 0.01347  0.63721  0.65447  Biso   1.000  O
  H76      1.0000 0.05887  0.57789  0.56555  Biso   1.000  H
  H77      1.0000 0.97753  0.50879  0.54514  Biso   1.000  H
  C69      1.0000 0.47090  0.69433  0.29613  Biso   1.000  C
  O57      1.0000 0.57371  0.79429  0.29170  Biso   1.000  O
  H78      1.0000 0.52807  0.85071  0.38308  Biso   1.000  H
  C70      1.0000 0.37061  0.84781  0.26023  Biso   1.000  C
  O58      1.0000 0.08589  0.26343  0.81732  Biso   1.000  O
  H79      1.0000 0.98723  0.20042  0.75607  Biso   1.000  H
  C71      1.0000 0.40749  0.72598  0.31401  Biso   1.000  C
  O59      1.0000 0.50670  0.59037  0.35858  Biso   1.000  O
  H80      1.0000 0.45845  0.65918  0.22333  Biso   1.000  H
  C72      1.0000 0.31710  0.89704  0.29522  Biso   1.000  C
  H81      1.0000 0.34827  0.81496  0.18651  Biso   1.000  H
  C73      1.0000 0.08250  0.24196  0.90898  Biso   1.000  C
  O60      1.0000 0.36491  0.61184  0.28191  Biso   1.000  O
  H82      1.0000 0.42048  0.74805  0.38928  Biso   1.000  H
  O61      1.0000 0.34692  0.94428  0.39090  Biso   1.000  O
  H83      1.0000 0.28265  0.81436  0.29247  Biso   1.000  H
  H84      1.0000 0.28933  0.97893  0.24981  Biso   1.000  H
  C74      1.0000 0.14172  0.15798  0.96460  Biso   1.000  C
  C75      1.0000 0.08270  0.37627  0.95573  Biso   1.000  C
  H85      1.0000 0.03634  0.18973  0.90441  Biso   1.000  H
  C76      1.0000 0.33980  0.54813  0.34478  Biso   1.000  C
  O62      1.0000 0.14049  0.03335  0.92201  Biso   1.000  O
  H86      1.0000 0.18773  0.20891  0.96714  Biso   1.000  H
  C77      1.0000 0.14202  0.14080  0.06443  Biso   1.000  C
  C78      1.0000 0.02290  0.46295  0.90560  Biso   1.000  C
  H87      1.0000 0.12747  0.42970  0.95524  Biso   1.000  H
  O63      1.0000 0.08168  0.35111  0.04789  Biso   1.000  O
  C79      1.0000 0.34971  0.39804  0.33640  Biso   1.000  C
  O64      1.0000 0.27052  0.57639  0.32141  Biso   1.000  O
  H88      1.0000 0.36629  0.58398  0.41709  Biso   1.000  H
  C80      1.0000 0.13630  0.27601  0.10632  Biso   1.000  C
  O65      1.0000 0.19768  0.06940  0.12308  Biso   1.000  O
  H89      1.0000 0.09799  0.08029  0.05929  Biso   1.000  H
  H90      1.0000 0.02773  0.50379  0.84146  Biso   1.000  H
  H91      1.0000 0.02172  0.54614  0.95263  Biso   1.000  H
  O66      1.0000 0.96141  0.39435  0.87991  Biso   1.000  O
  C81      1.0000 0.30852  0.35001  0.23601  Biso   1.000  C
  O67      1.0000 0.41949  0.37248  0.35900  Biso   1.000  O
  H92      1.0000 0.33232  0.34282  0.38562  Biso   1.000  H
  C82      1.0000 0.22971  0.53865  0.22721  Biso   1.000  C
  O68      1.0000 0.19741  0.34612  0.12259  Biso   1.000  O
  H93      1.0000 0.12751  0.26044  0.17229  Biso   1.000  H
  C83      1.0000 0.23518  0.38696  0.21658  Biso   1.000  C
  O69      1.0000 0.31452  0.20961  0.22869  Biso   1.000  O
  H94      1.0000 0.32657  0.39724  0.18461  Biso   1.000  H
  C84      1.0000 0.16052  0.59297  0.21031  Biso   1.000  C
  H95      1.0000 0.24552  0.58089  0.17201  Biso   1.000  H
  H96      1.0000 0.21633  0.33763  0.26649  Biso   1.000  H
  O70      1.0000 0.13218  0.53126  0.27227  Biso   1.000  O
  H97      1.0000 0.12806  0.57240  0.13695  Biso   1.000  H
  H98      1.0000 0.16376  0.70112  0.22256  Biso   1.000  H
