data_image0
_cell_length_a       12.232
_cell_length_b       21.262
_cell_length_c       12.63
_cell_angle_alpha    90
_cell_angle_beta     111.91
_cell_angle_gamma    90

_symmetry_space_group_name_H-M    "P 1"
_symmetry_int_tables_number       1

loop_
  _symmetry_equiv_pos_as_xyz
  'x, y, z'

loop_
  _atom_site_label
  _atom_site_occupancy
  _atom_site_fract_x
  _atom_site_fract_y
  _atom_site_fract_z
  _atom_site_thermal_displace_type
  _atom_site_B_iso_or_equiv
  _atom_site_type_symbol
  C1       1.0000 0.46828  0.33355  0.19500  Biso   1.000  C
  N1       1.0000 0.39451  0.30566  0.09498  Biso   1.000  N
  N2       1.0000 0.58199  0.32170  0.20644  Biso   1.000  N
  O1       1.0000 0.43686  0.36276  0.26114  Biso   1.000  O
  C2       1.0000 0.26919  0.30689  0.06170  Biso   1.000  C
  C3       1.0000 0.45737  0.26569  0.04532  Biso   1.000  C
  C4       1.0000 0.58903  0.27523  0.12434  Biso   1.000  C
  C5       1.0000 0.68084  0.33445  0.31149  Biso   1.000  C
  H1       1.0000 0.25071  0.31878  0.12724  Biso   1.000  H
  H2       1.0000 0.23901  0.26470  0.03960  Biso   1.000  H
  N3       1.0000 0.20945  0.34921  0.96902  Biso   1.000  N
  H3       1.0000 0.43370  0.22162  0.04497  Biso   1.000  H
  N4       1.0000 0.45547  0.28436  0.93471  Biso   1.000  N
  H4       1.0000 0.62441  0.23591  0.16206  Biso   1.000  H
  N5       1.0000 0.64299  0.29626  0.04753  Biso   1.000  N
  H5       1.0000 0.72739  0.29649  0.33599  Biso   1.000  H
  H6       1.0000 0.65130  0.34592  0.37021  Biso   1.000  H
  N6       1.0000 0.75596  0.38454  0.29980  Biso   1.000  N
  C6       1.0000 0.17578  0.33271  0.84980  Biso   1.000  C
  C7       1.0000 0.15711  0.40420  0.98319  Biso   1.000  C
  C8       1.0000 0.35308  0.27824  0.83000  Biso   1.000  C
  C9       1.0000 0.56514  0.29818  0.93565  Biso   1.000  C
  C10      1.0000 0.76714  0.30580  0.07928  Biso   1.000  C
  C11      1.0000 0.84845  0.37414  0.25722  Biso   1.000  C
  C12      1.0000 0.75997  0.44295  0.34520  Biso   1.000  C
  C13      1.0000 0.10392  0.39065  0.78742  Biso   1.000  C
  H7       1.0000 0.12832  0.29419  0.83103  Biso   1.000  H
  N7       1.0000 0.27187  0.33007  0.80892  Biso   1.000  N
  O2       1.0000 0.15897  0.42512  0.07373  Biso   1.000  O
  N8       1.0000 0.10200  0.43058  0.87813  Biso   1.000  N
  H8       1.0000 0.37922  0.27472  0.76651  Biso   1.000  H
  H9       1.0000 0.31207  0.23958  0.83307  Biso   1.000  H
  O3       1.0000 0.59019  0.30905  0.85279  Biso   1.000  O
  H10      1.0000 0.78632  0.30279  0.01152  Biso   1.000  H
  H11      1.0000 0.80911  0.27250  0.13091  Biso   1.000  H
  N9       1.0000 0.80862  0.36596  0.13390  Biso   1.000  N
  H12      1.0000 0.90094  0.34000  0.29818  Biso   1.000  H
  C14      1.0000 0.91357  0.43834  0.27770  Biso   1.000  C
  N10      1.0000 0.85062  0.47536  0.33180  Biso   1.000  N
  O4       1.0000 0.69476  0.46242  0.39154  Biso   1.000  O
  H13      1.0000 0.02399  0.37861  0.73698  Biso   1.000  H
  N11      1.0000 0.17124  0.41468  0.72239  Biso   1.000  N
  C15      1.0000 0.25968  0.37442  0.72700  Biso   1.000  C
  C16      1.0000 0.03706  0.48895  0.85919  Biso   1.000  C
  C17      1.0000 0.84987  0.41257  0.08457  Biso   1.000  C
  N12      1.0000 0.90090  0.45814  0.16377  Biso   1.000  N
  H14      1.0000 0.99665  0.43373  0.32720  Biso   1.000  H
  C18      1.0000 0.87775  0.54082  0.36807  Biso   1.000  C
  C19      1.0000 0.12216  0.45922  0.63193  Biso   1.000  C
  O5       1.0000 0.31956  0.37786  0.66768  Biso   1.000  O
  H15      1.0000 0.96294  0.48349  0.79518  Biso   1.000  H
  H16      1.0000 0.01899  0.49831  0.92601  Biso   1.000  H
  N13      1.0000 0.09910  0.54191  0.83623  Biso   1.000  N
  O6       1.0000 0.84330  0.41327  0.98498  Biso   1.000  O
  C20      1.0000 0.96285  0.51110  0.14081  Biso   1.000  C
  H17      1.0000 0.96270  0.54600  0.40033  Biso   1.000  H
  H18      1.0000 0.84820  0.54981  0.42781  Biso   1.000  H
  N14      1.0000 0.82868  0.58532  0.27761  Biso   1.000  N
  H19      1.0000 0.03730  0.45400  0.59967  Biso   1.000  H
  H20      1.0000 0.15180  0.45019  0.57219  Biso   1.000  H
  N15      1.0000 0.14938  0.52469  0.66820  Biso   1.000  N
  C21      1.0000 0.08635  0.56171  0.72230  Biso   1.000  C
  C22      1.0000 0.15013  0.58748  0.91543  Biso   1.000  C
  H21      1.0000 0.98101  0.50169  0.07399  Biso   1.000  H
  N16      1.0000 0.89800  0.56942  0.12187  Biso   1.000  N
  H22      1.0000 0.03698  0.51651  0.20482  Biso   1.000  H
  C23      1.0000 0.89608  0.60940  0.21258  Biso   1.000  C
  C24      1.0000 0.74024  0.62562  0.27300  Biso   1.000  C
  C25      1.0000 0.23995  0.55705  0.65480  Biso   1.000  C
  C26      1.0000 0.15147  0.62591  0.74278  Biso   1.000  C
  H23      1.0000 0.00327  0.56632  0.67280  Biso   1.000  H
  O7       1.0000 0.15670  0.58677  0.01502  Biso   1.000  O
  N17      1.0000 0.19138  0.63409  0.86610  Biso   1.000  N
  C27      1.0000 0.84289  0.59585  0.01681  Biso   1.000  C
  H24      1.0000 0.97601  0.62144  0.26302  Biso   1.000  H
  C28      1.0000 0.82422  0.66734  0.15020  Biso   1.000  C
  N18      1.0000 0.72805  0.66997  0.19108  Biso   1.000  N
  O8       1.0000 0.68036  0.62219  0.33232  Biso   1.000  O
  N19      1.0000 0.24396  0.61551  0.70020  Biso   1.000  N
  O9       1.0000 0.30516  0.53763  0.60846  Biso   1.000  O
  H25      1.0000 0.09898  0.66000  0.70182  Biso   1.000  H
  C29      1.0000 0.23278  0.69420  0.92072  Biso   1.000  C
  N20      1.0000 0.79047  0.65083  0.03098  Biso   1.000  N
  O10      1.0000 0.84095  0.57488  0.92627  Biso   1.000  O
  H26      1.0000 0.87168  0.70581  0.16897  Biso   1.000  H
  C30      1.0000 0.64692  0.72180  0.17000  Biso   1.000  C
  C31      1.0000 0.31908  0.66555  0.68851  Biso   1.000  C
  H27      1.0000 0.21368  0.69721  0.98848  Biso   1.000  H
  H28      1.0000 0.19089  0.72750  0.86909  Biso   1.000  H
  N21      1.0000 0.35693  0.70379  0.95247  Biso   1.000  N
  C32      1.0000 0.73081  0.69316  0.93830  Biso   1.000  C
  N22      1.0000 0.54445  0.71564  0.06529  Biso   1.000  N
  H29      1.0000 0.62078  0.72533  0.23349  Biso   1.000  H
  H30      1.0000 0.68793  0.76042  0.16693  Biso   1.000  H
  H31      1.0000 0.27261  0.70351  0.66401  Biso   1.000  H
  H32      1.0000 0.34870  0.65412  0.62979  Biso   1.000  H
  N23      1.0000 0.41793  0.67830  0.79356  Biso   1.000  N
  C33      1.0000 0.43475  0.70182  0.06426  Biso   1.000  C
  C34      1.0000 0.41097  0.72477  0.87566  Biso   1.000  C
  N24      1.0000 0.60549  0.69438  0.90502  Biso   1.000  N
  H33      1.0000 0.74929  0.68122  0.87276  Biso   1.000  H
  H34      1.0000 0.76099  0.73530  0.96040  Biso   1.000  H
  C35      1.0000 0.54255  0.73431  0.95468  Biso   1.000  C
  C36      1.0000 0.53172  0.66649  0.80500  Biso   1.000  C
  O11      1.0000 0.40981  0.69100  0.14721  Biso   1.000  O
  H35      1.0000 0.37556  0.76413  0.83785  Biso   1.000  H
  H36      1.0000 0.56630  0.77843  0.95503  Biso   1.000  H
  O12      1.0000 0.56314  0.63729  0.73886  Biso   1.000  O
  O13      1.0000 0.59015  0.19095  0.35280  Biso   1.000  O
  C37      1.0000 0.56521  0.20182  0.43575  Biso   1.000  C
  N25      1.0000 0.45551  0.21564  0.43473  Biso   1.000  N
  N26      1.0000 0.64303  0.20379  0.54755  Biso   1.000  N
  C38      1.0000 0.35312  0.22180  0.33001  Biso   1.000  C
  C39      1.0000 0.45741  0.23431  0.54533  Biso   1.000  C
  C40      1.0000 0.58899  0.22477  0.62435  Biso   1.000  C
  C41      1.0000 0.76718  0.19420  0.57929  Biso   1.000  C
  H37      1.0000 0.37918  0.22528  0.26652  Biso   1.000  H
  H38      1.0000 0.31211  0.26042  0.33308  Biso   1.000  H
  N27      1.0000 0.27191  0.16997  0.30893  Biso   1.000  N
  H39      1.0000 0.43365  0.27838  0.54499  Biso   1.000  H
  N28      1.0000 0.39447  0.19434  0.59499  Biso   1.000  N
  H40      1.0000 0.62437  0.26409  0.66207  Biso   1.000  H
  N29      1.0000 0.58203  0.17830  0.70645  Biso   1.000  N
  H41      1.0000 0.78628  0.19721  0.51153  Biso   1.000  H
  H42      1.0000 0.80906  0.22750  0.63092  Biso   1.000  H
  N30      1.0000 0.80858  0.13404  0.63391  Biso   1.000  N
  C42      1.0000 0.17582  0.16729  0.34981  Biso   1.000  C
  C43      1.0000 0.25972  0.12562  0.22701  Biso   1.000  C
  C44      1.0000 0.26915  0.19311  0.56171  Biso   1.000  C
  C45      1.0000 0.46824  0.16645  0.69501  Biso   1.000  C
  C46      1.0000 0.68088  0.16555  0.81150  Biso   1.000  C
  C47      1.0000 0.84849  0.12591  0.75723  Biso   1.000  C
  C48      1.0000 0.84983  0.08743  0.58458  Biso   1.000  C
  C49      1.0000 0.10388  0.10935  0.28743  Biso   1.000  C
  H43      1.0000 0.12828  0.20581  0.33104  Biso   1.000  H
  N31      1.0000 0.20949  0.15083  0.46903  Biso   1.000  N
  N32      1.0000 0.17128  0.08532  0.22240  Biso   1.000  N
  O14      1.0000 0.31960  0.12214  0.16769  Biso   1.000  O
  H44      1.0000 0.25064  0.18122  0.62717  Biso   1.000  H
  H45      1.0000 0.23897  0.23530  0.53961  Biso   1.000  H
  O15      1.0000 0.43682  0.13729  0.76115  Biso   1.000  O
  H46      1.0000 0.72735  0.20351  0.83600  Biso   1.000  H
  H47      1.0000 0.65126  0.15412  0.87022  Biso   1.000  H
  N33      1.0000 0.75600  0.11551  0.79981  Biso   1.000  N
  H48      1.0000 0.90098  0.16000  0.79819  Biso   1.000  H
  C50      1.0000 0.91361  0.06171  0.77771  Biso   1.000  C
  N34      1.0000 0.90086  0.04186  0.66378  Biso   1.000  N
  O16      1.0000 0.84326  0.08677  0.48499  Biso   1.000  O
  H49      1.0000 0.02403  0.12139  0.23699  Biso   1.000  H
  N35      1.0000 0.10204  0.06942  0.37814  Biso   1.000  N
  C51      1.0000 0.15707  0.09580  0.48320  Biso   1.000  C
  C52      1.0000 0.12220  0.04078  0.13194  Biso   1.000  C
  C53      1.0000 0.76001  0.05705  0.84521  Biso   1.000  C
  N36      1.0000 0.85058  0.02469  0.83182  Biso   1.000  N
  H50      1.0000 0.99669  0.06632  0.82721  Biso   1.000  H
  C54      1.0000 0.96289  0.98895  0.64082  Biso   1.000  C
  C55      1.0000 0.03710  0.01105  0.35920  Biso   1.000  C
  O17      1.0000 0.15901  0.07488  0.57374  Biso   1.000  O
  H51      1.0000 0.03726  0.04600  0.09968  Biso   1.000  H
  H52      1.0000 0.15175  0.04981  0.07220  Biso   1.000  H
  N37      1.0000 0.14942  0.97536  0.16821  Biso   1.000  N
  O18      1.0000 0.69480  0.03763  0.89155  Biso   1.000  O
  C56      1.0000 0.87779  0.95922  0.86808  Biso   1.000  C
  H53      1.0000 0.98097  0.99831  0.57400  Biso   1.000  H
  N38      1.0000 0.89796  0.93063  0.62188  Biso   1.000  N
  H54      1.0000 0.03702  0.98354  0.70483  Biso   1.000  H
  H55      1.0000 0.01903  0.00169  0.42602  Biso   1.000  H
  H56      1.0000 0.96298  0.01651  0.29519  Biso   1.000  H
  N39      1.0000 0.09914  0.95814  0.33624  Biso   1.000  N
  C57      1.0000 0.08639  0.93834  0.22231  Biso   1.000  C
  C58      1.0000 0.23999  0.94295  0.15481  Biso   1.000  C
  H57      1.0000 0.96266  0.95400  0.90034  Biso   1.000  H
  H58      1.0000 0.84816  0.95024  0.92782  Biso   1.000  H
  N40      1.0000 0.82872  0.91468  0.77762  Biso   1.000  N
  C59      1.0000 0.89604  0.89065  0.71259  Biso   1.000  C
  C60      1.0000 0.84285  0.90420  0.51682  Biso   1.000  C
  C61      1.0000 0.15009  0.91257  0.41544  Biso   1.000  C
  C62      1.0000 0.15151  0.87414  0.24279  Biso   1.000  C
  H59      1.0000 0.00331  0.93373  0.17281  Biso   1.000  H
  N41      1.0000 0.24400  0.88454  0.20021  Biso   1.000  N
  O19      1.0000 0.30520  0.96242  0.10847  Biso   1.000  O
  C63      1.0000 0.74028  0.87442  0.77302  Biso   1.000  C
  H60      1.0000 0.97597  0.87861  0.76303  Biso   1.000  H
  C64      1.0000 0.82418  0.83271  0.65021  Biso   1.000  C
  N42      1.0000 0.79051  0.84921  0.53099  Biso   1.000  N
  O20      1.0000 0.84099  0.92512  0.42628  Biso   1.000  O
  N43      1.0000 0.19142  0.86596  0.36611  Biso   1.000  N
  O21      1.0000 0.15666  0.91327  0.51503  Biso   1.000  O
  H61      1.0000 0.09902  0.84000  0.20183  Biso   1.000  H
  C65      1.0000 0.31912  0.83449  0.18852  Biso   1.000  C
  N44      1.0000 0.72809  0.83007  0.69109  Biso   1.000  N
  O22      1.0000 0.68040  0.87786  0.83233  Biso   1.000  O
  H62      1.0000 0.87164  0.79423  0.66899  Biso   1.000  H
  C66      1.0000 0.73076  0.80689  0.43831  Biso   1.000  C
  C67      1.0000 0.23282  0.80585  0.42073  Biso   1.000  C
  H63      1.0000 0.27257  0.79654  0.16402  Biso   1.000  H
  H64      1.0000 0.34865  0.84592  0.12980  Biso   1.000  H
  N45      1.0000 0.41797  0.82170  0.29357  Biso   1.000  N
  C68      1.0000 0.64688  0.77824  0.67001  Biso   1.000  C
  N46      1.0000 0.60553  0.80566  0.40503  Biso   1.000  N
  H65      1.0000 0.74925  0.81883  0.37277  Biso   1.000  H
  H66      1.0000 0.76094  0.76470  0.46041  Biso   1.000  H
  H67      1.0000 0.21372  0.80284  0.48849  Biso   1.000  H
  H68      1.0000 0.19085  0.77250  0.36910  Biso   1.000  H
  N47      1.0000 0.35697  0.79626  0.45248  Biso   1.000  N
  C69      1.0000 0.41101  0.77523  0.37567  Biso   1.000  C
  C70      1.0000 0.53168  0.83355  0.30501  Biso   1.000  C
  N48      1.0000 0.54449  0.78436  0.56530  Biso   1.000  N
  H69      1.0000 0.62074  0.77472  0.73350  Biso   1.000  H
  H70      1.0000 0.68788  0.73963  0.66694  Biso   1.000  H
  C71      1.0000 0.54259  0.76569  0.45469  Biso   1.000  C
  C72      1.0000 0.43479  0.79818  0.56427  Biso   1.000  C
  H71      1.0000 0.37560  0.73591  0.33786  Biso   1.000  H
  O23      1.0000 0.56318  0.86276  0.23887  Biso   1.000  O
  H72      1.0000 0.56626  0.72162  0.45504  Biso   1.000  H
  O24      1.0000 0.40977  0.80905  0.64722  Biso   1.000  O
  Ne1      1.0000 0.49999  0.00001  0.50001  Biso   1.000  Ne
  He1      1.0000 0.42263  0.97007  0.71998  Biso   1.000  He
  He2      1.0000 0.57344  0.02864  0.29051  Biso   1.000  He
  Ar1      1.0000 0.49999  0.00001  0.50001  Biso   1.000  Ar
  Ne2      1.0000 0.49998  0.50002  1.00000  Biso   1.000  Ne
  He3      1.0000 0.42508  0.52916  0.21344  Biso   1.000  He
  He4      1.0000 0.57531  0.47173  0.78734  Biso   1.000  He
  Ar2      1.0000 0.49998  0.50002  0.99999  Biso   1.000  Ar
