data_image0
_cell_length_a       23.912
_cell_length_b       17.684
_cell_length_c       16.822
_cell_angle_alpha    90
_cell_angle_beta     99.48
_cell_angle_gamma    90

_symmetry_space_group_name_H-M    "P 1"
_symmetry_int_tables_number       1

loop_
  _symmetry_equiv_pos_as_xyz
  'x, y, z'

loop_
  _atom_site_label
  _atom_site_occupancy
  _atom_site_fract_x
  _atom_site_fract_y
  _atom_site_fract_z
  _atom_site_thermal_displace_type
  _atom_site_B_iso_or_equiv
  _atom_site_type_symbol
  C1       1.0000 0.67134  0.16699  0.60317  Biso   1.000  C
  N1       1.0000 0.61594  0.19820  0.58588  Biso   1.000  N
  N2       1.0000 0.68264  0.10948  0.54471  Biso   1.000  N
  C2       1.0000 0.67129  0.12028  0.68068  Biso   1.000  C
  H1       1.0000 0.70082  0.20680  0.61071  Biso   1.000  H
  C3       1.0000 0.59925  0.25927  0.52958  Biso   1.000  C
  C4       1.0000 0.58881  0.18621  0.64590  Biso   1.000  C
  C5       1.0000 0.68683  0.12531  0.46287  Biso   1.000  C
  C6       1.0000 0.68546  0.03823  0.57702  Biso   1.000  C
  N3       1.0000 0.61888  0.13702  0.70117  Biso   1.000  N
  N4       1.0000 0.67865  0.04354  0.65615  Biso   1.000  N
  H2       1.0000 0.70246  0.13611  0.72377  Biso   1.000  H
  N5       1.0000 0.57172  0.23168  0.45148  Biso   1.000  N
  H3       1.0000 0.57323  0.29309  0.55188  Biso   1.000  H
  H4       1.0000 0.63296  0.28862  0.52271  Biso   1.000  H
  O1       1.0000 0.54055  0.20759  0.66290  Biso   1.000  O
  N6       1.0000 0.63274  0.13334  0.41218  Biso   1.000  N
  H5       1.0000 0.70853  0.17208  0.46070  Biso   1.000  H
  H6       1.0000 0.70782  0.08443  0.44189  Biso   1.000  H
  O2       1.0000 0.69601  0.98106  0.54067  Biso   1.000  O
  C7       1.0000 0.60393  0.11219  0.77862  Biso   1.000  C
  C8       1.0000 0.69113  0.98202  0.71190  Biso   1.000  C
  C9       1.0000 0.51326  0.22789  0.42592  Biso   1.000  C
  C10      1.0000 0.60474  0.20329  0.39181  Biso   1.000  C
  C11      1.0000 0.61256  0.08160  0.35607  Biso   1.000  C
  H7       1.0000 0.63824  0.11519  0.81948  Biso   1.000  H
  H8       1.0000 0.57657  0.14833  0.79398  Biso   1.000  H
  N7       1.0000 0.58049  0.03698  0.78127  Biso   1.000  N
  H9       1.0000 0.71494  0.00119  0.76072  Biso   1.000  H
  H10      1.0000 0.71345  0.94441  0.68791  Biso   1.000  H
  N8       1.0000 0.64300  0.94447  0.73504  Biso   1.000  N
  N9       1.0000 0.50615  0.20533  0.34721  Biso   1.000  N
  O3       1.0000 0.47452  0.24321  0.46510  Biso   1.000  O
  C12      1.0000 0.55966  0.18955  0.32111  Biso   1.000  C
  H11      1.0000 0.63184  0.24208  0.37921  Biso   1.000  H
  N10      1.0000 0.56716  0.11100  0.30351  Biso   1.000  N
  O4       1.0000 0.63322  0.01713  0.35282  Biso   1.000  O
  C13      1.0000 0.52334  0.02562  0.76921  Biso   1.000  C
  C14      1.0000 0.61217  0.96901  0.79989  Biso   1.000  C
  C15      1.0000 0.61958  0.88119  0.69635  Biso   1.000  C
  C16      1.0000 0.45261  0.21290  0.29230  Biso   1.000  C
  H12      1.0000 0.56501  0.22201  0.27489  Biso   1.000  H
  C17      1.0000 0.54519  0.07611  0.22541  Biso   1.000  C
  N11      1.0000 0.51249  0.94962  0.77627  Biso   1.000  N
  O5       1.0000 0.48614  0.07561  0.75487  Biso   1.000  O
  C18      1.0000 0.56457  0.90381  0.79766  Biso   1.000  C
  C19      1.0000 0.65256  0.97540  0.88071  Biso   1.000  C
  N12      1.0000 0.57523  0.85456  0.73161  Biso   1.000  N
  O6       1.0000 0.63730  0.84828  0.64174  Biso   1.000  O
  N13      1.0000 0.42483  0.14544  0.26838  Biso   1.000  N
  H13      1.0000 0.45973  0.23971  0.24397  Biso   1.000  H
  H14      1.0000 0.42714  0.24451  0.31822  Biso   1.000  H
  N14      1.0000 0.48757  0.05038  0.22372  Biso   1.000  N
  H15      1.0000 0.56920  0.03319  0.21612  Biso   1.000  H
  H16      1.0000 0.54620  0.11298  0.18219  Biso   1.000  H
  C20      1.0000 0.45488  0.92389  0.77458  Biso   1.000  C
  C21      1.0000 0.56618  0.86253  0.87330  Biso   1.000  C
  H17      1.0000 0.67886  0.01679  0.87812  Biso   1.000  H
  H18      1.0000 0.67368  0.92858  0.89150  Biso   1.000  H
  H19      1.0000 0.63084  0.98490  0.92350  Biso   1.000  H
  C22      1.0000 0.54745  0.78710  0.70768  Biso   1.000  C
  C23      1.0000 0.38049  0.11881  0.30364  Biso   1.000  C
  C24      1.0000 0.43550  0.09619  0.20232  Biso   1.000  C
  C25      1.0000 0.47672  0.97438  0.23077  Biso   1.000  C
  N15      1.0000 0.43291  0.88900  0.69647  Biso   1.000  N
  H20      1.0000 0.43087  0.96681  0.78392  Biso   1.000  H
  H21      1.0000 0.45386  0.88702  0.81779  Biso   1.000  H
  H22      1.0000 0.60094  0.83330  0.88451  Biso   1.000  H
  H23      1.0000 0.53387  0.82860  0.86872  Biso   1.000  H
  H24      1.0000 0.56474  0.89799  0.91681  Biso   1.000  H
  N16      1.0000 0.49392  0.79467  0.65277  Biso   1.000  N
  H25      1.0000 0.54034  0.76029  0.75601  Biso   1.000  H
  H26      1.0000 0.57294  0.75549  0.68182  Biso   1.000  H
  O7       1.0000 0.36277  0.15178  0.35824  Biso   1.000  O
  N17      1.0000 0.35707  0.05553  0.26500  Biso   1.000  N
  C26      1.0000 0.38790  0.03099  0.20009  Biso   1.000  C
  C27      1.0000 0.43388  0.13753  0.12669  Biso   1.000  C
  N18      1.0000 0.41958  0.96302  0.21872  Biso   1.000  N
  O8       1.0000 0.51393  0.92439  0.24511  Biso   1.000  O
  C28      1.0000 0.38751  0.91840  0.64391  Biso   1.000  C
  C29      1.0000 0.44040  0.81045  0.67887  Biso   1.000  C
  C30      1.0000 0.48681  0.77211  0.57412  Biso   1.000  C
  C31      1.0000 0.30893  0.01798  0.28809  Biso   1.000  C
  C32      1.0000 0.34750  0.02460  0.11927  Biso   1.000  C
  H27      1.0000 0.39909  0.16670  0.11548  Biso   1.000  H
  H28      1.0000 0.46620  0.17140  0.13133  Biso   1.000  H
  H29      1.0000 0.43532  0.10201  0.08317  Biso   1.000  H
  C33      1.0000 0.39609  0.88781  0.22137  Biso   1.000  C
  N19      1.0000 0.36733  0.86666  0.58780  Biso   1.000  N
  O9       1.0000 0.36685  0.98292  0.64717  Biso   1.000  O
  C34      1.0000 0.39533  0.79671  0.60817  Biso   1.000  C
  H30      1.0000 0.43505  0.77799  0.72510  Biso   1.000  H
  N20      1.0000 0.42835  0.76832  0.54851  Biso   1.000  N
  O10      1.0000 0.52555  0.75679  0.53489  Biso   1.000  O
  H31      1.0000 0.28662  0.05559  0.31207  Biso   1.000  H
  H32      1.0000 0.28513  0.99881  0.23927  Biso   1.000  H
  N21      1.0000 0.32141  0.95646  0.34383  Biso   1.000  N
  H33      1.0000 0.32639  0.07142  0.10848  Biso   1.000  H
  H34      1.0000 0.36922  0.01510  0.07648  Biso   1.000  H
  H35      1.0000 0.32121  0.98321  0.12192  Biso   1.000  H
  H36      1.0000 0.36183  0.88481  0.18051  Biso   1.000  H
  H37      1.0000 0.42350  0.85173  0.20600  Biso   1.000  H
  N22      1.0000 0.38119  0.86298  0.29881  Biso   1.000  N
  C35      1.0000 0.31320  0.87469  0.53712  Biso   1.000  C
  H38      1.0000 0.36822  0.75792  0.62077  Biso   1.000  H
  C36      1.0000 0.40082  0.74073  0.47040  Biso   1.000  C
  C37      1.0000 0.32878  0.87972  0.31931  Biso   1.000  C
  C38      1.0000 0.31461  0.96183  0.42297  Biso   1.000  C
  C39      1.0000 0.41126  0.81379  0.35408  Biso   1.000  C
  N23      1.0000 0.31743  0.89052  0.45527  Biso   1.000  N
  H39      1.0000 0.29153  0.82792  0.53929  Biso   1.000  H
  H40      1.0000 0.29225  0.91563  0.55809  Biso   1.000  H
  N24      1.0000 0.38413  0.80180  0.41411  Biso   1.000  N
  H41      1.0000 0.42684  0.70691  0.44810  Biso   1.000  H
  H42      1.0000 0.36711  0.71138  0.47727  Biso   1.000  H
  H43      1.0000 0.29760  0.86389  0.27621  Biso   1.000  H
  C40      1.0000 0.32872  0.83301  0.39681  Biso   1.000  C
  O11      1.0000 0.30406  0.01894  0.45931  Biso   1.000  O
  O12      1.0000 0.45952  0.79241  0.33708  Biso   1.000  O
  H44      1.0000 0.29920  0.79320  0.38928  Biso   1.000  H
  C41      1.0000 0.81049  0.42061  0.86637  Biso   1.000  C
  H45      1.0000 0.77246  0.41970  0.83268  Biso   1.000  H
  C42      1.0000 0.82558  0.34330  0.90675  Biso   1.000  C
  N25      1.0000 0.85515  0.42909  0.81689  Biso   1.000  N
  N26      1.0000 0.81245  0.47269  0.93272  Biso   1.000  N
  H46      1.0000 0.79487  0.30598  0.89108  Biso   1.000  H
  N27      1.0000 0.87656  0.32086  0.87896  Biso   1.000  N
  N28      1.0000 0.83202  0.36151  0.99227  Biso   1.000  N
  C43      1.0000 0.89133  0.36903  0.82237  Biso   1.000  C
  C44      1.0000 0.85241  0.48688  0.75391  Biso   1.000  C
  C45      1.0000 0.79421  0.55055  0.92441  Biso   1.000  C
  C46      1.0000 0.82433  0.43751  0.00601  Biso   1.000  C
  C47      1.0000 0.90141  0.24435  0.89204  Biso   1.000  C
  C48      1.0000 0.84073  0.30604  0.05664  Biso   1.000  C
  O13      1.0000 0.92941  0.36016  0.78500  Biso   1.000  O
  H47      1.0000 0.87385  0.46890  0.71268  Biso   1.000  H
  H48      1.0000 0.81275  0.49271  0.72817  Biso   1.000  H
  N29      1.0000 0.87340  0.55768  0.78060  Biso   1.000  N
  H49      1.0000 0.75955  0.55333  0.88439  Biso   1.000  H
  H50      1.0000 0.78488  0.56791  0.97600  Biso   1.000  H
  N30      1.0000 0.83587  0.60133  0.90030  Biso   1.000  N
  O14      1.0000 0.82527  0.46681  0.07152  Biso   1.000  O
  H51      1.0000 0.92114  0.23190  0.84720  Biso   1.000  H
  H52      1.0000 0.87064  0.20759  0.89180  Biso   1.000  H
  N31      1.0000 0.93994  0.23728  0.96545  Biso   1.000  N
  H53      1.0000 0.81690  0.26188  0.03976  Biso   1.000  H
  H54      1.0000 0.82783  0.32770  0.10407  Biso   1.000  H
  N32      1.0000 0.89804  0.28110  0.07954  Biso   1.000  N
  C49      1.0000 0.84112  0.61423  0.81562  Biso   1.000  C
  C50      1.0000 0.92558  0.58663  0.76710  Biso   1.000  C
  C51      1.0000 0.86042  0.65901  0.95008  Biso   1.000  C
  C52      1.0000 0.99694  0.24265  0.96792  Biso   1.000  C
  C53      1.0000 0.92472  0.21856  0.04410  Biso   1.000  C
  C54      1.0000 0.93158  0.30983  0.14807  Biso   1.000  C
  C55      1.0000 0.88056  0.68491  0.82291  Biso   1.000  C
  H55      1.0000 0.80397  0.62418  0.78157  Biso   1.000  H
  N33      1.0000 0.93202  0.65675  0.79712  Biso   1.000  N
  O15      1.0000 0.95877  0.55106  0.73305  Biso   1.000  O
  N34      1.0000 0.88599  0.70640  0.90548  Biso   1.000  N
  O16      1.0000 0.85691  0.66484  0.02234  Biso   1.000  O
  O17      1.0000 0.02058  0.25424  0.90958  Biso   1.000  O
  N35      1.0000 0.02381  0.23173  0.04464  Biso   1.000  N
  C56      1.0000 0.98549  0.21206  0.10160  Biso   1.000  C
  C57      1.0000 0.88832  0.14697  0.04145  Biso   1.000  C
  N36      1.0000 0.98140  0.27313  0.16012  Biso   1.000  N
  O18      1.0000 0.91805  0.35903  0.19230  Biso   1.000  O
  H56      1.0000 0.86333  0.72619  0.78717  Biso   1.000  H
  C58      1.0000 0.97435  0.70765  0.77410  Biso   1.000  C
  C59      1.0000 0.91462  0.77675  0.93712  Biso   1.000  C
  C60      1.0000 0.08556  0.22325  0.06290  Biso   1.000  C
  C61      1.0000 0.00014  0.13645  0.13993  Biso   1.000  C
  H57      1.0000 0.87944  0.13702  0.09473  Biso   1.000  H
  H58      1.0000 0.85342  0.15421  0.00372  Biso   1.000  H
  H59      1.0000 0.90900  0.10439  0.02433  Biso   1.000  H
  C62      1.0000 0.02583  0.29235  0.22593  Biso   1.000  C
  H60      1.0000 0.99134  0.68390  0.73118  Biso   1.000  H
  H61      1.0000 0.95556  0.75418  0.75228  Biso   1.000  H
  N37      1.0000 0.01878  0.72687  0.83991  Biso   1.000  N
  H62      1.0000 0.90524  0.81718  0.89729  Biso   1.000  H
  H63      1.0000 0.90046  0.79179  0.98630  Biso   1.000  H
  N38      1.0000 0.97638  0.76827  0.95545  Biso   1.000  N
  H64      1.0000 0.09490  0.18282  0.10274  Biso   1.000  H
  H65      1.0000 0.09973  0.20821  0.01373  Biso   1.000  H
  N39      1.0000 0.11419  0.29360  0.09455  Biso   1.000  N
  H66      1.0000 0.97112  0.12181  0.17103  Biso   1.000  H
  H67      1.0000 0.00232  0.09907  0.09846  Biso   1.000  H
  H68      1.0000 0.03645  0.13967  0.17537  Biso   1.000  H
  H69      1.0000 0.00885  0.31610  0.26884  Biso   1.000  H
  H70      1.0000 0.04462  0.24582  0.24775  Biso   1.000  H
  N40      1.0000 0.06816  0.34325  0.20291  Biso   1.000  N
  C63      1.0000 0.01469  0.78794  0.89843  Biso   1.000  C
  C64      1.0000 0.06861  0.69017  0.85196  Biso   1.000  C
  C65      1.0000 0.00325  0.75735  0.03211  Biso   1.000  C
  C66      1.0000 0.13976  0.34099  0.04995  Biso   1.000  C
  C67      1.0000 0.11962  0.31509  0.17711  Biso   1.000  C
  C68      1.0000 0.07461  0.41337  0.23292  Biso   1.000  C
  C69      1.0000 0.00004  0.86355  0.86010  Biso   1.000  C
  C70      1.0000 0.07547  0.78150  0.95593  Biso   1.000  C
  N41      1.0000 0.10210  0.71890  0.92049  Biso   1.000  N
  O19      1.0000 0.08213  0.64097  0.80773  Biso   1.000  O
  O20      1.0000 0.97960  0.74576  0.09045  Biso   1.000  O
  N42      1.0000 0.06024  0.76278  0.03458  Biso   1.000  N
  O21      1.0000 0.14327  0.33516  0.97768  Biso   1.000  O
  N43      1.0000 0.16431  0.39867  0.09973  Biso   1.000  N
  H71      1.0000 0.13685  0.27381  0.21285  Biso   1.000  H
  C71      1.0000 0.15907  0.38577  0.18441  Biso   1.000  C
  N44      1.0000 0.12678  0.44232  0.21942  Biso   1.000  N
  O22      1.0000 0.04142  0.44894  0.26698  Biso   1.000  O
  H72      1.0000 0.99786  0.90093  0.90156  Biso   1.000  H
  H73      1.0000 0.96374  0.86033  0.82472  Biso   1.000  H
  H74      1.0000 0.02906  0.87819  0.82900  Biso   1.000  H
  C72      1.0000 0.11186  0.85303  0.95858  Biso   1.000  C
  C73      1.0000 0.15941  0.69396  0.94339  Biso   1.000  C
  C74      1.0000 0.09877  0.75565  0.10799  Biso   1.000  C
  C75      1.0000 0.20597  0.44945  0.07562  Biso   1.000  C
  H75      1.0000 0.19622  0.37582  0.21846  Biso   1.000  H
  C76      1.0000 0.14777  0.51312  0.24612  Biso   1.000  C
  H76      1.0000 0.12075  0.86298  0.90530  Biso   1.000  H
  H77      1.0000 0.14676  0.84579  0.99631  Biso   1.000  H
  H78      1.0000 0.09118  0.89561  0.97570  Biso   1.000  H
  H79      1.0000 0.18328  0.73812  0.96027  Biso   1.000  H
  H80      1.0000 0.17236  0.67230  0.89602  Biso   1.000  H
  N45      1.0000 0.16816  0.63849  0.00776  Biso   1.000  N
  H81      1.0000 0.07904  0.76810  0.15283  Biso   1.000  H
  H82      1.0000 0.12954  0.79241  0.10823  Biso   1.000  H
  N46      1.0000 0.12362  0.67914  0.12106  Biso   1.000  N
  H83      1.0000 0.24063  0.44667  0.11564  Biso   1.000  H
  H84      1.0000 0.21530  0.43209  0.02403  Biso   1.000  H
  N47      1.0000 0.18773  0.52731  0.06730  Biso   1.000  N
  H85      1.0000 0.12633  0.53110  0.28735  Biso   1.000  H
  H86      1.0000 0.18743  0.50729  0.27186  Biso   1.000  H
  N48      1.0000 0.14503  0.57091  0.18314  Biso   1.000  N
  C77      1.0000 0.17586  0.56249  0.99402  Biso   1.000  C
  C78      1.0000 0.17460  0.65670  0.09328  Biso   1.000  C
  C79      1.0000 0.10885  0.63097  0.17766  Biso   1.000  C
  C80      1.0000 0.18970  0.57939  0.13372  Biso   1.000  C
  O23      1.0000 0.17491  0.53319  0.92850  Biso   1.000  O
  H87      1.0000 0.20532  0.69402  0.10895  Biso   1.000  H
  O24      1.0000 0.07078  0.63984  0.21502  Biso   1.000  O
  H88      1.0000 0.22772  0.58030  0.16735  Biso   1.000  H
  C81      1.0000 0.60480  0.29671  0.89180  Biso   1.000  C
  C82      1.0000 0.55968  0.31045  0.82111  Biso   1.000  C
  N49      1.0000 0.63279  0.36666  0.91217  Biso   1.000  N
  N50      1.0000 0.57173  0.26832  0.95147  Biso   1.000  N
  H89      1.0000 0.63186  0.25792  0.87920  Biso   1.000  H
  N51      1.0000 0.56717  0.38900  0.80351  Biso   1.000  N
  N52      1.0000 0.50621  0.29467  0.84726  Biso   1.000  N
  H90      1.0000 0.56507  0.27799  0.77488  Biso   1.000  H
  C83      1.0000 0.61258  0.41840  0.85612  Biso   1.000  C
  C84      1.0000 0.68689  0.37469  0.96292  Biso   1.000  C
  C85      1.0000 0.51327  0.27211  0.92591  Biso   1.000  C
  C86      1.0000 0.59931  0.24073  0.02964  Biso   1.000  C
  C87      1.0000 0.54520  0.42389  0.72540  Biso   1.000  C
  C88      1.0000 0.45262  0.28710  0.79230  Biso   1.000  C
  O25      1.0000 0.63327  0.48287  0.85281  Biso   1.000  O
  H91      1.0000 0.70854  0.32792  0.96069  Biso   1.000  H
  H92      1.0000 0.70787  0.41563  0.94188  Biso   1.000  H
  N53      1.0000 0.68274  0.39052  0.04476  Biso   1.000  N
  O26      1.0000 0.47457  0.25679  0.96509  Biso   1.000  O
  H93      1.0000 0.57333  0.20691  0.05194  Biso   1.000  H
  H94      1.0000 0.63302  0.21138  0.02277  Biso   1.000  H
  N54      1.0000 0.61604  0.30180  0.08593  Biso   1.000  N
  N55      1.0000 0.48763  0.44962  0.72371  Biso   1.000  N
  H95      1.0000 0.56926  0.46681  0.71612  Biso   1.000  H
  H96      1.0000 0.54626  0.38702  0.68219  Biso   1.000  H
  N56      1.0000 0.42489  0.35456  0.76837  Biso   1.000  N
  H97      1.0000 0.45974  0.26029  0.74402  Biso   1.000  H
  H98      1.0000 0.42715  0.25549  0.81821  Biso   1.000  H
  C89      1.0000 0.68552  0.46183  0.07707  Biso   1.000  C
  C90      1.0000 0.67141  0.33301  0.10322  Biso   1.000  C
  C91      1.0000 0.58891  0.31379  0.14596  Biso   1.000  C
  C92      1.0000 0.43551  0.40381  0.70232  Biso   1.000  C
  C93      1.0000 0.47678  0.52562  0.73082  Biso   1.000  C
  C94      1.0000 0.38054  0.38119  0.80363  Biso   1.000  C
  N57      1.0000 0.67871  0.45646  0.15620  Biso   1.000  N
  O27      1.0000 0.69611  0.51900  0.04073  Biso   1.000  O
  C95      1.0000 0.67135  0.37972  0.18073  Biso   1.000  C
  H99      1.0000 0.70092  0.29320  0.11076  Biso   1.000  H
  N58      1.0000 0.61894  0.36298  0.20122  Biso   1.000  N
  O28      1.0000 0.54065  0.29241  0.16295  Biso   1.000  O
  C96      1.0000 0.43394  0.36247  0.62668  Biso   1.000  C
  C97      1.0000 0.38795  0.46901  0.70009  Biso   1.000  C
  N59      1.0000 0.41959  0.53698  0.71871  Biso   1.000  N
  O29      1.0000 0.51399  0.57561  0.74511  Biso   1.000  O
  N60      1.0000 0.35708  0.44447  0.76500  Biso   1.000  N
  O30      1.0000 0.36279  0.34822  0.85829  Biso   1.000  O
  C98      1.0000 0.69120  0.51798  0.21195  Biso   1.000  C
  H100     1.0000 0.70252  0.36389  0.22382  Biso   1.000  H
  C99      1.0000 0.60404  0.38781  0.27867  Biso   1.000  C
  H101     1.0000 0.39914  0.33330  0.61547  Biso   1.000  H
  H102     1.0000 0.46626  0.32860  0.63132  Biso   1.000  H
  H103     1.0000 0.43534  0.39799  0.58322  Biso   1.000  H
  C100     1.0000 0.34756  0.47540  0.61926  Biso   1.000  C
  C101     1.0000 0.39615  0.61219  0.72142  Biso   1.000  C
  C102     1.0000 0.30899  0.48202  0.78808  Biso   1.000  C
  H104     1.0000 0.71504  0.49881  0.26077  Biso   1.000  H
  H105     1.0000 0.71355  0.55559  0.18796  Biso   1.000  H
  N61      1.0000 0.64306  0.55553  0.23503  Biso   1.000  N
  H106     1.0000 0.63834  0.38481  0.31953  Biso   1.000  H
  H107     1.0000 0.57663  0.35167  0.29404  Biso   1.000  H
  N62      1.0000 0.58059  0.46302  0.28132  Biso   1.000  N
  H108     1.0000 0.32644  0.42858  0.60848  Biso   1.000  H
  H109     1.0000 0.36924  0.48490  0.57647  Biso   1.000  H
  H110     1.0000 0.32122  0.51679  0.62192  Biso   1.000  H
  H111     1.0000 0.36184  0.61519  0.68050  Biso   1.000  H
  H112     1.0000 0.42356  0.64833  0.70599  Biso   1.000  H
  N63      1.0000 0.38124  0.63702  0.79881  Biso   1.000  N
  H113     1.0000 0.28515  0.50119  0.73932  Biso   1.000  H
  H114     1.0000 0.28663  0.44441  0.81207  Biso   1.000  H
  N64      1.0000 0.32147  0.54354  0.84383  Biso   1.000  N
  C103     1.0000 0.61223  0.53099  0.29994  Biso   1.000  C
  C104     1.0000 0.61964  0.61881  0.19640  Biso   1.000  C
  C105     1.0000 0.52341  0.47438  0.26927  Biso   1.000  C
  C106     1.0000 0.32883  0.62028  0.81930  Biso   1.000  C
  C107     1.0000 0.41127  0.68621  0.85407  Biso   1.000  C
  C108     1.0000 0.31467  0.53823  0.92302  Biso   1.000  C
  C109     1.0000 0.56467  0.59619  0.29771  Biso   1.000  C
  C110     1.0000 0.65263  0.52460  0.38076  Biso   1.000  C
  N65      1.0000 0.57530  0.64544  0.23166  Biso   1.000  N
  O31      1.0000 0.63740  0.65178  0.14180  Biso   1.000  O
  N66      1.0000 0.51256  0.55044  0.27632  Biso   1.000  N
  O32      1.0000 0.48620  0.42439  0.25492  Biso   1.000  O
  H115     1.0000 0.29766  0.63611  0.77621  Biso   1.000  H
  C111     1.0000 0.32878  0.66699  0.89680  Biso   1.000  C
  N67      1.0000 0.38414  0.69820  0.91410  Biso   1.000  N
  O33      1.0000 0.45953  0.70759  0.83708  Biso   1.000  O
  N68      1.0000 0.31744  0.60948  0.95526  Biso   1.000  N
  O34      1.0000 0.30407  0.48106  0.95930  Biso   1.000  O
  C112     1.0000 0.56625  0.63753  0.37335  Biso   1.000  C
  H116     1.0000 0.67374  0.57142  0.39155  Biso   1.000  H
  H117     1.0000 0.63095  0.51510  0.42355  Biso   1.000  H
  H118     1.0000 0.67896  0.48321  0.37811  Biso   1.000  H
  C113     1.0000 0.54756  0.71290  0.20773  Biso   1.000  C
  C114     1.0000 0.45498  0.57611  0.27463  Biso   1.000  C
  H119     1.0000 0.29926  0.70680  0.88927  Biso   1.000  H
  C115     1.0000 0.40087  0.75933  0.97039  Biso   1.000  C
  C116     1.0000 0.31330  0.62531  0.03717  Biso   1.000  C
  H120     1.0000 0.60104  0.66670  0.38456  Biso   1.000  H
  H121     1.0000 0.53393  0.67140  0.36877  Biso   1.000  H
  H122     1.0000 0.56485  0.60201  0.41687  Biso   1.000  H
  N69      1.0000 0.49398  0.70533  0.15283  Biso   1.000  N
  H123     1.0000 0.54044  0.73971  0.25607  Biso   1.000  H
  H124     1.0000 0.57303  0.74451  0.18182  Biso   1.000  H
  N70      1.0000 0.43297  0.61100  0.19652  Biso   1.000  N
  H125     1.0000 0.43093  0.53319  0.28397  Biso   1.000  H
  H126     1.0000 0.45393  0.61298  0.31784  Biso   1.000  H
  H127     1.0000 0.42685  0.79309  0.94809  Biso   1.000  H
  H128     1.0000 0.36716  0.78862  0.97726  Biso   1.000  H
  N71      1.0000 0.42845  0.73168  0.04856  Biso   1.000  N
  H129     1.0000 0.29164  0.67208  0.03934  Biso   1.000  H
  H130     1.0000 0.29231  0.58443  0.05814  Biso   1.000  H
  N72      1.0000 0.36739  0.63334  0.08786  Biso   1.000  N
  C117     1.0000 0.48691  0.72789  0.07411  Biso   1.000  C
  C118     1.0000 0.44051  0.68955  0.17892  Biso   1.000  C
  C119     1.0000 0.38761  0.58160  0.14397  Biso   1.000  C
  C120     1.0000 0.39539  0.70329  0.10823  Biso   1.000  C
  O35      1.0000 0.52561  0.74321  0.03494  Biso   1.000  O
  H131     1.0000 0.43511  0.72201  0.22515  Biso   1.000  H
  O36      1.0000 0.36691  0.51713  0.14722  Biso   1.000  O
  H132     1.0000 0.36833  0.74208  0.12082  Biso   1.000  H
  C121     1.0000 0.84067  0.19396  0.55658  Biso   1.000  C
  N73      1.0000 0.83196  0.13849  0.49228  Biso   1.000  N
  H133     1.0000 0.81684  0.23812  0.53971  Biso   1.000  H
  H134     1.0000 0.82772  0.17230  0.60402  Biso   1.000  H
  N74      1.0000 0.89798  0.21890  0.57949  Biso   1.000  N
  C122     1.0000 0.82557  0.15670  0.40676  Biso   1.000  C
  C123     1.0000 0.82422  0.06249  0.50596  Biso   1.000  C
  C124     1.0000 0.92466  0.28150  0.54405  Biso   1.000  C
  C125     1.0000 0.93147  0.19017  0.64801  Biso   1.000  C
  C126     1.0000 0.81048  0.07939  0.36638  Biso   1.000  C
  H135     1.0000 0.79481  0.19402  0.39109  Biso   1.000  H
  N75      1.0000 0.87651  0.17914  0.37897  Biso   1.000  N
  N76      1.0000 0.81243  0.02731  0.43273  Biso   1.000  N
  O37      1.0000 0.82516  0.03319  0.57147  Biso   1.000  O
  N77      1.0000 0.93989  0.26272  0.46546  Biso   1.000  N
  C127     1.0000 0.98539  0.28794  0.60155  Biso   1.000  C
  C128     1.0000 0.88826  0.35303  0.54140  Biso   1.000  C
  N78      1.0000 0.98134  0.22687  0.66007  Biso   1.000  N
  O38      1.0000 0.91796  0.14097  0.69231  Biso   1.000  O
  H136     1.0000 0.77241  0.08030  0.33269  Biso   1.000  H
  N79      1.0000 0.85509  0.07091  0.31689  Biso   1.000  N
  C129     1.0000 0.89132  0.13097  0.32238  Biso   1.000  C
  C130     1.0000 0.90136  0.25565  0.39205  Biso   1.000  C
  C131     1.0000 0.79420  0.94945  0.42441  Biso   1.000  C
  C132     1.0000 0.99688  0.25735  0.46793  Biso   1.000  C
  N80      1.0000 0.02375  0.26827  0.54459  Biso   1.000  N
  C133     1.0000 0.00008  0.36355  0.63988  Biso   1.000  C
  H137     1.0000 0.87933  0.36298  0.59467  Biso   1.000  H
  H138     1.0000 0.85332  0.34579  0.50367  Biso   1.000  H
  H139     1.0000 0.90894  0.39561  0.52428  Biso   1.000  H
  C134     1.0000 0.02577  0.20765  0.72588  Biso   1.000  C
  C135     1.0000 0.85240  0.01312  0.25391  Biso   1.000  C
  O39      1.0000 0.92935  0.13984  0.28501  Biso   1.000  O
  H140     1.0000 0.92113  0.26810  0.34721  Biso   1.000  H
  H141     1.0000 0.87063  0.29241  0.39181  Biso   1.000  H
  H142     1.0000 0.75954  0.94673  0.38440  Biso   1.000  H
  H143     1.0000 0.78483  0.93209  0.47600  Biso   1.000  H
  N81      1.0000 0.83586  0.89872  0.40031  Biso   1.000  N
  O40      1.0000 0.02057  0.24576  0.40959  Biso   1.000  O
  C136     1.0000 0.08546  0.27675  0.56285  Biso   1.000  C
  H144     1.0000 0.97106  0.37819  0.67098  Biso   1.000  H
  H145     1.0000 0.00226  0.40093  0.59841  Biso   1.000  H
  H146     1.0000 0.03634  0.36033  0.67531  Biso   1.000  H
  H147     1.0000 0.00874  0.18390  0.76879  Biso   1.000  H
  H148     1.0000 0.04456  0.25418  0.74770  Biso   1.000  H
  N82      1.0000 0.06806  0.15675  0.70286  Biso   1.000  N
  H149     1.0000 0.87380  0.03110  0.21269  Biso   1.000  H
  H150     1.0000 0.81270  0.00729  0.22818  Biso   1.000  H
  N83      1.0000 0.87335  0.94232  0.28061  Biso   1.000  N
  C137     1.0000 0.84110  0.88577  0.31563  Biso   1.000  C
  C138     1.0000 0.86036  0.84099  0.45009  Biso   1.000  C
  H151     1.0000 0.09484  0.31718  0.60269  Biso   1.000  H
  H152     1.0000 0.09962  0.29179  0.51367  Biso   1.000  H
  N84      1.0000 0.11413  0.20640  0.59449  Biso   1.000  N
  C139     1.0000 0.11952  0.18491  0.67706  Biso   1.000  C
  C140     1.0000 0.07450  0.08663  0.73287  Biso   1.000  C
  C141     1.0000 0.92556  0.91337  0.26711  Biso   1.000  C
  C142     1.0000 0.88055  0.81509  0.32292  Biso   1.000  C
  H153     1.0000 0.80391  0.87582  0.28158  Biso   1.000  H
  N85      1.0000 0.88593  0.79360  0.40549  Biso   1.000  N
  O41      1.0000 0.85681  0.83516  0.52229  Biso   1.000  O
  C143     1.0000 0.13970  0.15901  0.54989  Biso   1.000  C
  H154     1.0000 0.13675  0.22619  0.71280  Biso   1.000  H
  C144     1.0000 0.15896  0.11423  0.68436  Biso   1.000  C
  N86      1.0000 0.12672  0.05768  0.71937  Biso   1.000  N
  O42      1.0000 0.04131  0.05106  0.76692  Biso   1.000  O
  N87      1.0000 0.93201  0.84325  0.29713  Biso   1.000  N
  O43      1.0000 0.95875  0.94899  0.23306  Biso   1.000  O
  H155     1.0000 0.86332  0.77381  0.28718  Biso   1.000  H
  C145     1.0000 0.91461  0.72325  0.43713  Biso   1.000  C
  N88      1.0000 0.16421  0.10133  0.59968  Biso   1.000  N
  O44      1.0000 0.14325  0.16484  0.47769  Biso   1.000  O
  H156     1.0000 0.19615  0.12418  0.71841  Biso   1.000  H
  C146     1.0000 0.14767  0.98688  0.74607  Biso   1.000  C
  C147     1.0000 0.97430  0.79241  0.27410  Biso   1.000  C
  H157     1.0000 0.90523  0.68282  0.39729  Biso   1.000  H
  H158     1.0000 0.90044  0.70821  0.48631  Biso   1.000  H
  N89      1.0000 0.97633  0.73173  0.45545  Biso   1.000  N
  C148     1.0000 0.20587  0.05055  0.57557  Biso   1.000  C
  H159     1.0000 0.12627  0.96890  0.78729  Biso   1.000  H
  H160     1.0000 0.18737  0.99271  0.77181  Biso   1.000  H
  N90      1.0000 0.14497  0.92909  0.68309  Biso   1.000  N
  H161     1.0000 0.99132  0.81610  0.23119  Biso   1.000  H
  H162     1.0000 0.95550  0.74582  0.25229  Biso   1.000  H
  N91      1.0000 0.01873  0.77313  0.33992  Biso   1.000  N
  C149     1.0000 0.01463  0.71206  0.39844  Biso   1.000  C
  C150     1.0000 0.00318  0.74265  0.53206  Biso   1.000  C
  N92      1.0000 0.18763  0.97274  0.56725  Biso   1.000  N
  H163     1.0000 0.24053  0.05333  0.61559  Biso   1.000  H
  H164     1.0000 0.21524  0.06791  0.52398  Biso   1.000  H
  C151     1.0000 0.10875  0.86903  0.67760  Biso   1.000  C
  C152     1.0000 0.18960  0.92061  0.63367  Biso   1.000  C
  C153     1.0000 0.06859  0.80983  0.35197  Biso   1.000  C
  C154     1.0000 0.99999  0.63645  0.36011  Biso   1.000  C
  C155     1.0000 0.07541  0.71856  0.45594  Biso   1.000  C
  O45      1.0000 0.97950  0.75424  0.59040  Biso   1.000  O
  N93      1.0000 0.06018  0.73728  0.53453  Biso   1.000  N
  C156     1.0000 0.17584  0.93751  0.49403  Biso   1.000  C
  N94      1.0000 0.12356  0.82086  0.62101  Biso   1.000  N
  O46      1.0000 0.07072  0.86021  0.71503  Biso   1.000  O
  C157     1.0000 0.17450  0.84330  0.59323  Biso   1.000  C
  H165     1.0000 0.22766  0.91970  0.66730  Biso   1.000  H
  N95      1.0000 0.10208  0.78110  0.42050  Biso   1.000  N
  O47      1.0000 0.08212  0.85908  0.30773  Biso   1.000  O
  H166     1.0000 0.99781  0.59913  0.40157  Biso   1.000  H
  H167     1.0000 0.96372  0.63973  0.32467  Biso   1.000  H
  H168     1.0000 0.02900  0.62181  0.32901  Biso   1.000  H
  C158     1.0000 0.11181  0.64697  0.45859  Biso   1.000  C
  C159     1.0000 0.09871  0.74435  0.60793  Biso   1.000  C
  N96      1.0000 0.16806  0.86151  0.50771  Biso   1.000  N
  O48      1.0000 0.17490  0.96681  0.42851  Biso   1.000  O
  H169     1.0000 0.20525  0.80598  0.60890  Biso   1.000  H
  C160     1.0000 0.15940  0.80604  0.44340  Biso   1.000  C
  H170     1.0000 0.12073  0.63702  0.40531  Biso   1.000  H
  H171     1.0000 0.14675  0.65421  0.49632  Biso   1.000  H
  H172     1.0000 0.09113  0.60439  0.47570  Biso   1.000  H
  H173     1.0000 0.07894  0.73190  0.65277  Biso   1.000  H
  H174     1.0000 0.12943  0.70759  0.60817  Biso   1.000  H
  H175     1.0000 0.18322  0.76193  0.46027  Biso   1.000  H
  H176     1.0000 0.17230  0.82770  0.39597  Biso   1.000  H
