data_image0
_cell_length_a       16.897
_cell_length_b       18.037
_cell_length_c       18.475
_cell_angle_alpha    68.84
_cell_angle_beta     69.69
_cell_angle_gamma    73.9

_symmetry_space_group_name_H-M    "P 1"
_symmetry_int_tables_number       1

loop_
  _symmetry_equiv_pos_as_xyz
  'x, y, z'

loop_
  _atom_site_label
  _atom_site_occupancy
  _atom_site_fract_x
  _atom_site_fract_y
  _atom_site_fract_z
  _atom_site_thermal_displace_type
  _atom_site_B_iso_or_equiv
  _atom_site_type_symbol
  C1       1.0000 0.59566  0.72978  0.38921  Biso   1.000  C
  N1       1.0000 0.65663  0.76007  0.31223  Biso   1.000  N
  H1       1.0000 0.60822  0.67061  0.40600  Biso   1.000  H
  H2       1.0000 0.53781  0.74642  0.38208  Biso   1.000  H
  N2       1.0000 0.59749  0.75810  0.45213  Biso   1.000  N
  C2       1.0000 0.72663  0.71419  0.27708  Biso   1.000  C
  C3       1.0000 0.63735  0.83948  0.25897  Biso   1.000  C
  C4       1.0000 0.53919  0.82568  0.47646  Biso   1.000  C
  C5       1.0000 0.64748  0.71417  0.50248  Biso   1.000  C
  O1       1.0000 0.75329  0.64126  0.30691  Biso   1.000  O
  N3       1.0000 0.76533  0.75933  0.20336  Biso   1.000  N
  C6       1.0000 0.71473  0.84225  0.18313  Biso   1.000  C
  H3       1.0000 0.58221  0.84866  0.24677  Biso   1.000  H
  N4       1.0000 0.64408  0.90416  0.28530  Biso   1.000  N
  N5       1.0000 0.56968  0.90221  0.42453  Biso   1.000  N
  C7       1.0000 0.55698  0.81652  0.55852  Biso   1.000  C
  C8       1.0000 0.44629  0.82991  0.48014  Biso   1.000  C
  N6       1.0000 0.62777  0.74683  0.56280  Biso   1.000  N
  O2       1.0000 0.69988  0.65120  0.49602  Biso   1.000  O
  C9       1.0000 0.83819  0.73003  0.14419  Biso   1.000  C
  H4       1.0000 0.69569  0.85330  0.13471  Biso   1.000  H
  N7       1.0000 0.75641  0.90538  0.17486  Biso   1.000  N
  C10      1.0000 0.71013  0.94374  0.23367  Biso   1.000  C
  C11      1.0000 0.57127  0.93930  0.34151  Biso   1.000  C
  C12      1.0000 0.59381  0.93953  0.46625  Biso   1.000  C
  C13      1.0000 0.48225  0.80148  0.63429  Biso   1.000  C
  N8       1.0000 0.58587  0.89157  0.54408  Biso   1.000  N
  H5       1.0000 0.42773  0.77934  0.51498  Biso   1.000  H
  H6       1.0000 0.41003  0.87368  0.50146  Biso   1.000  H
  H7       1.0000 0.44221  0.83955  0.42628  Biso   1.000  H
  C14      1.0000 0.66073  0.70396  0.63272  Biso   1.000  C
  H8       1.0000 0.82388  0.74862  0.09268  Biso   1.000  H
  H9       1.0000 0.84712  0.67081  0.16170  Biso   1.000  H
  N9       1.0000 0.91679  0.75456  0.13078  Biso   1.000  N
  C15      1.0000 0.81666  0.94053  0.10391  Biso   1.000  C
  O3       1.0000 0.72595  0.00492  0.23814  Biso   1.000  O
  H10      1.0000 0.51811  0.93502  0.33426  Biso   1.000  H
  H11      1.0000 0.57273  0.99683  0.32756  Biso   1.000  H
  O4       1.0000 0.61674  0.00588  0.43643  Biso   1.000  O
  H12      1.0000 0.46491  0.75137  0.64281  Biso   1.000  H
  H13      1.0000 0.49972  0.79775  0.68036  Biso   1.000  H
  H14      1.0000 0.43461  0.84565  0.62789  Biso   1.000  H
  C16      1.0000 0.60884  0.91567  0.59855  Biso   1.000  C
  H15      1.0000 0.61491  0.70824  0.68199  Biso   1.000  H
  H16      1.0000 0.67930  0.64667  0.63580  Biso   1.000  H
  N10      1.0000 0.73337  0.73713  0.62801  Biso   1.000  N
  C17      1.0000 0.94504  0.82724  0.07155  Biso   1.000  C
  C18      1.0000 0.97568  0.70874  0.17323  Biso   1.000  C
  H17      1.0000 0.80151  0.94072  0.05730  Biso   1.000  H
  H18      1.0000 0.81231  0.99693  0.10071  Biso   1.000  H
  N11      1.0000 0.90404  0.90109  0.09812  Biso   1.000  N
  H19      1.0000 0.60033  0.97476  0.58206  Biso   1.000  H
  H20      1.0000 0.57009  0.89805  0.65265  Biso   1.000  H
  N12      1.0000 0.69739  0.88359  0.60265  Biso   1.000  N
  C19      1.0000 0.72386  0.80785  0.65700  Biso   1.000  C
  C20      1.0000 0.81731  0.69604  0.61588  Biso   1.000  C
  C21      1.0000 0.93309  0.84097  0.98768  Biso   1.000  C
  C22      1.0000 0.04116  0.81822  0.07046  Biso   1.000  C
  O5       1.0000 0.96809  0.64613  0.22570  Biso   1.000  O
  N13      1.0000 0.04530  0.74673  0.14292  Biso   1.000  N
  C23      1.0000 0.96322  0.93594  0.10464  Biso   1.000  C
  C24      1.0000 0.75793  0.92837  0.56630  Biso   1.000  C
  C25      1.0000 0.81608  0.80853  0.65192  Biso   1.000  C
  H21      1.0000 0.68600  0.80104  0.71279  Biso   1.000  H
  N14      1.0000 0.86587  0.73482  0.62844  Biso   1.000  N
  O6       1.0000 0.83941  0.63068  0.59988  Biso   1.000  O
  H22      1.0000 0.95332  0.89015  0.95031  Biso   1.000  H
  H23      1.0000 0.96570  0.79563  0.96739  Biso   1.000  H
  H24      1.0000 0.87291  0.84584  0.99294  Biso   1.000  H
  C26      1.0000 0.11024  0.80304  0.99680  Biso   1.000  C
  N15      1.0000 0.04273  0.89096  0.08429  Biso   1.000  N
  C27      1.0000 0.12415  0.70381  0.16526  Biso   1.000  C
  O7       1.0000 0.94569  0.99949  0.12106  Biso   1.000  O
  N16      1.0000 0.83353  0.88208  0.58816  Biso   1.000  N
  O8       1.0000 0.75444  0.99823  0.52259  Biso   1.000  O
  H25      1.0000 0.82180  0.80845  0.70349  Biso   1.000  H
  C28      1.0000 0.95034  0.70001  0.63870  Biso   1.000  C
  H26      1.0000 0.10703  0.75292  0.99040  Biso   1.000  H
  H27      1.0000 0.10214  0.84720  0.94940  Biso   1.000  H
  H28      1.0000 0.16589  0.79920  0.00320  Biso   1.000  H
  C29      1.0000 0.11735  0.91476  0.08616  Biso   1.000  C
  H29      1.0000 0.11962  0.64682  0.19249  Biso   1.000  H
  H30      1.0000 0.17198  0.70682  0.11611  Biso   1.000  H
  N17      1.0000 0.14274  0.73627  0.21821  Biso   1.000  N
  C30      1.0000 0.90685  0.91546  0.57198  Biso   1.000  C
  H31      1.0000 0.95309  0.70749  0.68767  Biso   1.000  H
  H32      1.0000 0.96003  0.64187  0.64667  Biso   1.000  H
  N18      1.0000 0.01819  0.73391  0.57180  Biso   1.000  N
  H33      1.0000 0.10832  0.97384  0.07167  Biso   1.000  H
  H34      1.0000 0.16749  0.89759  0.04541  Biso   1.000  H
  N19      1.0000 0.13531  0.88082  0.16417  Biso   1.000  N
  C31      1.0000 0.18753  0.80380  0.18772  Biso   1.000  C
  C32      1.0000 0.14428  0.69325  0.29514  Biso   1.000  C
  H35      1.0000 0.89449  0.97356  0.54565  Biso   1.000  H
  H36      1.0000 0.91638  0.90843  0.62360  Biso   1.000  H
  N20      1.0000 0.98692  0.88101  0.52090  Biso   1.000  N
  C33      1.0000 0.06845  0.69192  0.51655  Biso   1.000  C
  C34      1.0000 0.04459  0.81024  0.55435  Biso   1.000  C
  C35      1.0000 0.11881  0.92579  0.21501  Biso   1.000  C
  H37      1.0000 0.24052  0.79631  0.14407  Biso   1.000  H
  C36      1.0000 0.20721  0.80380  0.26217  Biso   1.000  C
  N21      1.0000 0.17747  0.73357  0.32327  Biso   1.000  N
  O9       1.0000 0.11722  0.62850  0.33288  Biso   1.000  O
  C37      1.0000 0.02014  0.91863  0.44331  Biso   1.000  C
  N22      1.0000 0.12945  0.73246  0.46517  Biso   1.000  N
  O10      1.0000 0.05764  0.62668  0.51921  Biso   1.000  O
  C38      1.0000 0.12763  0.80906  0.47960  Biso   1.000  C
  C39      1.0000 0.06091  0.81518  0.62928  Biso   1.000  C
  N23      1.0000 0.15465  0.87999  0.27606  Biso   1.000  N
  O11      1.0000 0.07869  0.99427  0.20759  Biso   1.000  O
  H38      1.0000 0.26891  0.80210  0.25281  Biso   1.000  H
  C40      1.0000 0.19629  0.70287  0.40165  Biso   1.000  C
  N24      1.0000 0.10163  0.88106  0.41523  Biso   1.000  N
  O12      1.0000 0.98319  0.97951  0.40243  Biso   1.000  O
  C41      1.0000 0.21017  0.81275  0.49083  Biso   1.000  C
  H39      1.0000 0.07897  0.86609  0.61666  Biso   1.000  H
  H40      1.0000 0.00858  0.81177  0.67330  Biso   1.000  H
  H41      1.0000 0.10549  0.77083  0.64510  Biso   1.000  H
  C42      1.0000 0.15579  0.91140  0.33650  Biso   1.000  C
  H42      1.0000 0.25018  0.71822  0.39519  Biso   1.000  H
  H43      1.0000 0.20472  0.64374  0.41868  Biso   1.000  H
  H44      1.0000 0.22524  0.76534  0.53316  Biso   1.000  H
  H45      1.0000 0.25530  0.81423  0.44077  Biso   1.000  H
  H46      1.0000 0.20326  0.86086  0.50580  Biso   1.000  H
  H47      1.0000 0.13912  0.97020  0.31881  Biso   1.000  H
  H48      1.0000 0.21482  0.89964  0.34000  Biso   1.000  H
  C43      1.0000 0.40433  0.27034  0.61080  Biso   1.000  C
  N25      1.0000 0.40250  0.24202  0.54789  Biso   1.000  N
  H49      1.0000 0.39180  0.32947  0.59396  Biso   1.000  H
  H50      1.0000 0.46221  0.25366  0.61787  Biso   1.000  H
  N26      1.0000 0.34339  0.24001  0.68773  Biso   1.000  N
  C44      1.0000 0.35252  0.28589  0.49753  Biso   1.000  C
  C45      1.0000 0.46081  0.17446  0.52349  Biso   1.000  C
  C46      1.0000 0.36267  0.16060  0.74098  Biso   1.000  C
  C47      1.0000 0.27337  0.28587  0.72293  Biso   1.000  C
  N27      1.0000 0.37223  0.25324  0.43721  Biso   1.000  N
  O13      1.0000 0.30012  0.34893  0.50393  Biso   1.000  O
  C48      1.0000 0.44304  0.18356  0.44144  Biso   1.000  C
  N28      1.0000 0.43034  0.09786  0.57542  Biso   1.000  N
  C49      1.0000 0.55373  0.17017  0.51981  Biso   1.000  C
  N29      1.0000 0.35593  0.09597  0.71466  Biso   1.000  N
  H51      1.0000 0.41779  0.15148  0.75318  Biso   1.000  H
  C50      1.0000 0.28523  0.15783  0.81682  Biso   1.000  C
  N30      1.0000 0.23467  0.24081  0.79659  Biso   1.000  N
  O14      1.0000 0.24671  0.35880  0.69310  Biso   1.000  O
  C51      1.0000 0.33928  0.29612  0.36723  Biso   1.000  C
  N31      1.0000 0.41415  0.10851  0.45587  Biso   1.000  N
  C52      1.0000 0.51775  0.19866  0.36566  Biso   1.000  C
  C53      1.0000 0.40617  0.06059  0.53376  Biso   1.000  C
  C54      1.0000 0.42875  0.06078  0.65844  Biso   1.000  C
  H52      1.0000 0.57229  0.22074  0.48497  Biso   1.000  H
  H53      1.0000 0.58997  0.12646  0.49850  Biso   1.000  H
  H54      1.0000 0.55779  0.16058  0.57367  Biso   1.000  H
  C55      1.0000 0.28987  0.05640  0.76628  Biso   1.000  C
  N32      1.0000 0.24359  0.09475  0.82509  Biso   1.000  N
  H55      1.0000 0.30433  0.14678  0.86525  Biso   1.000  H
  C56      1.0000 0.16182  0.27011  0.85577  Biso   1.000  C
  N33      1.0000 0.26665  0.26294  0.37194  Biso   1.000  N
  H56      1.0000 0.38511  0.29184  0.31796  Biso   1.000  H
  H57      1.0000 0.32068  0.35344  0.36421  Biso   1.000  H
  C57      1.0000 0.39116  0.08439  0.40147  Biso   1.000  C
  H58      1.0000 0.53507  0.24875  0.35721  Biso   1.000  H
  H59      1.0000 0.50030  0.20232  0.31959  Biso   1.000  H
  H60      1.0000 0.56541  0.15442  0.37206  Biso   1.000  H
  O15      1.0000 0.38328  0.99420  0.56353  Biso   1.000  O
  H61      1.0000 0.48190  0.06506  0.66569  Biso   1.000  H
  H62      1.0000 0.42729  0.00325  0.67239  Biso   1.000  H
  O16      1.0000 0.27401  0.99516  0.76181  Biso   1.000  O
  C58      1.0000 0.18336  0.05954  0.89604  Biso   1.000  C
  H63      1.0000 0.17614  0.25146  0.90727  Biso   1.000  H
  H64      1.0000 0.15290  0.32926  0.83826  Biso   1.000  H
  N34      1.0000 0.08321  0.24557  0.86917  Biso   1.000  N
  C59      1.0000 0.27616  0.19223  0.34296  Biso   1.000  C
  C60      1.0000 0.18269  0.30410  0.38408  Biso   1.000  C
  N35      1.0000 0.30262  0.11654  0.39730  Biso   1.000  N
  H65      1.0000 0.39969  0.02532  0.41789  Biso   1.000  H
  H66      1.0000 0.42987  0.10203  0.34731  Biso   1.000  H
  H67      1.0000 0.19849  0.05941  0.94265  Biso   1.000  H
  H68      1.0000 0.18769  0.00321  0.89924  Biso   1.000  H
  N36      1.0000 0.09598  0.09899  0.90184  Biso   1.000  N
  C61      1.0000 0.05498  0.17283  0.92840  Biso   1.000  C
  C62      1.0000 0.02434  0.29134  0.82672  Biso   1.000  C
  C63      1.0000 0.18394  0.19155  0.34803  Biso   1.000  C
  H69      1.0000 0.31402  0.19904  0.28717  Biso   1.000  H
  N37      1.0000 0.13415  0.26526  0.37152  Biso   1.000  N
  O17      1.0000 0.16059  0.36945  0.40008  Biso   1.000  O
  C64      1.0000 0.24208  0.07170  0.43365  Biso   1.000  C
  C65      1.0000 0.03678  0.06413  0.89538  Biso   1.000  C
  C66      1.0000 0.95884  0.18192  0.92949  Biso   1.000  C
  C67      1.0000 0.06692  0.15911  0.01227  Biso   1.000  C
  N38      1.0000 0.95472  0.25335  0.85703  Biso   1.000  N
  O18      1.0000 0.03193  0.35395  0.77425  Biso   1.000  O
  H70      1.0000 0.17822  0.19163  0.29647  Biso   1.000  H
  N39      1.0000 0.16649  0.11800  0.41179  Biso   1.000  N
  C68      1.0000 0.04962  0.30007  0.36125  Biso   1.000  C
  O19      1.0000 0.24550  0.00191  0.47736  Biso   1.000  O
  N40      1.0000 0.95729  0.10912  0.91566  Biso   1.000  N
  O20      1.0000 0.05433  0.00059  0.87889  Biso   1.000  O
  C69      1.0000 0.88978  0.19704  0.00315  Biso   1.000  C
  H71      1.0000 0.04669  0.10998  0.04965  Biso   1.000  H
  H72      1.0000 0.03432  0.20445  0.03256  Biso   1.000  H
  H73      1.0000 0.12708  0.15428  0.00708  Biso   1.000  H
  C70      1.0000 0.87587  0.29627  0.83469  Biso   1.000  C
  C71      1.0000 0.09315  0.08461  0.42803  Biso   1.000  C
  H74      1.0000 0.04691  0.29264  0.31229  Biso   1.000  H
  H75      1.0000 0.03999  0.35821  0.35328  Biso   1.000  H
  N41      1.0000 0.98182  0.26615  0.42822  Biso   1.000  N
  C72      1.0000 0.88261  0.08532  0.91379  Biso   1.000  C
  H76      1.0000 0.83413  0.20088  0.99675  Biso   1.000  H
  H77      1.0000 0.89299  0.24715  0.00955  Biso   1.000  H
  H78      1.0000 0.89788  0.15288  0.05055  Biso   1.000  H
  N42      1.0000 0.85728  0.26381  0.78174  Biso   1.000  N
  H79      1.0000 0.88040  0.35326  0.80746  Biso   1.000  H
  H80      1.0000 0.82802  0.29331  0.88384  Biso   1.000  H
  H81      1.0000 0.10553  0.02651  0.45430  Biso   1.000  H
  H82      1.0000 0.08362  0.09163  0.37641  Biso   1.000  H
  N43      1.0000 0.01307  0.11911  0.47912  Biso   1.000  N
  C73      1.0000 0.95543  0.18983  0.44560  Biso   1.000  C
  C74      1.0000 0.93155  0.30822  0.48340  Biso   1.000  C
  N44      1.0000 0.86471  0.11925  0.83578  Biso   1.000  N
  H83      1.0000 0.89168  0.02630  0.92828  Biso   1.000  H
  H84      1.0000 0.83253  0.10249  0.95455  Biso   1.000  H
  C75      1.0000 0.85574  0.30683  0.70482  Biso   1.000  C
  C76      1.0000 0.81247  0.19626  0.81229  Biso   1.000  C
  C77      1.0000 0.97980  0.08151  0.55664  Biso   1.000  C
  C78      1.0000 0.87233  0.19102  0.52036  Biso   1.000  C
  C79      1.0000 0.93909  0.18495  0.37067  Biso   1.000  C
  N45      1.0000 0.87051  0.26762  0.53479  Biso   1.000  N
  O21      1.0000 0.94238  0.37340  0.48075  Biso   1.000  O
  C80      1.0000 0.88120  0.07435  0.78494  Biso   1.000  C
  N46      1.0000 0.82253  0.26657  0.67668  Biso   1.000  N
  O22      1.0000 0.88280  0.37158  0.66708  Biso   1.000  O
  C81      1.0000 0.79281  0.19628  0.73778  Biso   1.000  C
  H85      1.0000 0.75950  0.20377  0.85589  Biso   1.000  H
  O23      1.0000 0.01682  0.02063  0.59752  Biso   1.000  O
  N47      1.0000 0.89831  0.11908  0.58472  Biso   1.000  N
  C82      1.0000 0.78984  0.18739  0.50912  Biso   1.000  C
  H86      1.0000 0.92097  0.13404  0.38329  Biso   1.000  H
  H87      1.0000 0.99141  0.18834  0.32672  Biso   1.000  H
  H88      1.0000 0.89451  0.22923  0.35491  Biso   1.000  H
  C83      1.0000 0.80370  0.29725  0.59837  Biso   1.000  C
  N48      1.0000 0.84535  0.12015  0.72390  Biso   1.000  N
  O24      1.0000 0.92132  0.00579  0.79243  Biso   1.000  O
  H89      1.0000 0.73109  0.19796  0.74720  Biso   1.000  H
  C84      1.0000 0.84421  0.08874  0.66346  Biso   1.000  C
  H90      1.0000 0.77478  0.23473  0.46680  Biso   1.000  H
  H91      1.0000 0.74472  0.18584  0.55918  Biso   1.000  H
  H92      1.0000 0.79666  0.13926  0.49421  Biso   1.000  H
  H93      1.0000 0.74978  0.28186  0.60477  Biso   1.000  H
  H94      1.0000 0.79530  0.35633  0.58128  Biso   1.000  H
  H95      1.0000 0.86090  0.02988  0.68115  Biso   1.000  H
  H96      1.0000 0.78520  0.10044  0.65995  Biso   1.000  H
  Ne1      1.0000 0.12183  0.18269  0.63231  Biso   1.000  Ne
  He1      1.0000 0.13133  0.95559  0.71666  Biso   1.000  He
  He2      1.0000 0.08520  0.36612  0.58626  Biso   1.000  He
  Ar1      1.0000 0.11830  0.18509  0.62996  Biso   1.000  Ar
  Ne2      1.0000 0.87818  0.81741  0.36766  Biso   1.000  Ne
  He3      1.0000 0.91440  0.63712  0.41288  Biso   1.000  He
  He4      1.0000 0.86772  0.05099  0.28166  Biso   1.000  He
  Ar2      1.0000 0.88238  0.81438  0.36954  Biso   1.000  Ar
