data_image0
_cell_length_a       16.027
_cell_length_b       18.404
_cell_length_c       21.748
_cell_angle_alpha    90.24
_cell_angle_beta     103.59
_cell_angle_gamma    109.59

_symmetry_space_group_name_H-M    "P 1"
_symmetry_int_tables_number       1

loop_
  _symmetry_equiv_pos_as_xyz
  'x, y, z'

loop_
  _atom_site_label
  _atom_site_occupancy
  _atom_site_fract_x
  _atom_site_fract_y
  _atom_site_fract_z
  _atom_site_thermal_displace_type
  _atom_site_B_iso_or_equiv
  _atom_site_type_symbol
  C1       1.0000 0.74078  0.88933  0.05609  Biso   1.000  C
  C2       1.0000 0.77996  0.84165  0.03282  Biso   1.000  C
  C3       1.0000 0.79390  0.94825  0.10397  Biso   1.000  C
  H1       1.0000 0.66911  0.88105  0.03700  Biso   1.000  H
  C4       1.0000 0.79392  0.94826  0.10402  Biso   1.000  C
  O1       1.0000 0.71949  0.78997  0.98208  Biso   1.000  O
  O2       1.0000 0.71947  0.78991  0.98208  Biso   1.000  O
  C5       1.0000 0.87211  0.85266  0.05728  Biso   1.000  C
  C6       1.0000 0.87209  0.85260  0.05728  Biso   1.000  C
  C7       1.0000 0.74085  0.88933  0.05609  Biso   1.000  C
  C8       1.0000 0.88607  0.95927  0.12848  Biso   1.000  C
  H2       1.0000 0.76415  0.98508  0.12198  Biso   1.000  H
  H3       1.0000 0.76415  0.98503  0.12202  Biso   1.000  H
  H4       1.0000 0.76409  0.98508  0.12198  Biso   1.000  H
  H5       1.0000 0.76408  0.98503  0.12202  Biso   1.000  H
  C9       1.0000 0.75489  0.72987  0.96688  Biso   1.000  C
  C10      1.0000 0.75487  0.72981  0.96688  Biso   1.000  C
  H6       1.0000 0.90210  0.81604  0.03899  Biso   1.000  H
  C11      1.0000 0.92521  0.91141  0.10511  Biso   1.000  C
  C12      1.0000 0.94479  0.02123  0.17931  Biso   1.000  C
  C13      1.0000 0.94477  0.02117  0.17931  Biso   1.000  C
  C14      1.0000 0.74053  0.66894  0.01320  Biso   1.000  C
  C15      1.0000 0.74046  0.66894  0.01320  Biso   1.000  C
  H7       1.0000 0.71604  0.70312  0.92000  Biso   1.000  H
  H8       1.0000 0.82603  0.75311  0.96798  Biso   1.000  H
  H9       1.0000 0.99713  0.92002  0.12402  Biso   1.000  H
  H10      1.0000 0.99707  0.92007  0.12397  Biso   1.000  H
  H11      1.0000 0.99709  0.92007  0.12402  Biso   1.000  H
  C16      1.0000 0.92774  0.01372  0.23921  Biso   1.000  C
  C17      1.0000 0.01329  0.08642  0.16848  Biso   1.000  C
  C18      1.0000 0.65686  0.62692  0.02541  Biso   1.000  C
  C19      1.0000 0.81867  0.65270  0.04208  Biso   1.000  C
  O3       1.0000 0.85897  0.95126  0.25180  Biso   1.000  O
  C20      1.0000 0.97942  0.07123  0.28842  Biso   1.000  C
  C21      1.0000 0.97936  0.07123  0.28842  Biso   1.000  C
  O4       1.0000 0.02497  0.09278  0.10858  Biso   1.000  O
  C22      1.0000 0.06489  0.14387  0.21769  Biso   1.000  C
  C23      1.0000 0.06485  0.14393  0.21769  Biso   1.000  C
  C24      1.0000 0.56765  0.63323  0.98850  Biso   1.000  C
  C25      1.0000 0.65150  0.56884  0.06659  Biso   1.000  C
  C26      1.0000 0.65143  0.56884  0.06659  Biso   1.000  C
  C27      1.0000 0.81328  0.59450  0.08331  Biso   1.000  C
  H12      1.0000 0.88307  0.68503  0.03301  Biso   1.000  H
  C28      1.0000 0.77999  0.95265  0.25759  Biso   1.000  C
  C29      1.0000 0.95795  0.06664  0.34970  Biso   1.000  C
  C30      1.0000 0.04788  0.13630  0.27759  Biso   1.000  C
  C31      1.0000 0.98386  0.13206  0.06588  Biso   1.000  C
  C32      1.0000 0.98388  0.13207  0.06592  Biso   1.000  C
  C33      1.0000 0.98388  0.13212  0.06588  Biso   1.000  C
  C34      1.0000 0.13295  0.21319  0.19617  Biso   1.000  C
  C35      1.0000 0.13297  0.21319  0.19622  Biso   1.000  C
  O5       1.0000 0.54337  0.61001  0.92451  Biso   1.000  O
  O6       1.0000 0.54339  0.61007  0.92451  Biso   1.000  O
  H13      1.0000 0.57805  0.69411  0.99201  Biso   1.000  H
  H14      1.0000 0.51409  0.60203  0.01101  Biso   1.000  H
  H15      1.0000 0.58708  0.53602  0.07599  Biso   1.000  H
  C36      1.0000 0.72969  0.55254  0.09552  Biso   1.000  C
  H16      1.0000 0.87411  0.58202  0.10602  Biso   1.000  H
  H17      1.0000 0.87407  0.58207  0.10602  Biso   1.000  H
  H18      1.0000 0.87405  0.58202  0.10602  Biso   1.000  H
  O7       1.0000 0.77660  0.97578  0.31920  Biso   1.000  O
  O8       1.0000 0.77666  0.97578  0.31920  Biso   1.000  O
  H19      1.0000 0.75814  0.99110  0.22501  Biso   1.000  H
  H20      1.0000 0.73207  0.89405  0.24401  Biso   1.000  H
  C37      1.0000 0.88791  0.10020  0.35801  Biso   1.000  C
  H21      1.0000 0.93597  0.00398  0.34898  Biso   1.000  H
  C38      1.0000 0.88787  0.10026  0.35801  Biso   1.000  C
  H22      1.0000 0.93593  0.00404  0.34898  Biso   1.000  H
  C39      1.0000 0.04082  0.10243  0.41159  Biso   1.000  C
  H23      1.0000 0.08797  0.18104  0.31602  Biso   1.000  H
  H24      1.0000 0.96496  0.10301  0.01899  Biso   1.000  H
  H25      1.0000 0.96500  0.10295  0.01899  Biso   1.000  H
  H26      1.0000 0.92295  0.13299  0.07899  Biso   1.000  H
  O9       1.0000 0.04337  0.21240  0.06588  Biso   1.000  O
  O10      1.0000 0.04339  0.21241  0.06592  Biso   1.000  O
  C40      1.0000 0.21562  0.25131  0.25208  Biso   1.000  C
  C41      1.0000 0.08339  0.27372  0.17822  Biso   1.000  C
  H27      1.0000 0.15802  0.19599  0.15898  Biso   1.000  H
  C42      1.0000 0.21556  0.25131  0.25208  Biso   1.000  C
  C43      1.0000 0.46698  0.62222  0.89150  Biso   1.000  C
  H28      1.0000 0.72503  0.50803  0.12701  Biso   1.000  H
  C44      1.0000 0.79725  0.05142  0.33668  Biso   1.000  C
  C45      1.0000 0.90788  0.17793  0.37668  Biso   1.000  C
  C46      1.0000 0.90790  0.17794  0.37672  Biso   1.000  C
  H29      1.0000 0.07498  0.16305  0.40698  Biso   1.000  H
  C47      1.0000 0.10548  0.05354  0.41591  Biso   1.000  C
  H30      1.0000 0.07496  0.16300  0.40698  Biso   1.000  H
  H31      1.0000 0.01495  0.09702  0.45401  Biso   1.000  H
  C48      1.0000 0.04369  0.26562  0.11319  Biso   1.000  C
  C49      1.0000 0.07843  0.33179  0.21679  Biso   1.000  C
  H32      1.0000 0.19699  0.27101  0.29198  Biso   1.000  H
  H33      1.0000 0.24601  0.20804  0.26600  Biso   1.000  H
  H34      1.0000 0.24599  0.20798  0.26600  Biso   1.000  H
  C50      1.0000 0.29500  0.32053  0.23332  Biso   1.000  C
  H35      1.0000 0.24595  0.20804  0.26600  Biso   1.000  H
  C51      1.0000 0.41443  0.66036  0.91098  Biso   1.000  C
  C52      1.0000 0.41443  0.66031  0.91102  Biso   1.000  C
  C53      1.0000 0.44200  0.58883  0.82942  Biso   1.000  C
  C54      1.0000 0.44194  0.58883  0.82942  Biso   1.000  C
  C55      1.0000 0.72664  0.08010  0.33421  Biso   1.000  C
  C56      1.0000 0.83732  0.20673  0.37421  Biso   1.000  C
  H36      1.0000 0.97798  0.21601  0.39302  Biso   1.000  H
  C57      1.0000 0.83726  0.20673  0.37421  Biso   1.000  C
  H37      1.0000 0.97801  0.21607  0.39302  Biso   1.000  H
  H38      1.0000 0.07113  0.99411  0.42299  Biso   1.000  H
  H39      1.0000 0.12499  0.05601  0.37197  Biso   1.000  H
  C58      1.0000 0.18091  0.08773  0.47011  Biso   1.000  C
  H40      1.0000 0.12501  0.05601  0.37202  Biso   1.000  H
  H41      1.0000 0.12493  0.05601  0.37197  Biso   1.000  H
  C59      1.0000 0.18085  0.08773  0.47011  Biso   1.000  C
  H42      1.0000 0.12495  0.05601  0.37202  Biso   1.000  H
  C60      1.0000 0.99908  0.31550  0.08701  Biso   1.000  C
  C61      1.0000 0.99914  0.31550  0.08701  Biso   1.000  C
  C62      1.0000 0.03384  0.38173  0.19061  Biso   1.000  C
  H43      1.0000 0.10901  0.33803  0.26700  Biso   1.000  H
  C63      1.0000 0.03378  0.38173  0.19061  Biso   1.000  C
  H44      1.0000 0.32098  0.29897  0.19798  Biso   1.000  H
  C64      1.0000 0.38376  0.36923  0.29360  Biso   1.000  C
  H45      1.0000 0.26099  0.36004  0.21299  Biso   1.000  H
  C65      1.0000 0.33698  0.66484  0.86851  Biso   1.000  C
  H46      1.0000 0.43412  0.68614  0.95900  Biso   1.000  H
  C66      1.0000 0.36447  0.59331  0.78690  Biso   1.000  C
  H47      1.0000 0.48303  0.55910  0.81398  Biso   1.000  H
  C67      1.0000 0.74668  0.15783  0.35288  Biso   1.000  C
  C68      1.0000 0.62778  0.02700  0.31250  Biso   1.000  C
  C69      1.0000 0.85646  0.29305  0.39340  Biso   1.000  C
  C70      1.0000 0.25828  0.12022  0.44731  Biso   1.000  C
  C71      1.0000 0.25830  0.12027  0.44731  Biso   1.000  C
  C72      1.0000 0.18311  0.10697  0.53262  Biso   1.000  C
  C73      1.0000 0.26256  0.09647  0.53148  Biso   1.000  C
  C74      1.0000 0.99414  0.37363  0.12559  Biso   1.000  C
  C75      1.0000 0.96214  0.31989  0.01771  Biso   1.000  C
  C76      1.0000 0.99412  0.37357  0.12559  Biso   1.000  C
  C77      1.0000 0.99408  0.37363  0.12559  Biso   1.000  C
  C78      1.0000 0.96208  0.31989  0.01771  Biso   1.000  C
  C79      1.0000 0.02629  0.43815  0.23930  Biso   1.000  C
  C80      1.0000 0.02627  0.43809  0.23930  Biso   1.000  C
  C81      1.0000 0.45041  0.33469  0.30618  Biso   1.000  C
  C82      1.0000 0.45037  0.33475  0.30618  Biso   1.000  C
  C83      1.0000 0.38848  0.42854  0.33559  Biso   1.000  C
  C84      1.0000 0.31194  0.63133  0.80638  Biso   1.000  C
  H48      1.0000 0.29610  0.69412  0.88400  Biso   1.000  H
  H49      1.0000 0.29603  0.69412  0.88400  Biso   1.000  H
  H50      1.0000 0.34503  0.56714  0.73897  Biso   1.000  H
  H51      1.0000 0.34503  0.56708  0.73902  Biso   1.000  H
  O11      1.0000 0.67403  0.18153  0.35179  Biso   1.000  O
  C85      1.0000 0.59472  0.98141  0.35820  Biso   1.000  C
  C86      1.0000 0.56898  0.02672  0.25408  Biso   1.000  C
  C87      1.0000 0.56900  0.02672  0.25412  Biso   1.000  C
  C88      1.0000 0.86101  0.33316  0.32989  Biso   1.000  C
  C89      1.0000 0.86099  0.33310  0.32989  Biso   1.000  C
  H52      1.0000 0.80201  0.30105  0.41102  Biso   1.000  H
  C90      1.0000 0.93519  0.32222  0.45852  Biso   1.000  C
  C91      1.0000 0.93519  0.32227  0.45847  Biso   1.000  C
  C92      1.0000 0.26270  0.15858  0.57219  Biso   1.000  C
  H53      1.0000 0.12297  0.08208  0.55001  Biso   1.000  H
  C93      1.0000 0.26268  0.15852  0.57219  Biso   1.000  C
  H54      1.0000 0.12301  0.08202  0.55001  Biso   1.000  H
  C94      1.0000 0.33787  0.17182  0.48688  Biso   1.000  C
  H55      1.0000 0.25699  0.10502  0.39900  Biso   1.000  H
  H56      1.0000 0.25693  0.10502  0.39900  Biso   1.000  H
  C95      1.0000 0.34007  0.19107  0.54939  Biso   1.000  C
  C96      1.0000 0.34011  0.19101  0.54939  Biso   1.000  C
  O12      1.0000 0.95344  0.42840  0.10459  Biso   1.000  O
  O13      1.0000 0.95338  0.42840  0.10459  Biso   1.000  O
  C97      1.0000 0.89988  0.25177  0.98318  Biso   1.000  C
  C98      1.0000 0.89986  0.25172  0.98318  Biso   1.000  C
  C99      1.0000 0.98666  0.38786  0.98769  Biso   1.000  C
  C100     1.0000 0.93758  0.40260  0.25370  Biso   1.000  C
  C101     1.0000 0.93764  0.40260  0.25370  Biso   1.000  C
  H57      1.0000 0.02501  0.49104  0.21997  Biso   1.000  H
  C102     1.0000 0.11638  0.48121  0.29079  Biso   1.000  C
  H58      1.0000 0.02503  0.49104  0.22002  Biso   1.000  H
  C103     1.0000 0.52181  0.35953  0.36081  Biso   1.000  C
  H59      1.0000 0.44696  0.28903  0.27398  Biso   1.000  H
  C104     1.0000 0.45980  0.45332  0.39021  Biso   1.000  C
  H60      1.0000 0.33703  0.45505  0.32599  Biso   1.000  H
  H61      1.0000 0.33701  0.45500  0.32599  Biso   1.000  H
  H62      1.0000 0.33697  0.45505  0.32599  Biso   1.000  H
  C105     1.0000 0.22582  0.63153  0.76382  Biso   1.000  C
  C106     1.0000 0.22576  0.63153  0.76382  Biso   1.000  C
  C107     1.0000 0.64820  0.22219  0.29801  Biso   1.000  C
  C108     1.0000 0.64816  0.22225  0.29801  Biso   1.000  C
  C109     1.0000 0.50273  0.93538  0.34561  Biso   1.000  C
  H63      1.0000 0.64009  0.98209  0.40299  Biso   1.000  H
  C110     1.0000 0.47708  0.98068  0.24139  Biso   1.000  C
  H64      1.0000 0.59496  0.06200  0.21897  Biso   1.000  H
  H65      1.0000 0.59498  0.06201  0.21902  Biso   1.000  H
  C111     1.0000 0.77766  0.33361  0.29279  Biso   1.000  C
  C112     1.0000 0.94088  0.36763  0.31041  Biso   1.000  C
  C113     1.0000 0.94095  0.36763  0.31041  Biso   1.000  C
  H66      1.0000 0.99599  0.31603  0.45102  Biso   1.000  H
  H67      1.0000 0.92003  0.29404  0.49999  Biso   1.000  H
  C114     1.0000 0.95120  0.40113  0.45809  Biso   1.000  C
  H68      1.0000 0.91996  0.29404  0.49999  Biso   1.000  H
  H69      1.0000 0.26402  0.17309  0.62102  Biso   1.000  H
  H70      1.0000 0.39798  0.19707  0.46897  Biso   1.000  H
  H71      1.0000 0.39797  0.19701  0.46902  Biso   1.000  H
  H72      1.0000 0.40198  0.23107  0.57998  Biso   1.000  H
  C115     1.0000 0.86555  0.41002  0.11100  Biso   1.000  C
  C116     1.0000 0.86553  0.40996  0.11100  Biso   1.000  C
  C117     1.0000 0.86549  0.41002  0.11100  Biso   1.000  C
  C118     1.0000 0.86226  0.25122  0.91867  Biso   1.000  C
  C119     1.0000 0.86234  0.25123  0.91872  Biso   1.000  C
  C120     1.0000 0.86228  0.25128  0.91867  Biso   1.000  C
  C121     1.0000 0.86227  0.25123  0.91872  Biso   1.000  C
  H73      1.0000 0.88098  0.19898  0.00702  Biso   1.000  H
  C122     1.0000 0.94911  0.38725  0.92309  Biso   1.000  C
  H74      1.0000 0.03504  0.44101  0.01401  Biso   1.000  H
  H75      1.0000 0.03498  0.44101  0.01401  Biso   1.000  H
  C123     1.0000 0.85419  0.40312  0.21660  Biso   1.000  C
  C124     1.0000 0.11181  0.53671  0.32020  Biso   1.000  C
  H76      1.0000 0.17099  0.50401  0.26799  Biso   1.000  H
  H77      1.0000 0.12999  0.43905  0.32101  Biso   1.000  H
  H78      1.0000 0.57302  0.33303  0.37102  Biso   1.000  H
  C125     1.0000 0.52647  0.41884  0.40280  Biso   1.000  C
  H79      1.0000 0.57294  0.33302  0.37098  Biso   1.000  H
  H80      1.0000 0.46302  0.49905  0.42299  Biso   1.000  H
  C126     1.0000 0.22236  0.66652  0.70720  Biso   1.000  C
  C127     1.0000 0.14583  0.59701  0.78339  Biso   1.000  C
  O14      1.0000 0.69482  0.30429  0.31241  Biso   1.000  O
  O15      1.0000 0.69478  0.30435  0.31241  Biso   1.000  O
  H81      1.0000 0.66398  0.20104  0.25797  Biso   1.000  H
  H82      1.0000 0.57599  0.21099  0.28799  Biso   1.000  H
  H83      1.0000 0.57595  0.21104  0.28799  Biso   1.000  H
  H84      1.0000 0.66400  0.20104  0.25802  Biso   1.000  H
  C128     1.0000 0.44392  0.93497  0.28709  Biso   1.000  C
  H85      1.0000 0.47708  0.90007  0.38100  Biso   1.000  H
  H86      1.0000 0.43209  0.98005  0.19598  Biso   1.000  H
  C129     1.0000 0.77428  0.36860  0.23622  Biso   1.000  C
  C130     1.0000 0.77434  0.36860  0.23622  Biso   1.000  C
  H87      1.0000 0.00499  0.36704  0.33901  Biso   1.000  H
  H88      1.0000 0.96103  0.42601  0.41501  Biso   1.000  H
  H89      1.0000 0.89003  0.40505  0.46698  Biso   1.000  H
  H90      1.0000 0.89005  0.40506  0.46702  Biso   1.000  H
  H91      1.0000 0.88997  0.40505  0.46698  Biso   1.000  H
  H92      1.0000 0.96096  0.42601  0.41501  Biso   1.000  H
  H93      1.0000 0.88999  0.40506  0.46702  Biso   1.000  H
  C131     1.0000 0.01619  0.43282  0.51110  Biso   1.000  C
  O16      1.0000 0.85509  0.44101  0.16387  Biso   1.000  O
  O17      1.0000 0.85511  0.44101  0.16392  Biso   1.000  O
  H94      1.0000 0.83403  0.34798  0.10701  Biso   1.000  H
  H95      1.0000 0.83098  0.43196  0.07101  Biso   1.000  H
  H96      1.0000 0.83396  0.34798  0.10701  Biso   1.000  H
  H97      1.0000 0.81397  0.19815  0.89198  Biso   1.000  H
  H98      1.0000 0.81399  0.19816  0.89202  Biso   1.000  H
  C132     1.0000 0.88686  0.31896  0.88860  Biso   1.000  C
  H99      1.0000 0.96799  0.44018  0.90000  Biso   1.000  H
  H100     1.0000 0.96797  0.44012  0.90000  Biso   1.000  H
  H101     1.0000 0.06003  0.51003  0.34599  Biso   1.000  H
  H102     1.0000 0.08900  0.57399  0.28799  Biso   1.000  H
  H103     1.0000 0.05997  0.51003  0.34599  Biso   1.000  H
  C133     1.0000 0.19929  0.59683  0.37620  Biso   1.000  C
  H104     1.0000 0.58200  0.43803  0.44498  Biso   1.000  H
  C134     1.0000 0.13908  0.66697  0.67010  Biso   1.000  C
  C135     1.0000 0.13904  0.66703  0.67010  Biso   1.000  C
  O18      1.0000 0.30530  0.69578  0.68758  Biso   1.000  O
  O19      1.0000 0.30526  0.69584  0.68758  Biso   1.000  O
  C136     1.0000 0.06249  0.59747  0.74629  Biso   1.000  C
  C137     1.0000 0.06245  0.59753  0.74629  Biso   1.000  C
  O20      1.0000 0.14499  0.55912  0.83611  Biso   1.000  O
  O21      1.0000 0.14493  0.55912  0.83611  Biso   1.000  O
  O22      1.0000 0.34538  0.89813  0.24800  Biso   1.000  O
  C138     1.0000 0.33238  0.88987  0.29231  Biso   1.000  C
  C139     1.0000 0.68814  0.36880  0.19361  Biso   1.000  C
  C140     1.0000 0.02991  0.41436  0.57371  Biso   1.000  C
  C141     1.0000 0.08735  0.48627  0.49111  Biso   1.000  C
  C142     1.0000 0.08729  0.48627  0.49111  Biso   1.000  C
  C143     1.0000 0.06700  0.41288  0.55561  Biso   1.000  C
  O23      1.0000 0.85594  0.33096  0.82448  Biso   1.000  O
  O24      1.0000 0.85593  0.33091  0.82452  Biso   1.000  O
  O25      1.0000 0.85587  0.33096  0.82448  Biso   1.000  O
  O26      1.0000 0.85587  0.33091  0.82452  Biso   1.000  O
  C144     1.0000 0.26581  0.57817  0.35511  Biso   1.000  C
  C145     1.0000 0.22469  0.64912  0.42931  Biso   1.000  C
  C146     1.0000 0.26579  0.57812  0.35511  Biso   1.000  C
  C147     1.0000 0.28060  0.58232  0.43601  Biso   1.000  C
  C148     1.0000 0.14356  0.70708  0.60659  Biso   1.000  C
  C149     1.0000 0.05920  0.63250  0.68957  Biso   1.000  C
  C150     1.0000 0.05922  0.63251  0.68962  Biso   1.000  C
  C151     1.0000 0.05914  0.63250  0.68957  Biso   1.000  C
  C152     1.0000 0.05915  0.63251  0.68962  Biso   1.000  C
  C153     1.0000 0.35188  0.77789  0.70202  Biso   1.000  C
  C154     1.0000 0.35188  0.77794  0.70197  Biso   1.000  C
  C155     1.0000 0.97373  0.56198  0.76068  Biso   1.000  C
  C156     1.0000 0.13454  0.59011  0.88898  Biso   1.000  C
  H105     1.0000 0.36213  0.94008  0.32599  Biso   1.000  H
  H106     1.0000 0.34310  0.84105  0.31502  Biso   1.000  H
  H107     1.0000 0.36207  0.94008  0.32599  Biso   1.000  H
  H108     1.0000 0.34310  0.84110  0.31497  Biso   1.000  H
  C157     1.0000 0.66304  0.33529  0.13148  Biso   1.000  C
  C158     1.0000 0.66306  0.33529  0.13152  Biso   1.000  C
  C159     1.0000 0.63562  0.40682  0.21308  Biso   1.000  C
  C160     1.0000 0.63556  0.40682  0.21308  Biso   1.000  C
  H109     1.0000 0.97701  0.37007  0.59100  Biso   1.000  H
  C161     1.0000 0.99851  0.34296  0.55751  Biso   1.000  C
  C162     1.0000 0.11460  0.44936  0.61641  Biso   1.000  C
  C163     1.0000 0.12604  0.45439  0.61181  Biso   1.000  C
  C164     1.0000 0.17204  0.52127  0.53381  Biso   1.000  C
  H110     1.0000 0.06805  0.48307  0.43501  Biso   1.000  H
  H111     1.0000 0.06803  0.48301  0.43501  Biso   1.000  H
  H112     1.0000 0.06799  0.48307  0.43501  Biso   1.000  H
  C165     1.0000 0.79679  0.26183  0.78291  Biso   1.000  C
  C166     1.0000 0.31645  0.68282  0.46132  Biso   1.000  C
  C167     1.0000 0.31641  0.68288  0.46132  Biso   1.000  C
  H113     1.0000 0.22804  0.63707  0.47002  Biso   1.000  H
  C168     1.0000 0.35772  0.61181  0.38708  Biso   1.000  C
  C169     1.0000 0.35774  0.61187  0.38708  Biso   1.000  C
  C170     1.0000 0.38602  0.60977  0.44427  Biso   1.000  C
  C171     1.0000 0.06485  0.67792  0.54151  Biso   1.000  C
  C172     1.0000 0.06483  0.67786  0.54151  Biso   1.000  C
  C173     1.0000 0.16277  0.79340  0.62578  Biso   1.000  C
  H114     1.0000 0.19809  0.69908  0.58901  Biso   1.000  H
  H115     1.0000 0.99503  0.63309  0.66098  Biso   1.000  H
  O27      1.0000 0.32606  0.81860  0.64820  Biso   1.000  O
  H116     1.0000 0.33610  0.79909  0.74201  Biso   1.000  H
  H117     1.0000 0.42407  0.78909  0.71199  Biso   1.000  H
  H118     1.0000 0.33606  0.79915  0.74201  Biso   1.000  H
  H119     1.0000 0.42409  0.78914  0.71199  Biso   1.000  H
  H120     1.0000 0.33604  0.79909  0.74201  Biso   1.000  H
  H121     1.0000 0.97507  0.50909  0.78002  Biso   1.000  H
  C174     1.0000 0.88364  0.51892  0.70919  Biso   1.000  C
  C175     1.0000 0.96626  0.61840  0.80942  Biso   1.000  C
  C176     1.0000 0.88370  0.51892  0.70919  Biso   1.000  C
  H122     1.0000 0.97503  0.50915  0.78002  Biso   1.000  H
  H123     1.0000 0.16606  0.65215  0.89297  Biso   1.000  H
  O28      1.0000 0.04670  0.57173  0.89540  Biso   1.000  O
  H124     1.0000 0.16607  0.65215  0.89302  Biso   1.000  H
  H125     1.0000 0.16902  0.56811  0.92898  Biso   1.000  H
  C177     1.0000 0.58561  0.33983  0.08901  Biso   1.000  C
  C178     1.0000 0.58559  0.33977  0.08901  Biso   1.000  C
  H126     1.0000 0.70399  0.30601  0.11599  Biso   1.000  H
  C179     1.0000 0.55810  0.41130  0.17062  Biso   1.000  C
  H127     1.0000 0.65499  0.43299  0.26101  Biso   1.000  H
  C180     1.0000 0.98893  0.31454  0.61561  Biso   1.000  C
  C181     1.0000 0.18562  0.50275  0.59642  Biso   1.000  C
  H128     1.0000 0.13400  0.42707  0.65898  Biso   1.000  H
  H129     1.0000 0.13401  0.42707  0.65902  Biso   1.000  H
  C182     1.0000 0.11653  0.42597  0.66990  Biso   1.000  C
  H130     1.0000 0.22498  0.54006  0.50398  Biso   1.000  H
  H131     1.0000 0.74902  0.22815  0.80899  Biso   1.000  H
  H132     1.0000 0.75896  0.27710  0.73997  Biso   1.000  H
  H133     1.0000 0.75898  0.27711  0.74002  Biso   1.000  H
  H134     1.0000 0.74896  0.22815  0.80899  Biso   1.000  H
  H135     1.0000 0.75899  0.27716  0.73997  Biso   1.000  H
  C183     1.0000 0.84977  0.20862  0.76852  Biso   1.000  C
  C184     1.0000 0.38293  0.66428  0.44019  Biso   1.000  C
  C185     1.0000 0.43317  0.67566  0.38499  Biso   1.000  C
  C186     1.0000 0.04888  0.59900  0.54189  Biso   1.000  C
  H136     1.0000 0.00409  0.68405  0.54902  Biso   1.000  H
  H137     1.0000 0.08012  0.70609  0.50000  Biso   1.000  H
  H138     1.0000 0.00405  0.68411  0.54902  Biso   1.000  H
  C187     1.0000 0.25341  0.84230  0.64711  Biso   1.000  C
  C188     1.0000 0.09220  0.82220  0.62331  Biso   1.000  C
  C189     1.0000 0.25335  0.84230  0.64711  Biso   1.000  C
  C190     1.0000 0.09214  0.82220  0.62331  Biso   1.000  C
  C191     1.0000 0.92169  0.66828  0.78320  Biso   1.000  C
  C192     1.0000 0.92165  0.66834  0.78320  Biso   1.000  C
  C193     1.0000 0.00597  0.62656  0.87440  Biso   1.000  C
  H139     1.0000 0.87003  0.56108  0.67898  Biso   1.000  H
  H140     1.0000 0.82910  0.49612  0.73199  Biso   1.000  H
  H141     1.0000 0.87009  0.56108  0.67898  Biso   1.000  H
  C194     1.0000 0.88821  0.46342  0.67979  Biso   1.000  C
  C195     1.0000 0.53311  0.37791  0.10849  Biso   1.000  C
  H142     1.0000 0.56603  0.31399  0.04099  Biso   1.000  H
  H143     1.0000 0.56597  0.31399  0.04099  Biso   1.000  H
  H144     1.0000 0.51699  0.44103  0.18601  Biso   1.000  H
  C196     1.0000 0.04790  0.35609  0.67171  Biso   1.000  C
  H145     1.0000 0.25796  0.51206  0.61599  Biso   1.000  H
  C197     1.0000 0.79779  0.13720  0.73441  Biso   1.000  C
  C198     1.0000 0.94490  0.23329  0.78249  Biso   1.000  C
  C199     1.0000 0.94486  0.23335  0.78249  Biso   1.000  C
  H146     1.0000 0.48901  0.67104  0.43401  Biso   1.000  H
  H147     1.0000 0.11005  0.59508  0.53301  Biso   1.000  H
  C200     1.0000 0.98387  0.56725  0.48888  Biso   1.000  C
  C201     1.0000 0.98383  0.56731  0.48888  Biso   1.000  C
  C202     1.0000 0.98381  0.56725  0.48888  Biso   1.000  C
  H148     1.0000 0.03906  0.57412  0.58498  Biso   1.000  H
  H149     1.0000 0.03905  0.57406  0.58502  Biso   1.000  H
  C203     1.0000 0.27338  0.92003  0.66578  Biso   1.000  C
  C204     1.0000 0.27337  0.91998  0.66582  Biso   1.000  C
  H150     1.0000 0.02210  0.78406  0.60702  Biso   1.000  H
  C205     1.0000 0.11217  0.89993  0.64198  Biso   1.000  C
  C206     1.0000 0.11215  0.89987  0.64198  Biso   1.000  C
  H151     1.0000 0.02206  0.78412  0.60702  Biso   1.000  H
  C207     1.0000 0.91671  0.72641  0.82182  Biso   1.000  C
  H152     1.0000 0.89108  0.66210  0.73299  Biso   1.000  H
  C208     1.0000 0.91664  0.72641  0.82182  Biso   1.000  C
  C209     1.0000 0.00094  0.68463  0.91297  Biso   1.000  C
  C210     1.0000 0.00096  0.68464  0.91302  Biso   1.000  C
  H153     1.0000 0.91106  0.42608  0.71199  Biso   1.000  H
  H154     1.0000 0.94005  0.49010  0.65399  Biso   1.000  H
  C211     1.0000 0.80079  0.40330  0.62378  Biso   1.000  C
  H155     1.0000 0.91100  0.42608  0.71199  Biso   1.000  H
  O29      1.0000 0.45672  0.39012  0.07547  Biso   1.000  O
  O30      1.0000 0.45671  0.39007  0.07552  Biso   1.000  O
  C212     1.0000 0.98798  0.18673  0.76249  Biso   1.000  C
  H156     1.0000 0.98500  0.28813  0.80899  Biso   1.000  H
  C213     1.0000 0.84091  0.09063  0.71432  Biso   1.000  C
  C214     1.0000 0.91273  0.51386  0.50888  Biso   1.000  C
  C215     1.0000 0.97019  0.58577  0.42632  Biso   1.000  C
  C216     1.0000 0.93304  0.58725  0.44442  Biso   1.000  C
  C217     1.0000 0.37231  0.97313  0.68748  Biso   1.000  C
  C218     1.0000 0.20277  0.94871  0.66331  Biso   1.000  C
  C219     1.0000 0.04207  0.93349  0.65029  Biso   1.000  C
  C220     1.0000 0.86707  0.78694  0.80381  Biso   1.000  C
  C221     1.0000 0.86711  0.78689  0.80381  Biso   1.000  C
  C222     1.0000 0.95633  0.73451  0.88680  Biso   1.000  C
  C223     1.0000 0.03794  0.68024  0.98227  Biso   1.000  C
  C224     1.0000 0.03796  0.68024  0.98232  Biso   1.000  C
  C225     1.0000 0.77531  0.35095  0.57068  Biso   1.000  C
  C226     1.0000 0.73429  0.42196  0.64492  Biso   1.000  C
  C227     1.0000 0.77533  0.35101  0.57068  Biso   1.000  C
  C228     1.0000 0.73425  0.42202  0.64492  Biso   1.000  C
  C229     1.0000 0.71942  0.41781  0.56398  Biso   1.000  C
  C230     1.0000 0.43243  0.36690  0.01149  Biso   1.000  C
  C231     1.0000 0.43237  0.36690  0.01149  Biso   1.000  C
  C232     1.0000 0.93601  0.11542  0.72829  Biso   1.000  C
  C233     1.0000 0.93595  0.11542  0.72829  Biso   1.000  C
  H157     1.0000 0.06200  0.20612  0.77299  Biso   1.000  H
  H158     1.0000 0.80097  0.03513  0.68801  Biso   1.000  H
  C234     1.0000 0.88549  0.55077  0.38357  Biso   1.000  C
  C235     1.0000 0.88551  0.55078  0.38362  Biso   1.000  C
  C236     1.0000 0.88543  0.55077  0.38357  Biso   1.000  C
  C237     1.0000 0.88544  0.55078  0.38362  Biso   1.000  C
  C238     1.0000 0.87404  0.54574  0.38818  Biso   1.000  C
  H159     1.0000 0.02307  0.63006  0.40898  Biso   1.000  H
  H160     1.0000 0.02301  0.63006  0.40898  Biso   1.000  H
  C239     1.0000 0.00159  0.65718  0.44252  Biso   1.000  C
  H161     1.0000 0.93203  0.51706  0.56498  Biso   1.000  H
  C240     1.0000 0.82807  0.47887  0.46622  Biso   1.000  C
  H162     1.0000 0.93206  0.51712  0.56498  Biso   1.000  H
  C241     1.0000 0.43110  0.97341  0.74591  Biso   1.000  C
  C242     1.0000 0.40535  0.01883  0.64179  Biso   1.000  C
  C243     1.0000 0.40532  0.01878  0.64179  Biso   1.000  C
  O31      1.0000 0.22351  0.02441  0.68079  Biso   1.000  O
  O32      1.0000 0.22345  0.02441  0.68079  Biso   1.000  O
  C244     1.0000 0.02068  0.92890  0.71161  Biso   1.000  C
  H163     1.0000 0.06409  0.99609  0.65100  Biso   1.000  H
  C245     1.0000 0.95927  0.89770  0.58840  Biso   1.000  C
  C246     1.0000 0.93517  0.85620  0.78230  Biso   1.000  C
  C247     1.0000 0.93519  0.85626  0.78230  Biso   1.000  C
  H164     1.0000 0.84213  0.80414  0.84101  Biso   1.000  H
  C248     1.0000 0.78446  0.74882  0.74790  Biso   1.000  C
  H165     1.0000 0.84206  0.80414  0.84101  Biso   1.000  H
  O33      1.0000 0.95671  0.78773  0.93411  Biso   1.000  O
  O34      1.0000 0.95665  0.78773  0.93411  Biso   1.000  O
  C249     1.0000 0.01338  0.61232  0.01230  Biso   1.000  C
  C250     1.0000 0.10016  0.74841  0.01681  Biso   1.000  C
  C251     1.0000 0.68365  0.31731  0.53871  Biso   1.000  C
  H166     1.0000 0.77206  0.36307  0.53002  Biso   1.000  H
  C252     1.0000 0.64237  0.38832  0.61291  Biso   1.000  C
  C253     1.0000 0.64235  0.38826  0.61291  Biso   1.000  C
  C254     1.0000 0.61406  0.39036  0.55572  Biso   1.000  C
  C255     1.0000 0.34325  0.37327  0.97458  Biso   1.000  C
  H167     1.0000 0.48601  0.39816  0.98897  Biso   1.000  H
  H168     1.0000 0.48603  0.39816  0.98902  Biso   1.000  H
  H169     1.0000 0.42201  0.30596  0.00797  Biso   1.000  H
  H170     1.0000 0.42202  0.30596  0.00802  Biso   1.000  H
  H171     1.0000 0.42197  0.30602  0.00797  Biso   1.000  H
  H172     1.0000 0.42196  0.30596  0.00802  Biso   1.000  H
  H173     1.0000 0.96895  0.07912  0.71299  Biso   1.000  H
  H174     1.0000 0.86609  0.57306  0.34101  Biso   1.000  H
  C256     1.0000 0.81446  0.49733  0.40362  Biso   1.000  C
  C257     1.0000 0.81441  0.49738  0.40357  Biso   1.000  C
  H175     1.0000 0.86602  0.57306  0.34101  Biso   1.000  H
  C258     1.0000 0.81448  0.49739  0.40362  Biso   1.000  C
  C259     1.0000 0.88355  0.57416  0.33009  Biso   1.000  C
  C260     1.0000 0.01115  0.68559  0.38438  Biso   1.000  C
  H176     1.0000 0.77504  0.46007  0.49601  Biso   1.000  H
  H177     1.0000 0.40506  0.93813  0.78101  Biso   1.000  H
  C261     1.0000 0.52296  0.01951  0.75859  Biso   1.000  C
  H178     1.0000 0.35996  0.01810  0.59699  Biso   1.000  H
  C262     1.0000 0.49740  0.06481  0.65442  Biso   1.000  C
  C263     1.0000 0.22005  0.04754  0.74239  Biso   1.000  C
  C264     1.0000 0.07228  0.98641  0.76078  Biso   1.000  C
  C265     1.0000 0.95220  0.86383  0.72240  Biso   1.000  C
  H179     1.0000 0.98507  0.90311  0.54598  Biso   1.000  H
  C266     1.0000 0.89462  0.94660  0.58412  Biso   1.000  C
  C267     1.0000 0.89454  0.94659  0.58407  Biso   1.000  C
  H180     1.0000 0.92504  0.83708  0.59300  Biso   1.000  H
  C268     1.0000 0.98679  0.91371  0.83151  Biso   1.000  C
  H181     1.0000 0.80309  0.72912  0.70800  Biso   1.000  H
  H182     1.0000 0.75407  0.79209  0.73399  Biso   1.000  H
  C269     1.0000 0.70510  0.67961  0.76672  Biso   1.000  C
  H183     1.0000 0.75409  0.79215  0.73399  Biso   1.000  H
  C270     1.0000 0.70504  0.67961  0.76672  Biso   1.000  C
  C271     1.0000 0.01622  0.86807  0.93411  Biso   1.000  C
  C272     1.0000 0.01620  0.86801  0.93411  Biso   1.000  C
  C273     1.0000 0.01616  0.86807  0.93411  Biso   1.000  C
  H184     1.0000 0.11905  0.80115  0.99301  Biso   1.000  H
  C274     1.0000 0.13783  0.74891  0.08131  Biso   1.000  C
  C275     1.0000 0.13779  0.74897  0.08131  Biso   1.000  C
  H185     1.0000 0.96504  0.55912  0.98598  Biso   1.000  H
  C276     1.0000 0.05100  0.61294  0.07690  Biso   1.000  C
  C277     1.0000 0.61709  0.33585  0.55980  Biso   1.000  C
  C278     1.0000 0.56691  0.32447  0.61500  Biso   1.000  C
  C279     1.0000 0.25958  0.33124  0.98679  Biso   1.000  C
  C280     1.0000 0.34861  0.43135  0.93340  Biso   1.000  C
  H186     1.0000 0.74206  0.48807  0.38400  Biso   1.000  H
  C281     1.0000 0.95212  0.64404  0.32828  Biso   1.000  C
  C282     1.0000 0.55619  0.06521  0.71290  Biso   1.000  C
  H187     1.0000 0.56795  0.02014  0.80400  Biso   1.000  H
  H188     1.0000 0.52296  0.10012  0.61899  Biso   1.000  H
  H189     1.0000 0.52303  0.10012  0.61899  Biso   1.000  H
  O35      1.0000 0.14107  0.04893  0.74819  Biso   1.000  O
  H190     1.0000 0.24199  0.00915  0.77498  Biso   1.000  H
  H191     1.0000 0.26797  0.10614  0.75598  Biso   1.000  H
  H192     1.0000 0.24197  0.00909  0.77498  Biso   1.000  H
  C283     1.0000 0.05531  0.97891  0.82072  Biso   1.000  C
  C284     1.0000 0.05526  0.97896  0.82068  Biso   1.000  C
  H193     1.0000 0.91207  0.81910  0.68402  Biso   1.000  H
  H194     1.0000 0.87509  0.94412  0.62801  Biso   1.000  H
  C285     1.0000 0.81917  0.91240  0.52987  Biso   1.000  C
  C286     1.0000 0.81919  0.91241  0.52992  Biso   1.000  C
  H195     1.0000 0.92898  0.00608  0.57700  Biso   1.000  H
  O36      1.0000 0.97505  0.90735  0.89141  Biso   1.000  O
  H196     1.0000 0.67908  0.70110  0.80201  Biso   1.000  H
  C287     1.0000 0.61626  0.63090  0.70639  Biso   1.000  C
  H197     1.0000 0.67910  0.70116  0.80201  Biso   1.000  H
  H198     1.0000 0.73903  0.64009  0.78700  Biso   1.000  H
  H199     1.0000 0.07707  0.86714  0.92100  Biso   1.000  H
  H200     1.0000 0.03506  0.89712  0.98099  Biso   1.000  H
  C288     1.0000 0.11318  0.68123  0.11138  Biso   1.000  C
  H201     1.0000 0.18607  0.80203  0.10801  Biso   1.000  H
  H202     1.0000 0.03205  0.56001  0.09998  Biso   1.000  H
  H203     1.0000 0.03208  0.56007  0.09998  Biso   1.000  H
  H204     1.0000 0.51103  0.32910  0.56602  Biso   1.000  H
  C289     1.0000 0.24519  0.27026  0.03310  Biso   1.000  C
  C290     1.0000 0.24521  0.27032  0.03310  Biso   1.000  C
  C291     1.0000 0.18142  0.34743  0.95791  Biso   1.000  C
  C292     1.0000 0.18138  0.34749  0.95791  Biso   1.000  C
  C293     1.0000 0.18135  0.34743  0.95791  Biso   1.000  C
  C294     1.0000 0.27043  0.44765  0.90452  Biso   1.000  C
  H205     1.0000 0.41303  0.46417  0.92399  Biso   1.000  H
  O37      1.0000 0.65470  0.10200  0.75199  Biso   1.000  O
  C295     1.0000 0.66768  0.11032  0.70772  Biso   1.000  C
  O38      1.0000 0.65464  0.10200  0.75199  Biso   1.000  O
  C296     1.0000 0.11397  0.04092  0.87150  Biso   1.000  C
  C297     1.0000 0.81699  0.89316  0.46741  Biso   1.000  C
  C298     1.0000 0.74180  0.87986  0.55272  Biso   1.000  C
  C299     1.0000 0.81701  0.89322  0.46741  Biso   1.000  C
  C300     1.0000 0.74174  0.87991  0.55268  Biso   1.000  C
  C301     1.0000 0.74182  0.87992  0.55272  Biso   1.000  C
  C302     1.0000 0.73746  0.90366  0.46850  Biso   1.000  C
  C303     1.0000 0.61155  0.57159  0.66440  Biso   1.000  C
  C304     1.0000 0.54967  0.66544  0.69380  Biso   1.000  C
  O39      1.0000 0.14419  0.66928  0.17551  Biso   1.000  O
  O40      1.0000 0.28060  0.21016  0.01790  Biso   1.000  O
  O41      1.0000 0.28056  0.21022  0.01790  Biso   1.000  O
  H206     1.0000 0.28398  0.29701  0.07998  Biso   1.000  H
  H207     1.0000 0.17400  0.24702  0.03201  Biso   1.000  H
  H208     1.0000 0.28402  0.29696  0.07998  Biso   1.000  H
  H209     1.0000 0.17397  0.24696  0.03201  Biso   1.000  H
  C305     1.0000 0.18681  0.40563  0.91668  Biso   1.000  C
  H210     1.0000 0.11698  0.31516  0.96698  Biso   1.000  H
  C306     1.0000 0.18683  0.40563  0.91672  Biso   1.000  C
  H211     1.0000 0.11704  0.31516  0.96698  Biso   1.000  H
  C307     1.0000 0.18677  0.40568  0.91668  Biso   1.000  C
  H212     1.0000 0.27501  0.49216  0.87297  Biso   1.000  H
  H213     1.0000 0.27503  0.49216  0.87302  Biso   1.000  H
  H214     1.0000 0.63797  0.06011  0.67399  Biso   1.000  H
  H215     1.0000 0.65703  0.15914  0.68501  Biso   1.000  H
  H216     1.0000 0.65701  0.15909  0.68501  Biso   1.000  H
  H217     1.0000 0.65696  0.15914  0.68501  Biso   1.000  H
  C308     1.0000 0.07488  0.08872  0.89487  Biso   1.000  C
  C309     1.0000 0.20621  0.05193  0.89601  Biso   1.000  C
  C310     1.0000 0.07489  0.08873  0.89492  Biso   1.000  C
  C311     1.0000 0.20614  0.05193  0.89601  Biso   1.000  C
  H218     1.0000 0.87711  0.91805  0.44998  Biso   1.000  H
  C312     1.0000 0.73740  0.84161  0.42779  Biso   1.000  C
  H219     1.0000 0.87707  0.91811  0.44998  Biso   1.000  H
  H220     1.0000 0.87705  0.91805  0.44998  Biso   1.000  H
  H221     1.0000 0.74309  0.89511  0.60098  Biso   1.000  H
  C313     1.0000 0.66219  0.82825  0.51311  Biso   1.000  C
  C314     1.0000 0.66215  0.82831  0.51311  Biso   1.000  C
  C315     1.0000 0.65995  0.80906  0.45060  Biso   1.000  C
  C316     1.0000 0.47827  0.64060  0.63917  Biso   1.000  C
  H222     1.0000 0.55306  0.71110  0.72601  Biso   1.000  H
  C317     1.0000 0.47829  0.64061  0.63922  Biso   1.000  C
  H223     1.0000 0.66307  0.54513  0.67399  Biso   1.000  H
  C318     1.0000 0.54024  0.54681  0.60982  Biso   1.000  C
  C319     1.0000 0.20326  0.73835  0.21707  Biso   1.000  C
  C320     1.0000 0.20327  0.73836  0.21712  Biso   1.000  C
  C321     1.0000 0.22023  0.15854  0.96722  Biso   1.000  C
  C322     1.0000 0.22016  0.15854  0.96722  Biso   1.000  C
  H224     1.0000 0.12600  0.41817  0.89397  Biso   1.000  H
  H225     1.0000 0.12601  0.41818  0.89402  Biso   1.000  H
  H226     1.0000 0.00297  0.08012  0.87602  Biso   1.000  H
  C323     1.0000 0.12802  0.14758  0.94271  Biso   1.000  C
  C324     1.0000 0.25926  0.11086  0.94389  Biso   1.000  C
  H227     1.0000 0.23598  0.01517  0.87801  Biso   1.000  H
  H228     1.0000 0.73611  0.82711  0.37901  Biso   1.000  H
  H229     1.0000 0.60211  0.80306  0.53101  Biso   1.000  H
  H230     1.0000 0.60205  0.80306  0.53101  Biso   1.000  H
  H231     1.0000 0.59804  0.76906  0.42000  Biso   1.000  H
  C325     1.0000 0.47355  0.58129  0.59718  Biso   1.000  C
  H232     1.0000 0.42708  0.66711  0.62901  Biso   1.000  H
  H233     1.0000 0.53707  0.50108  0.57700  Biso   1.000  H
  C326     1.0000 0.15029  0.79157  0.23151  Biso   1.000  C
  H234     1.0000 0.25109  0.77204  0.19099  Biso   1.000  H
  H235     1.0000 0.24114  0.72309  0.26001  Biso   1.000  H
  H236     1.0000 0.24112  0.72303  0.26001  Biso   1.000  H
  H237     1.0000 0.24108  0.72309  0.26001  Biso   1.000  H
  H238     1.0000 0.09795  0.18415  0.96099  Biso   1.000  H
  H239     1.0000 0.33093  0.11914  0.96299  Biso   1.000  H
  H240     1.0000 0.41802  0.56210  0.55500  Biso   1.000  H
  C327     1.0000 0.05521  0.76689  0.21750  Biso   1.000  C
  C328     1.0000 0.20233  0.86299  0.26562  Biso   1.000  C
  C329     1.0000 0.01213  0.81345  0.23750  Biso   1.000  C
  H241     1.0000 0.01510  0.71206  0.19099  Biso   1.000  H
  C330     1.0000 0.01206  0.81345  0.23750  Biso   1.000  C
  C331     1.0000 0.15922  0.90956  0.28571  Biso   1.000  C
  H242     1.0000 0.93811  0.79407  0.22700  Biso   1.000  H
  C332     1.0000 0.06415  0.88477  0.27170  Biso   1.000  C
  H243     1.0000 0.19907  0.96506  0.31198  Biso   1.000  H
  H244     1.0000 0.03109  0.92106  0.28699  Biso   1.000  H
  Ne1      1.0000 0.49687  0.00564  0.98594  Biso   1.000  Ne
  He1      1.0000 0.47267  0.80263  0.10930  Biso   1.000  He
  He2      1.0000 0.50248  0.11260  0.08028  Biso   1.000  He
  He3      1.0000 0.59339  0.11947  0.97637  Biso   1.000  He
  He4      1.0000 0.53731  0.87839  0.89628  Biso   1.000  He
  Ar1      1.0000 0.50270  0.00165  0.98675  Biso   1.000  Ar
