data_image0
_cell_length_a       14.921
_cell_length_b       15.154
_cell_length_c       17.194
_cell_angle_alpha    99.7
_cell_angle_beta     96.33
_cell_angle_gamma    95.04

_symmetry_space_group_name_H-M    "P 1"
_symmetry_int_tables_number       1

loop_
  _symmetry_equiv_pos_as_xyz
  'x, y, z'

loop_
  _atom_site_label
  _atom_site_occupancy
  _atom_site_fract_x
  _atom_site_fract_y
  _atom_site_fract_z
  _atom_site_thermal_displace_type
  _atom_site_B_iso_or_equiv
  _atom_site_type_symbol
  O1       1.0000 0.17720  0.26049  0.15681  Biso   1.000  O
  O2       1.0000 0.13743  0.30373  0.03022  Biso   1.000  O
  O3       1.0000 0.13743  0.30366  0.03022  Biso   1.000  O
  H1       1.0000 0.08999  0.18501  0.06300  Biso   1.000  H
  H2       1.0000 0.20599  0.19501  0.04902  Biso   1.000  H
  H3       1.0000 0.20605  0.19501  0.04902  Biso   1.000  H
  H4       1.0000 0.08998  0.18494  0.06300  Biso   1.000  H
  H5       1.0000 0.20598  0.19494  0.04902  Biso   1.000  H
  C1       1.0000 0.10283  0.26913  0.20309  Biso   1.000  C
  C2       1.0000 0.15221  0.23004  0.07269  Biso   1.000  C
  C3       1.0000 0.05119  0.32654  0.02219  Biso   1.000  C
  C4       1.0000 0.05105  0.34168  0.20773  Biso   1.000  C
  C5       1.0000 0.05105  0.34174  0.20767  Biso   1.000  C
  C6       1.0000 0.08833  0.20335  0.24961  Biso   1.000  C
  C7       1.0000 0.00254  0.29029  0.94801  Biso   1.000  C
  C8       1.0000 0.00261  0.29029  0.94801  Biso   1.000  C
  C9       1.0000 0.01280  0.38580  0.07668  Biso   1.000  C
  C10      1.0000 0.01281  0.38581  0.07674  Biso   1.000  C
  C11      1.0000 0.01280  0.38575  0.07674  Biso   1.000  C
  C12      1.0000 0.98469  0.34840  0.25889  Biso   1.000  C
  C13      1.0000 0.98476  0.34840  0.25889  Biso   1.000  C
  C14      1.0000 0.98475  0.34833  0.25889  Biso   1.000  C
  C15      1.0000 0.07580  0.41427  0.15431  Biso   1.000  C
  C16      1.0000 0.07581  0.41434  0.15431  Biso   1.000  C
  C17      1.0000 0.02204  0.20989  0.30089  Biso   1.000  C
  O4       1.0000 0.13232  0.12593  0.23932  Biso   1.000  O
  C18      1.0000 0.91537  0.31314  0.92844  Biso   1.000  C
  C19      1.0000 0.91537  0.31320  0.92844  Biso   1.000  C
  O5       1.0000 0.03517  0.22637  0.89471  Biso   1.000  O
  C20      1.0000 0.92564  0.40878  0.05711  Biso   1.000  C
  C21      1.0000 0.92565  0.40884  0.05711  Biso   1.000  C
  C22      1.0000 0.97026  0.28251  0.30553  Biso   1.000  C
  C23      1.0000 0.97026  0.28245  0.30553  Biso   1.000  C
  H6       1.0000 0.94502  0.40495  0.26300  Biso   1.000  H
  H7       1.0000 0.14602  0.41900  0.14402  Biso   1.000  H
  C24      1.0000 0.05066  0.50862  0.19928  Biso   1.000  C
  C25      1.0000 0.05066  0.50856  0.19928  Biso   1.000  C
  O6       1.0000 0.01422  0.14322  0.34628  Biso   1.000  O
  O7       1.0000 0.01422  0.14317  0.34634  Biso   1.000  O
  C26      1.0000 0.21435  0.12754  0.28881  Biso   1.000  C
  O8       1.0000 0.86795  0.28404  0.85360  Biso   1.000  O
  C27      1.0000 0.87699  0.37246  0.98293  Biso   1.000  C
  C28      1.0000 0.07484  0.26484  0.83284  Biso   1.000  C
  C29      1.0000 0.07485  0.26491  0.83284  Biso   1.000  C
  H8       1.0000 0.89601  0.45500  0.09899  Biso   1.000  H
  H9       1.0000 0.89601  0.45494  0.09899  Biso   1.000  H
  C30      1.0000 0.89631  0.28254  0.35800  Biso   1.000  C
  H10      1.0000 0.98407  0.50098  0.21802  Biso   1.000  H
  H11      1.0000 0.98401  0.50105  0.21802  Biso   1.000  H
  H12      1.0000 0.05202  0.55799  0.16002  Biso   1.000  H
  C31      1.0000 0.12633  0.54062  0.27442  Biso   1.000  C
  H13      1.0000 0.05203  0.55806  0.16002  Biso   1.000  H
  C32      1.0000 0.12632  0.54056  0.27442  Biso   1.000  C
  C33      1.0000 0.94100  0.07307  0.32778  Biso   1.000  C
  C34      1.0000 0.94101  0.07308  0.32784  Biso   1.000  C
  C35      1.0000 0.94101  0.07314  0.32778  Biso   1.000  C
  H14      1.0000 0.26501  0.17399  0.27198  Biso   1.000  H
  C36      1.0000 0.24701  0.04260  0.28584  Biso   1.000  C
  H15      1.0000 0.26502  0.17400  0.27204  Biso   1.000  H
  C37      1.0000 0.24700  0.04253  0.28584  Biso   1.000  C
  H16      1.0000 0.26501  0.17394  0.27204  Biso   1.000  H
  H17      1.0000 0.20304  0.15093  0.34902  Biso   1.000  H
  C38      1.0000 0.80557  0.20566  0.84444  Biso   1.000  C
  C39      1.0000 0.77869  0.38697  0.96502  Biso   1.000  C
  C40      1.0000 0.07908  0.18777  0.76050  Biso   1.000  C
  H18      1.0000 0.03409  0.31492  0.81398  Biso   1.000  H
  H19      1.0000 0.14304  0.29599  0.85503  Biso   1.000  H
  H20      1.0000 0.03409  0.31499  0.81398  Biso   1.000  H
  H21      1.0000 0.14310  0.29599  0.85503  Biso   1.000  H
  C41      1.0000 0.80903  0.22468  0.31041  Biso   1.000  C
  C42      1.0000 0.80904  0.22475  0.31041  Biso   1.000  C
  H22      1.0000 0.91404  0.25000  0.40803  Biso   1.000  H
  C43      1.0000 0.88495  0.37763  0.39750  Biso   1.000  C
  H23      1.0000 0.91403  0.24993  0.40803  Biso   1.000  H
  H24      1.0000 0.12803  0.48799  0.30999  Biso   1.000  H
  C44      1.0000 0.10632  0.62736  0.32558  Biso   1.000  C
  C45      1.0000 0.10633  0.62737  0.32564  Biso   1.000  C
  H25      1.0000 0.19204  0.55204  0.25401  Biso   1.000  H
  C46      1.0000 0.10633  0.62743  0.32558  Biso   1.000  C
  O9       1.0000 0.86003  0.09396  0.35419  Biso   1.000  O
  O10      1.0000 0.86004  0.09402  0.35419  Biso   1.000  O
  H26      1.0000 0.96205  0.01701  0.35401  Biso   1.000  H
  H27      1.0000 0.92905  0.05399  0.26401  Biso   1.000  H
  H28      1.0000 0.92899  0.05405  0.26401  Biso   1.000  H
  H29      1.0000 0.96204  0.01694  0.35401  Biso   1.000  H
  H30      1.0000 0.19903  0.99597  0.30601  Biso   1.000  H
  H31      1.0000 0.19904  0.99603  0.30601  Biso   1.000  H
  O11      1.0000 0.26472  0.00780  0.20279  Biso   1.000  O
  H32      1.0000 0.31104  0.05097  0.32397  Biso   1.000  H
  H33      1.0000 0.31105  0.05098  0.32403  Biso   1.000  H
  H34      1.0000 0.31104  0.05103  0.32397  Biso   1.000  H
  O12      1.0000 0.26471  0.00773  0.20279  Biso   1.000  O
  O13      1.0000 0.71605  0.22840  0.85134  Biso   1.000  O
  H35      1.0000 0.80704  0.16495  0.78703  Biso   1.000  H
  H36      1.0000 0.82509  0.16798  0.89001  Biso   1.000  H
  C47      1.0000 0.71971  0.31085  0.98519  Biso   1.000  C
  C48      1.0000 0.76026  0.48616  0.99929  Biso   1.000  C
  H37      1.0000 0.76104  0.38400  0.90202  Biso   1.000  H
  H38      1.0000 0.76111  0.38400  0.90202  Biso   1.000  H
  H39      1.0000 0.10403  0.21492  0.71202  Biso   1.000  H
  H40      1.0000 0.10403  0.21499  0.71202  Biso   1.000  H
  H41      1.0000 0.01204  0.15299  0.74099  Biso   1.000  H
  O14      1.0000 0.13838  0.12621  0.78674  Biso   1.000  O
  C49      1.0000 0.74704  0.26380  0.26341  Biso   1.000  C
  C50      1.0000 0.74703  0.26373  0.26341  Biso   1.000  C
  C51      1.0000 0.79993  0.13157  0.30731  Biso   1.000  C
  C52      1.0000 0.79994  0.13164  0.30731  Biso   1.000  C
  H42      1.0000 0.94904  0.40896  0.42998  Biso   1.000  H
  C53      1.0000 0.81351  0.37579  0.45580  Biso   1.000  C
  H43      1.0000 0.86306  0.41500  0.35199  Biso   1.000  H
  H44      1.0000 0.94904  0.40897  0.43004  Biso   1.000  H
  C54      1.0000 0.81358  0.37579  0.45580  Biso   1.000  C
  H45      1.0000 0.94904  0.40902  0.42998  Biso   1.000  H
  H46      1.0000 0.86306  0.41493  0.35199  Biso   1.000  H
  C55      1.0000 0.81357  0.37573  0.45580  Biso   1.000  C
  C56      1.0000 0.02663  0.63219  0.36067  Biso   1.000  C
  C57      1.0000 0.17035  0.70274  0.33724  Biso   1.000  C
  C58      1.0000 0.02663  0.63214  0.36073  Biso   1.000  C
  C59      1.0000 0.34242  0.05550  0.18168  Biso   1.000  C
  C60      1.0000 0.34243  0.05551  0.18174  Biso   1.000  C
  C61      1.0000 0.34243  0.05544  0.18174  Biso   1.000  C
  C62      1.0000 0.69435  0.23286  0.92850  Biso   1.000  C
  C63      1.0000 0.69060  0.31719  0.06020  Biso   1.000  C
  C64      1.0000 0.69060  0.31726  0.06020  Biso   1.000  C
  C65      1.0000 0.66564  0.50206  0.96449  Biso   1.000  C
  C66      1.0000 0.66571  0.50206  0.96449  Biso   1.000  C
  H47      1.0000 0.81004  0.53398  0.98299  Biso   1.000  H
  H48      1.0000 0.81011  0.53398  0.98299  Biso   1.000  H
  H49      1.0000 0.76399  0.49503  0.06300  Biso   1.000  H
  H50      1.0000 0.76405  0.49497  0.06300  Biso   1.000  H
  C67      1.0000 0.22955  0.15449  0.79453  Biso   1.000  C
  C68      1.0000 0.67582  0.20994  0.21332  Biso   1.000  C
  H51      1.0000 0.75401  0.33594  0.26603  Biso   1.000  H
  C69      1.0000 0.72871  0.07771  0.25723  Biso   1.000  C
  C70      1.0000 0.72870  0.07764  0.25723  Biso   1.000  C
  H52      1.0000 0.74907  0.34698  0.42201  Biso   1.000  H
  H53      1.0000 0.83404  0.33399  0.49803  Biso   1.000  H
  H54      1.0000 0.74901  0.34705  0.42201  Biso   1.000  H
  H55      1.0000 0.83404  0.33404  0.49797  Biso   1.000  H
  C71      1.0000 0.80076  0.46745  0.50053  Biso   1.000  C
  H56      1.0000 0.23204  0.69904  0.30999  Biso   1.000  H
  C72      1.0000 0.15462  0.78294  0.38393  Biso   1.000  C
  H57      1.0000 0.97704  0.57398  0.35199  Biso   1.000  H
  C73      1.0000 0.01091  0.71235  0.40749  Biso   1.000  C
  C74      1.0000 0.35432  0.99850  0.10220  Biso   1.000  C
  C75      1.0000 0.35432  0.99856  0.10220  Biso   1.000  C
  H58      1.0000 0.40102  0.05796  0.22498  Biso   1.000  H
  H59      1.0000 0.40103  0.05803  0.22498  Biso   1.000  H
  H60      1.0000 0.33004  0.12303  0.17501  Biso   1.000  H
  C76      1.0000 0.64009  0.16120  0.94682  Biso   1.000  C
  C77      1.0000 0.63633  0.24554  0.07852  Biso   1.000  C
  H61      1.0000 0.71003  0.37805  0.10398  Biso   1.000  H
  H62      1.0000 0.61907  0.44795  0.97400  Biso   1.000  H
  C78      1.0000 0.63009  0.58842  0.99590  Biso   1.000  C
  H63      1.0000 0.66609  0.49900  0.90101  Biso   1.000  H
  C79      1.0000 0.63010  0.58848  0.99590  Biso   1.000  C
  C80      1.0000 0.27923  0.07664  0.81398  Biso   1.000  C
  H64      1.0000 0.24801  0.17392  0.73998  Biso   1.000  H
  H65      1.0000 0.24809  0.17393  0.74004  Biso   1.000  H
  H66      1.0000 0.24802  0.17398  0.73998  Biso   1.000  H
  H67      1.0000 0.24605  0.21100  0.84200  Biso   1.000  H
  H68      1.0000 0.24809  0.17399  0.74004  Biso   1.000  H
  C81      1.0000 0.66673  0.11691  0.21029  Biso   1.000  C
  C82      1.0000 0.66672  0.11684  0.21029  Biso   1.000  C
  C83      1.0000 0.60071  0.24679  0.16074  Biso   1.000  C
  C84      1.0000 0.60071  0.24684  0.16068  Biso   1.000  C
  O15      1.0000 0.72301  0.98862  0.26282  Biso   1.000  O
  C85      1.0000 0.72218  0.47261  0.53723  Biso   1.000  C
  C86      1.0000 0.72210  0.47260  0.53718  Biso   1.000  C
  C87      1.0000 0.86026  0.54482  0.50410  Biso   1.000  C
  C88      1.0000 0.72217  0.47254  0.53723  Biso   1.000  C
  C89      1.0000 0.07494  0.78778  0.41909  Biso   1.000  C
  H69      1.0000 0.20405  0.84102  0.39298  Biso   1.000  H
  H70      1.0000 0.20405  0.84097  0.39304  Biso   1.000  H
  H71      1.0000 0.94906  0.71597  0.43503  Biso   1.000  H
  H72      1.0000 0.94905  0.71603  0.43497  Biso   1.000  H
  O16      1.0000 0.38514  0.91272  0.11332  Biso   1.000  O
  H73      1.0000 0.29004  0.98602  0.06502  Biso   1.000  H
  H74      1.0000 0.40303  0.03402  0.07299  Biso   1.000  H
  H75      1.0000 0.40303  0.03395  0.07299  Biso   1.000  H
  C90      1.0000 0.61098  0.16760  0.02177  Biso   1.000  C
  C91      1.0000 0.61105  0.16761  0.02183  Biso   1.000  C
  C92      1.0000 0.61098  0.16754  0.02183  Biso   1.000  C
  O17      1.0000 0.61493  0.08728  0.88668  Biso   1.000  O
  O18      1.0000 0.61500  0.08729  0.88674  Biso   1.000  O
  C93      1.0000 0.63667  0.66680  0.96312  Biso   1.000  C
  C94      1.0000 0.58902  0.58724  0.06490  Biso   1.000  C
  O19      1.0000 0.27705  0.01131  0.73718  Biso   1.000  O
  H76      1.0000 0.34904  0.09995  0.83801  Biso   1.000  H
  O20      1.0000 0.27705  0.01138  0.73718  Biso   1.000  O
  H77      1.0000 0.24607  0.04400  0.85604  Biso   1.000  H
  O21      1.0000 0.59290  0.06090  0.16591  Biso   1.000  O
  C95      1.0000 0.57609  0.34282  0.19280  Biso   1.000  C
  H78      1.0000 0.53799  0.20496  0.15800  Biso   1.000  H
  C96      1.0000 0.57615  0.34275  0.19280  Biso   1.000  C
  C97      1.0000 0.72084  0.92336  0.18602  Biso   1.000  C
  H79      1.0000 0.92102  0.54096  0.47602  Biso   1.000  H
  C98      1.0000 0.84105  0.62737  0.54443  Biso   1.000  C
  H80      1.0000 0.92103  0.54102  0.47602  Biso   1.000  H
  C99      1.0000 0.84105  0.62742  0.54437  Biso   1.000  C
  C100     1.0000 0.70295  0.55508  0.57751  Biso   1.000  C
  C101     1.0000 0.70296  0.55514  0.57751  Biso   1.000  C
  H81      1.0000 0.67603  0.41293  0.53402  Biso   1.000  H
  H82      1.0000 0.06308  0.85002  0.45502  Biso   1.000  H
  H83      1.0000 0.06307  0.84995  0.45502  Biso   1.000  H
  C102     1.0000 0.35998  0.83880  0.05318  Biso   1.000  C
  O22      1.0000 0.55855  0.09418  0.03992  Biso   1.000  O
  O23      1.0000 0.55848  0.09425  0.03992  Biso   1.000  O
  C103     1.0000 0.64575  0.00144  0.89780  Biso   1.000  C
  C104     1.0000 0.64575  0.00150  0.89780  Biso   1.000  C
  C105     1.0000 0.60228  0.74371  0.99923  Biso   1.000  C
  H84      1.0000 0.66809  0.66796  0.90999  Biso   1.000  H
  C106     1.0000 0.60229  0.74378  0.99923  Biso   1.000  C
  C107     1.0000 0.55471  0.66411  0.10113  Biso   1.000  C
  H85      1.0000 0.58402  0.52697  0.09001  Biso   1.000  H
  H86      1.0000 0.58403  0.52703  0.09001  Biso   1.000  H
  C108     1.0000 0.55470  0.66404  0.10113  Biso   1.000  C
  C109     1.0000 0.27136  0.92223  0.74283  Biso   1.000  C
  C110     1.0000 0.27137  0.92230  0.74283  Biso   1.000  C
  C111     1.0000 0.60178  0.03293  0.08459  Biso   1.000  C
  C112     1.0000 0.60184  0.03287  0.08459  Biso   1.000  C
  C113     1.0000 0.52592  0.33292  0.26323  Biso   1.000  C
  H87      1.0000 0.63699  0.38800  0.21201  Biso   1.000  H
  H88      1.0000 0.63705  0.38794  0.21201  Biso   1.000  H
  H89      1.0000 0.53404  0.36794  0.14801  Biso   1.000  H
  C114     1.0000 0.52591  0.33285  0.26323  Biso   1.000  C
  H90      1.0000 0.75400  0.95601  0.14402  Biso   1.000  H
  C115     1.0000 0.77052  0.84552  0.20553  Biso   1.000  C
  H91      1.0000 0.65103  0.90005  0.16199  Biso   1.000  H
  H92      1.0000 0.88704  0.68698  0.54699  Biso   1.000  H
  C116     1.0000 0.76232  0.63251  0.58108  Biso   1.000  C
  C117     1.0000 0.76233  0.63246  0.58114  Biso   1.000  C
  H93      1.0000 0.64204  0.55896  0.60600  Biso   1.000  H
  H94      1.0000 0.64205  0.55903  0.60600  Biso   1.000  H
  C118     1.0000 0.30571  0.76708  0.07150  Biso   1.000  C
  C119     1.0000 0.30571  0.76714  0.07150  Biso   1.000  C
  C120     1.0000 0.38908  0.83234  0.97823  Biso   1.000  C
  C121     1.0000 0.65764  0.94450  0.81832  Biso   1.000  C
  H95      1.0000 0.59710  0.96592  0.92701  Biso   1.000  H
  C122     1.0000 0.65764  0.94444  0.81832  Biso   1.000  C
  H96      1.0000 0.59710  0.96598  0.92701  Biso   1.000  H
  H97      1.0000 0.71002  0.01391  0.93498  Biso   1.000  H
  H98      1.0000 0.71010  0.01393  0.93504  Biso   1.000  H
  H99      1.0000 0.71003  0.01398  0.93498  Biso   1.000  H
  H100     1.0000 0.71011  0.01399  0.93504  Biso   1.000  H
  H101     1.0000 0.60707  0.80396  0.97400  Biso   1.000  H
  C123     1.0000 0.56134  0.74240  0.06823  Biso   1.000  C
  C124     1.0000 0.56133  0.74246  0.06817  Biso   1.000  C
  H102     1.0000 0.52299  0.66303  0.15503  Biso   1.000  H
  H103     1.0000 0.52305  0.66297  0.15503  Biso   1.000  H
  C125     1.0000 0.20014  0.86843  0.69269  Biso   1.000  C
  C126     1.0000 0.20013  0.86836  0.69269  Biso   1.000  C
  C127     1.0000 0.33333  0.88303  0.78971  Biso   1.000  C
  H104     1.0000 0.56898  0.96501  0.06401  Biso   1.000  H
  H105     1.0000 0.56905  0.96501  0.06401  Biso   1.000  H
  H106     1.0000 0.67306  0.03504  0.07704  Biso   1.000  H
  H107     1.0000 0.67298  0.03503  0.07698  Biso   1.000  H
  H108     1.0000 0.67298  0.03497  0.07704  Biso   1.000  H
  H109     1.0000 0.56806  0.30800  0.30803  Biso   1.000  H
  C128     1.0000 0.50321  0.43117  0.29613  Biso   1.000  C
  C129     1.0000 0.50321  0.43123  0.29607  Biso   1.000  C
  H110     1.0000 0.46404  0.28793  0.24402  Biso   1.000  H
  O24      1.0000 0.86170  0.87381  0.21332  Biso   1.000  O
  H111     1.0000 0.75205  0.82602  0.26002  Biso   1.000  H
  H112     1.0000 0.75401  0.78900  0.15800  Biso   1.000  H
  H113     1.0000 0.74705  0.69599  0.61201  Biso   1.000  H
  H114     1.0000 0.74705  0.69592  0.61201  Biso   1.000  H
  C130     1.0000 0.28043  0.68915  0.01481  Biso   1.000  C
  O25      1.0000 0.28402  0.77161  0.14872  Biso   1.000  O
  C131     1.0000 0.36374  0.75447  0.92154  Biso   1.000  C
  C132     1.0000 0.36373  0.75446  0.92148  Biso   1.000  C
  O26      1.0000 0.44159  0.90582  0.96008  Biso   1.000  O
  O27      1.0000 0.44158  0.90575  0.96008  Biso   1.000  O
  H115     1.0000 0.59904  0.94204  0.77502  Biso   1.000  H
  O28      1.0000 0.73535  0.99220  0.79721  Biso   1.000  O
  H116     1.0000 0.59904  0.94197  0.77502  Biso   1.000  H
  O29      1.0000 0.73535  0.99214  0.79721  Biso   1.000  O
  H117     1.0000 0.67002  0.87697  0.82499  Biso   1.000  H
  H118     1.0000 0.53506  0.80198  0.09601  Biso   1.000  H
  H119     1.0000 0.53500  0.80205  0.09601  Biso   1.000  H
  O30      1.0000 0.14004  0.90604  0.64581  Biso   1.000  O
  O31      1.0000 0.14003  0.90598  0.64581  Biso   1.000  O
  C133     1.0000 0.19104  0.77532  0.68959  Biso   1.000  C
  C134     1.0000 0.19103  0.77525  0.68959  Biso   1.000  C
  C135     1.0000 0.32425  0.79006  0.78668  Biso   1.000  C
  O32      1.0000 0.40717  0.93910  0.83409  Biso   1.000  O
  O33      1.0000 0.40717  0.93904  0.83409  Biso   1.000  O
  C136     1.0000 0.44332  0.47590  0.25229  Biso   1.000  C
  C137     1.0000 0.54396  0.47261  0.37204  Biso   1.000  C
  C138     1.0000 0.44332  0.47583  0.25229  Biso   1.000  C
  C139     1.0000 0.54396  0.47254  0.37204  Biso   1.000  C
  C140     1.0000 0.92105  0.81223  0.23950  Biso   1.000  C
  C141     1.0000 0.22137  0.61297  0.03498  Biso   1.000  C
  C142     1.0000 0.22138  0.61298  0.03504  Biso   1.000  C
  C143     1.0000 0.22138  0.61303  0.03498  Biso   1.000  C
  C144     1.0000 0.22138  0.61305  0.03504  Biso   1.000  C
  C145     1.0000 0.30947  0.68281  0.93980  Biso   1.000  C
  C146     1.0000 0.30946  0.68274  0.93980  Biso   1.000  C
  C147     1.0000 0.19451  0.79435  0.15562  Biso   1.000  C
  C148     1.0000 0.39936  0.75323  0.83932  Biso   1.000  C
  C149     1.0000 0.39936  0.75316  0.83932  Biso   1.000  C
  C150     1.0000 0.39829  0.96713  0.91541  Biso   1.000  C
  C151     1.0000 0.39828  0.96707  0.91541  Biso   1.000  C
  C152     1.0000 0.75307  0.95741  0.71422  Biso   1.000  C
  C153     1.0000 0.75306  0.95734  0.71422  Biso   1.000  C
  C154     1.0000 0.05907  0.92693  0.67222  Biso   1.000  C
  C155     1.0000 0.05906  0.92686  0.67222  Biso   1.000  C
  C156     1.0000 0.10375  0.71733  0.64200  Biso   1.000  C
  C157     1.0000 0.25302  0.73614  0.73659  Biso   1.000  C
  C158     1.0000 0.42423  0.56185  0.28429  Biso   1.000  C
  H120     1.0000 0.41202  0.44395  0.19399  Biso   1.000  H
  C159     1.0000 0.52473  0.55861  0.40398  Biso   1.000  C
  H121     1.0000 0.59003  0.43799  0.40600  Biso   1.000  H
  C160     1.0000 0.52473  0.55854  0.40398  Biso   1.000  C
  H122     1.0000 0.59002  0.43792  0.40600  Biso   1.000  H
  C161     1.0000 0.92523  0.73510  0.16722  Biso   1.000  C
  H123     1.0000 0.98803  0.84701  0.25901  Biso   1.000  H
  H124     1.0000 0.89604  0.78502  0.28804  Biso   1.000  H
  C162     1.0000 0.12308  0.62747  0.01707  Biso   1.000  C
  C163     1.0000 0.12308  0.62748  0.01713  Biso   1.000  C
  C164     1.0000 0.12308  0.62754  0.01707  Biso   1.000  C
  C165     1.0000 0.12309  0.62755  0.01713  Biso   1.000  C
  H125     1.0000 0.23904  0.61601  0.09804  Biso   1.000  H
  C166     1.0000 0.23980  0.51384  0.00071  Biso   1.000  C
  H126     1.0000 0.29003  0.62195  0.89602  Biso   1.000  H
  O34      1.0000 0.13212  0.71596  0.14640  Biso   1.000  O
  H127     1.0000 0.17505  0.83202  0.10999  Biso   1.000  H
  H128     1.0000 0.19303  0.83506  0.21303  Biso   1.000  H
  H129     1.0000 0.46207  0.79498  0.84200  Biso   1.000  H
  C167     1.0000 0.42397  0.65718  0.80720  Biso   1.000  C
  C168     1.0000 0.42397  0.65712  0.80720  Biso   1.000  C
  H130     1.0000 0.32709  0.96504  0.92302  Biso   1.000  H
  H131     1.0000 0.32709  0.96497  0.92302  Biso   1.000  H
  H132     1.0000 0.43108  0.03492  0.93599  Biso   1.000  H
  H133     1.0000 0.43109  0.03499  0.93599  Biso   1.000  H
  H134     1.0000 0.68903  0.94903  0.67603  Biso   1.000  H
  H135     1.0000 0.68909  0.94897  0.67603  Biso   1.000  H
  H136     1.0000 0.68902  0.94897  0.67603  Biso   1.000  H
  C169     1.0000 0.78572  0.87246  0.71119  Biso   1.000  C
  H137     1.0000 0.80103  0.00397  0.69399  Biso   1.000  H
  O35      1.0000 0.98585  0.85678  0.65372  Biso   1.000  O
  H138     1.0000 0.07108  0.94601  0.73599  Biso   1.000  H
  H139     1.0000 0.03802  0.98299  0.64599  Biso   1.000  H
  H140     1.0000 0.03808  0.98293  0.64599  Biso   1.000  H
  H141     1.0000 0.07101  0.94595  0.73599  Biso   1.000  H
  H142     1.0000 0.03808  0.98299  0.64599  Biso   1.000  H
  C170     1.0000 0.02980  0.71749  0.69447  Biso   1.000  C
  C171     1.0000 0.02988  0.71750  0.69453  Biso   1.000  C
  H143     1.0000 0.08603  0.75000  0.59197  Biso   1.000  H
  C172     1.0000 0.11512  0.62237  0.60250  Biso   1.000  C
  H144     1.0000 0.08604  0.75001  0.59203  Biso   1.000  H
  H145     1.0000 0.24605  0.66399  0.73397  Biso   1.000  H
  H146     1.0000 0.24606  0.66394  0.73403  Biso   1.000  H
  H147     1.0000 0.24606  0.66401  0.73403  Biso   1.000  H
  C173     1.0000 0.46496  0.60319  0.36008  Biso   1.000  C
  C174     1.0000 0.46497  0.60320  0.36014  Biso   1.000  C
  C175     1.0000 0.46496  0.60314  0.36014  Biso   1.000  C
  H148     1.0000 0.37801  0.59594  0.25003  Biso   1.000  H
  H149     1.0000 0.55603  0.59097  0.46299  Biso   1.000  H
  H150     1.0000 0.55603  0.59103  0.46299  Biso   1.000  H
  O36      1.0000 0.96490  0.77363  0.10529  Biso   1.000  O
  H151     1.0000 0.85704  0.70402  0.14503  Biso   1.000  H
  H152     1.0000 0.96597  0.68501  0.18602  Biso   1.000  H
  H153     1.0000 0.85696  0.70401  0.14497  Biso   1.000  H
  C176     1.0000 0.08470  0.68681  0.07162  Biso   1.000  C
  C177     1.0000 0.07443  0.59122  0.94289  Biso   1.000  C
  C178     1.0000 0.07442  0.59116  0.94289  Biso   1.000  C
  H154     1.0000 0.23609  0.50503  0.93700  Biso   1.000  H
  H155     1.0000 0.23608  0.50497  0.93700  Biso   1.000  H
  H156     1.0000 0.19003  0.46602  0.01701  Biso   1.000  H
  C179     1.0000 0.33442  0.49788  0.03551  Biso   1.000  C
  C180     1.0000 0.33442  0.49794  0.03551  Biso   1.000  C
  H157     1.0000 0.36301  0.61200  0.78799  Biso   1.000  H
  H158     1.0000 0.46602  0.63200  0.85199  Biso   1.000  H
  H159     1.0000 0.36308  0.61193  0.78799  Biso   1.000  H
  H160     1.0000 0.46608  0.63193  0.85199  Biso   1.000  H
  C181     1.0000 0.47415  0.66703  0.73683  Biso   1.000  C
  H161     1.0000 0.36301  0.61193  0.78799  Biso   1.000  H
  H162     1.0000 0.36308  0.61200  0.78799  Biso   1.000  H
  H163     1.0000 0.46609  0.63200  0.85199  Biso   1.000  H
  H164     1.0000 0.79702  0.84900  0.65098  Biso   1.000  H
  H165     1.0000 0.73505  0.82594  0.72802  Biso   1.000  H
  H166     1.0000 0.79701  0.84894  0.65098  Biso   1.000  H
  O37      1.0000 0.86774  0.87393  0.76068  Biso   1.000  O
  O38      1.0000 0.86775  0.87401  0.76074  Biso   1.000  O
  C182     1.0000 0.97803  0.79011  0.69911  Biso   1.000  C
  C183     1.0000 0.97802  0.79004  0.69911  Biso   1.000  C
  C184     1.0000 0.01537  0.65160  0.74111  Biso   1.000  C
  C185     1.0000 0.01537  0.65154  0.74111  Biso   1.000  C
  H167     1.0000 0.05103  0.59104  0.57002  Biso   1.000  H
  C186     1.0000 0.18656  0.62421  0.54420  Biso   1.000  C
  H168     1.0000 0.13707  0.58494  0.64801  Biso   1.000  H
  H169     1.0000 0.05103  0.59098  0.57002  Biso   1.000  H
  C187     1.0000 0.18655  0.62414  0.54420  Biso   1.000  C
  H170     1.0000 0.45002  0.66994  0.38501  Biso   1.000  H
  C188     1.0000 0.99753  0.70971  0.05199  Biso   1.000  C
  C189     1.0000 0.98727  0.61420  0.92332  Biso   1.000  C
  C190     1.0000 0.98726  0.61413  0.92332  Biso   1.000  C
  H171     1.0000 0.10406  0.54500  0.90101  Biso   1.000  H
  H172     1.0000 0.10405  0.54493  0.90101  Biso   1.000  H
  H173     1.0000 0.33398  0.50100  0.09899  Biso   1.000  H
  H174     1.0000 0.38100  0.55198  0.02600  Biso   1.000  H
  C191     1.0000 0.36997  0.41152  0.00410  Biso   1.000  C
  H175     1.0000 0.38100  0.55205  0.02600  Biso   1.000  H
  C192     1.0000 0.49687  0.56884  0.70393  Biso   1.000  C
  C193     1.0000 0.49686  0.56877  0.70393  Biso   1.000  C
  H176     1.0000 0.43200  0.69194  0.69197  Biso   1.000  H
  H177     1.0000 0.53602  0.71193  0.75598  Biso   1.000  H
  H178     1.0000 0.43209  0.69202  0.69203  Biso   1.000  H
  C194     1.0000 0.91174  0.79665  0.75039  Biso   1.000  C
  C195     1.0000 0.94902  0.65826  0.79233  Biso   1.000  C
  H179     1.0000 0.05504  0.59499  0.73700  Biso   1.000  H
  H180     1.0000 0.05503  0.59492  0.73700  Biso   1.000  H
  H181     1.0000 0.16603  0.66603  0.50203  Biso   1.000  H
  H182     1.0000 0.25105  0.65295  0.57799  Biso   1.000  H
  H183     1.0000 0.16603  0.66596  0.50203  Biso   1.000  H
  C196     1.0000 0.19937  0.53243  0.49953  Biso   1.000  C
  C197     1.0000 0.19937  0.53250  0.49953  Biso   1.000  C
  C198     1.0000 0.94888  0.67346  0.97781  Biso   1.000  C
  C199     1.0000 0.92426  0.58573  0.84569  Biso   1.000  C
  C200     1.0000 0.92426  0.58566  0.84569  Biso   1.000  C
  C201     1.0000 0.41104  0.41276  0.93510  Biso   1.000  C
  C202     1.0000 0.36339  0.33320  0.03688  Biso   1.000  C
  C203     1.0000 0.45611  0.52741  0.62802  Biso   1.000  C
  C204     1.0000 0.55674  0.52403  0.74771  Biso   1.000  C
  C205     1.0000 0.45618  0.52741  0.62802  Biso   1.000  C
  C206     1.0000 0.89723  0.73074  0.79691  Biso   1.000  C
  C207     1.0000 0.13980  0.45511  0.49590  Biso   1.000  C
  C208     1.0000 0.27790  0.52740  0.46282  Biso   1.000  C
  C209     1.0000 0.13986  0.45504  0.49590  Biso   1.000  C
  C210     1.0000 0.13987  0.45511  0.49590  Biso   1.000  C
  C211     1.0000 0.27796  0.52740  0.46282  Biso   1.000  C
  O39      1.0000 0.86263  0.69627  0.96978  Biso   1.000  O
  O40      1.0000 0.86264  0.69622  0.96984  Biso   1.000  O
  O41      1.0000 0.86264  0.69628  0.96984  Biso   1.000  O
  H184     1.0000 0.85404  0.58100  0.85598  Biso   1.000  H
  C212     1.0000 0.94947  0.49138  0.80072  Biso   1.000  C
  H185     1.0000 0.85404  0.58094  0.85598  Biso   1.000  H
  H186     1.0000 0.41605  0.47303  0.90999  Biso   1.000  H
  H187     1.0000 0.41604  0.47297  0.90999  Biso   1.000  H
  C213     1.0000 0.44536  0.33590  0.89893  Biso   1.000  C
  C214     1.0000 0.39778  0.25622  0.00077  Biso   1.000  C
  H188     1.0000 0.33197  0.33197  0.09001  Biso   1.000  H
  C215     1.0000 0.39779  0.25623  0.00083  Biso   1.000  C
  H189     1.0000 0.33204  0.33204  0.09001  Biso   1.000  H
  H190     1.0000 0.33197  0.33204  0.09001  Biso   1.000  H
  C216     1.0000 0.57583  0.43809  0.71571  Biso   1.000  C
  H191     1.0000 0.58804  0.55598  0.80601  Biso   1.000  H
  C217     1.0000 0.57583  0.43802  0.71571  Biso   1.000  C
  H192     1.0000 0.58803  0.55592  0.80601  Biso   1.000  H
  C218     1.0000 0.47533  0.44133  0.59602  Biso   1.000  C
  H193     1.0000 0.41004  0.56194  0.59400  Biso   1.000  H
  O42      1.0000 0.82286  0.73944  0.84319  Biso   1.000  O
  H194     1.0000 0.07904  0.45904  0.52398  Biso   1.000  H
  C219     1.0000 0.15902  0.37258  0.45563  Biso   1.000  C
  H195     1.0000 0.07905  0.45899  0.52404  Biso   1.000  H
  H196     1.0000 0.07904  0.45898  0.52398  Biso   1.000  H
  C220     1.0000 0.29711  0.44492  0.42249  Biso   1.000  C
  C221     1.0000 0.29711  0.44486  0.42249  Biso   1.000  C
  H197     1.0000 0.32403  0.58695  0.46604  Biso   1.000  H
  H198     1.0000 0.32404  0.58702  0.46604  Biso   1.000  H
  C222     1.0000 0.84786  0.76996  0.92731  Biso   1.000  C
  H199     1.0000 0.94805  0.44201  0.83998  Biso   1.000  H
  C223     1.0000 0.87374  0.45938  0.72558  Biso   1.000  C
  H200     1.0000 0.94804  0.44194  0.83998  Biso   1.000  H
  H201     1.0000 0.01606  0.49895  0.78198  Biso   1.000  H
  H202     1.0000 0.47701  0.33697  0.84497  Biso   1.000  H
  C224     1.0000 0.43873  0.25754  0.93183  Biso   1.000  C
  H203     1.0000 0.47708  0.33698  0.84503  Biso   1.000  H
  H204     1.0000 0.39300  0.19598  0.02600  Biso   1.000  H
  H205     1.0000 0.39300  0.19604  0.02600  Biso   1.000  H
  C225     1.0000 0.53511  0.39681  0.63992  Biso   1.000  C
  H206     1.0000 0.62205  0.40399  0.74997  Biso   1.000  H
  C226     1.0000 0.53518  0.39681  0.63992  Biso   1.000  C
  H207     1.0000 0.62206  0.40401  0.75003  Biso   1.000  H
  H208     1.0000 0.44404  0.40903  0.53701  Biso   1.000  H
  H209     1.0000 0.44404  0.40897  0.53701  Biso   1.000  H
  C227     1.0000 0.23775  0.36755  0.41892  Biso   1.000  C
  C228     1.0000 0.23774  0.36749  0.41892  Biso   1.000  C
  H210     1.0000 0.11302  0.31295  0.45301  Biso   1.000  H
  H211     1.0000 0.35802  0.44104  0.39400  Biso   1.000  H
  H212     1.0000 0.35802  0.44097  0.39400  Biso   1.000  H
  H213     1.0000 0.91007  0.81493  0.93700  Biso   1.000  H
  H214     1.0000 0.79407  0.80492  0.95098  Biso   1.000  H
  C229     1.0000 0.89375  0.37264  0.67442  Biso   1.000  C
  H215     1.0000 0.87203  0.51195  0.69001  Biso   1.000  H
  H216     1.0000 0.80802  0.44796  0.74599  Biso   1.000  H
  C230     1.0000 0.89374  0.37257  0.67442  Biso   1.000  C
  H217     1.0000 0.46506  0.19795  0.90399  Biso   1.000  H
  H218     1.0000 0.55003  0.32992  0.61499  Biso   1.000  H
  H219     1.0000 0.25301  0.30395  0.38799  Biso   1.000  H
  C231     1.0000 0.82972  0.29721  0.66282  Biso   1.000  C
  C232     1.0000 0.97343  0.36781  0.63933  Biso   1.000  C
  C233     1.0000 0.82978  0.29714  0.66282  Biso   1.000  C
  C234     1.0000 0.97343  0.36774  0.63933  Biso   1.000  C
  C235     1.0000 0.84545  0.21701  0.61613  Biso   1.000  C
  C236     1.0000 0.84544  0.21694  0.61613  Biso   1.000  C
  H220     1.0000 0.76803  0.30096  0.69001  Biso   1.000  H
  C237     1.0000 0.98915  0.28758  0.59251  Biso   1.000  C
  H221     1.0000 0.02303  0.42602  0.64801  Biso   1.000  H
  H222     1.0000 0.02302  0.42595  0.64801  Biso   1.000  H
  C238     1.0000 0.92512  0.21215  0.58091  Biso   1.000  C
  H223     1.0000 0.79602  0.15898  0.60702  Biso   1.000  H
  H224     1.0000 0.05101  0.28397  0.56503  Biso   1.000  H
  H225     1.0000 0.93705  0.14998  0.54498  Biso   1.000  H
  H226     1.0000 0.93706  0.14999  0.54504  Biso   1.000  H
  H227     1.0000 0.93699  0.14998  0.54498  Biso   1.000  H
  Ne1      1.0000 0.99417  0.00922  0.00520  Biso   1.000  Ne
  He1      1.0000 0.10574  0.90406  0.25802  Biso   1.000  He
  He2      1.0000 0.82668  0.41081  0.18718  Biso   1.000  He
  He3      1.0000 0.23233  0.06643  0.98242  Biso   1.000  He
  He4      1.0000 0.76573  0.93251  0.01744  Biso   1.000  He
  He5      1.0000 0.15733  0.67778  0.84820  Biso   1.000  He
  He6      1.0000 0.93622  0.03349  0.71108  Biso   1.000  He
  Ar1      1.0000 0.99070  0.00286  0.00311  Biso   1.000  Ar
