data_image0
_cell_length_a       14.614
_cell_length_b       8.425
_cell_length_c       25.1
_cell_angle_alpha    90
_cell_angle_beta     100.96
_cell_angle_gamma    90

_symmetry_space_group_name_H-M    "P 1"
_symmetry_int_tables_number       1

loop_
  _symmetry_equiv_pos_as_xyz
  'x, y, z'

loop_
  _atom_site_label
  _atom_site_occupancy
  _atom_site_fract_x
  _atom_site_fract_y
  _atom_site_fract_z
  _atom_site_thermal_displace_type
  _atom_site_B_iso_or_equiv
  _atom_site_type_symbol
  C1       1.0000 0.52402  0.85614  0.86587  Biso   1.000  C
  N1       1.0000 0.46152  0.98089  0.88401  Biso   1.000  N
  H1       1.0000 0.59500  0.90303  0.87200  Biso   1.000  H
  H2       1.0000 0.50104  0.82896  0.82399  Biso   1.000  H
  C2       1.0000 0.52938  0.71490  0.89842  Biso   1.000  C
  H3       1.0000 0.50097  0.82896  0.82399  Biso   1.000  H
  H4       1.0000 0.46402  0.99003  0.92500  Biso   1.000  H
  C3       1.0000 0.52403  0.85614  0.86591  Biso   1.000  C
  C4       1.0000 0.35957  0.94326  0.86539  Biso   1.000  C
  C5       1.0000 0.48140  0.14718  0.86737  Biso   1.000  C
  C6       1.0000 0.48141  0.14718  0.86742  Biso   1.000  C
  H5       1.0000 0.45701  0.65899  0.89201  Biso   1.000  H
  H6       1.0000 0.57302  0.62398  0.88600  Biso   1.000  H
  O1       1.0000 0.55773  0.75822  0.95422  Biso   1.000  O
  H7       1.0000 0.33401  0.97306  0.82399  Biso   1.000  H
  H8       1.0000 0.34699  0.80997  0.86900  Biso   1.000  H
  C7       1.0000 0.29953  0.02516  0.90008  Biso   1.000  C
  C8       1.0000 0.57090  0.20605  0.90130  Biso   1.000  C
  H9       1.0000 0.42301  0.22196  0.87297  Biso   1.000  H
  H10      1.0000 0.48597  0.14896  0.82501  Biso   1.000  H
  H11      1.0000 0.42303  0.22196  0.87302  Biso   1.000  H
  C9       1.0000 0.54934  0.63798  0.99139  Biso   1.000  C
  C10      1.0000 0.54927  0.63798  0.99139  Biso   1.000  C
  H12      1.0000 0.22900  0.97697  0.88799  Biso   1.000  H
  O2       1.0000 0.33643  0.98350  0.95422  Biso   1.000  O
  H13      1.0000 0.30302  0.14398  0.89298  Biso   1.000  H
  O3       1.0000 0.56023  0.19656  0.95539  Biso   1.000  O
  H14      1.0000 0.62498  0.13602  0.89298  Biso   1.000  H
  O4       1.0000 0.56016  0.19656  0.95539  Biso   1.000  O
  H15      1.0000 0.57803  0.32902  0.89002  Biso   1.000  H
  H16      1.0000 0.55798  0.52202  0.97301  Biso   1.000  H
  H17      1.0000 0.60202  0.65104  0.02698  Biso   1.000  H
  C11      1.0000 0.45067  0.63798  0.00860  Biso   1.000  C
  H18      1.0000 0.60203  0.65104  0.02702  Biso   1.000  H
  C12      1.0000 0.29971  0.08154  0.99180  Biso   1.000  C
  C13      1.0000 0.64412  0.22884  0.99249  Biso   1.000  C
  H19      1.0000 0.39799  0.65104  0.97301  Biso   1.000  H
  O5       1.0000 0.44230  0.75822  0.04581  Biso   1.000  O
  H20      1.0000 0.44203  0.52202  0.02698  Biso   1.000  H
  H21      1.0000 0.44198  0.52202  0.02702  Biso   1.000  H
  H22      1.0000 0.22900  0.10599  0.97601  Biso   1.000  H
  C14      1.0000 0.35588  0.22884  0.00750  Biso   1.000  C
  H23      1.0000 0.30399  0.00605  0.02901  Biso   1.000  H
  H24      1.0000 0.68701  0.30801  0.97398  Biso   1.000  H
  C15      1.0000 0.70030  0.08154  0.00819  Biso   1.000  C
  H25      1.0000 0.62902  0.28000  0.02901  Biso   1.000  H
  C16      1.0000 0.47057  0.71490  0.10161  Biso   1.000  C
  H26      1.0000 0.37099  0.28000  0.97098  Biso   1.000  H
  H27      1.0000 0.37100  0.28000  0.97102  Biso   1.000  H
  O6       1.0000 0.43978  0.19656  0.04459  Biso   1.000  O
  H28      1.0000 0.31300  0.30801  0.02601  Biso   1.000  H
  O7       1.0000 0.66359  0.98350  0.04581  Biso   1.000  O
  H29      1.0000 0.69602  0.00605  0.97098  Biso   1.000  H
  H30      1.0000 0.69603  0.00605  0.97102  Biso   1.000  H
  H31      1.0000 0.77101  0.10599  0.02398  Biso   1.000  H
  H32      1.0000 0.77102  0.10599  0.02402  Biso   1.000  H
  C17      1.0000 0.47599  0.85614  0.13411  Biso   1.000  C
  H33      1.0000 0.42699  0.62398  0.11398  Biso   1.000  H
  H34      1.0000 0.54301  0.65899  0.10802  Biso   1.000  H
  C18      1.0000 0.42911  0.20605  0.09869  Biso   1.000  C
  C19      1.0000 0.70048  0.02516  0.09990  Biso   1.000  C
  N2       1.0000 0.53849  0.98089  0.11597  Biso   1.000  N
  H35      1.0000 0.49897  0.82896  0.17599  Biso   1.000  H
  H36      1.0000 0.40501  0.90303  0.12798  Biso   1.000  H
  N3       1.0000 0.53851  0.98089  0.11601  Biso   1.000  N
  C20      1.0000 0.51861  0.14718  0.13261  Biso   1.000  C
  H37      1.0000 0.37503  0.13602  0.10700  Biso   1.000  H
  H38      1.0000 0.42200  0.32902  0.11001  Biso   1.000  H
  C21      1.0000 0.64037  0.94326  0.13460  Biso   1.000  C
  H39      1.0000 0.77101  0.97697  0.11200  Biso   1.000  H
  H40      1.0000 0.69699  0.14398  0.10700  Biso   1.000  H
  H41      1.0000 0.53599  0.99003  0.07499  Biso   1.000  H
  H42      1.0000 0.57700  0.22196  0.12701  Biso   1.000  H
  H43      1.0000 0.51398  0.14896  0.17502  Biso   1.000  H
  H44      1.0000 0.66600  0.97306  0.17599  Biso   1.000  H
  H45      1.0000 0.65302  0.80997  0.13099  Biso   1.000  H
  C22      1.0000 0.79953  0.52522  0.90008  Biso   1.000  C
  H46      1.0000 0.80302  0.64404  0.89298  Biso   1.000  H
  H47      1.0000 0.72900  0.47703  0.88799  Biso   1.000  H
  O8       1.0000 0.83643  0.48344  0.95422  Biso   1.000  O
  C23      1.0000 0.85957  0.44332  0.86539  Biso   1.000  C
  C24      1.0000 0.79971  0.58148  0.99180  Biso   1.000  C
  N4       1.0000 0.96152  0.48095  0.88401  Biso   1.000  N
  H48      1.0000 0.83401  0.47300  0.82399  Biso   1.000  H
  H49      1.0000 0.84699  0.31003  0.86900  Biso   1.000  H
  H50      1.0000 0.72900  0.60605  0.97601  Biso   1.000  H
  C25      1.0000 0.85588  0.72890  0.00750  Biso   1.000  C
  H51      1.0000 0.80399  0.50599  0.02901  Biso   1.000  H
  H52      1.0000 0.96402  0.48997  0.92500  Biso   1.000  H
  C26      1.0000 0.98140  0.64724  0.86737  Biso   1.000  C
  C27      1.0000 0.98141  0.64724  0.86742  Biso   1.000  C
  C28      1.0000 0.02402  0.35608  0.86587  Biso   1.000  C
  C29      1.0000 0.02403  0.35608  0.86591  Biso   1.000  C
  H53      1.0000 0.87099  0.78006  0.97098  Biso   1.000  H
  H54      1.0000 0.87100  0.78006  0.97102  Biso   1.000  H
  O9       1.0000 0.93978  0.69662  0.04459  Biso   1.000  O
  H55      1.0000 0.81300  0.80795  0.02601  Biso   1.000  H
  H56      1.0000 0.98604  0.64902  0.82501  Biso   1.000  H
  H57      1.0000 0.92301  0.72202  0.87297  Biso   1.000  H
  H58      1.0000 0.98597  0.64902  0.82501  Biso   1.000  H
  H59      1.0000 0.92303  0.72202  0.87302  Biso   1.000  H
  C30      1.0000 0.07090  0.70599  0.90130  Biso   1.000  C
  H60      1.0000 0.09500  0.40297  0.87200  Biso   1.000  H
  C31      1.0000 0.02938  0.21496  0.89842  Biso   1.000  C
  H61      1.0000 0.00097  0.32902  0.82399  Biso   1.000  H
  C32      1.0000 0.92911  0.70599  0.09869  Biso   1.000  C
  O10      1.0000 0.06023  0.69662  0.95539  Biso   1.000  O
  H62      1.0000 0.12498  0.63596  0.89298  Biso   1.000  H
  O11      1.0000 0.06016  0.69662  0.95539  Biso   1.000  O
  H63      1.0000 0.07803  0.82896  0.89002  Biso   1.000  H
  H64      1.0000 0.95701  0.15905  0.89201  Biso   1.000  H
  H65      1.0000 0.07302  0.12404  0.88600  Biso   1.000  H
  O12      1.0000 0.05773  0.25816  0.95422  Biso   1.000  O
  H66      1.0000 0.87503  0.63596  0.10700  Biso   1.000  H
  H67      1.0000 0.92200  0.82896  0.11001  Biso   1.000  H
  C33      1.0000 0.01861  0.64724  0.13261  Biso   1.000  C
  C34      1.0000 0.14412  0.72890  0.99249  Biso   1.000  C
  C35      1.0000 0.04927  0.13804  0.99139  Biso   1.000  C
  N5       1.0000 0.03849  0.48095  0.11597  Biso   1.000  N
  H68      1.0000 0.07700  0.72202  0.12701  Biso   1.000  H
  N6       1.0000 0.03851  0.48095  0.11601  Biso   1.000  N
  H69      1.0000 0.01398  0.64902  0.17502  Biso   1.000  H
  H70      1.0000 0.18701  0.80795  0.97398  Biso   1.000  H
  C36      1.0000 0.20030  0.58148  0.00819  Biso   1.000  C
  H71      1.0000 0.12902  0.78006  0.02901  Biso   1.000  H
  C37      1.0000 0.95067  0.13804  0.00860  Biso   1.000  C
  H72      1.0000 0.05798  0.02196  0.97301  Biso   1.000  H
  H73      1.0000 0.10202  0.15098  0.02698  Biso   1.000  H
  H74      1.0000 0.10203  0.15098  0.02702  Biso   1.000  H
  C38      1.0000 0.97599  0.35608  0.13411  Biso   1.000  C
  C39      1.0000 0.14037  0.44332  0.13460  Biso   1.000  C
  H75      1.0000 0.03599  0.48997  0.07499  Biso   1.000  H
  H76      1.0000 0.19602  0.50599  0.97098  Biso   1.000  H
  H77      1.0000 0.19603  0.50599  0.97102  Biso   1.000  H
  H78      1.0000 0.27101  0.60605  0.02398  Biso   1.000  H
  O13      1.0000 0.16359  0.48344  0.04581  Biso   1.000  O
  H79      1.0000 0.27102  0.60605  0.02402  Biso   1.000  H
  H80      1.0000 0.89799  0.15098  0.97301  Biso   1.000  H
  O14      1.0000 0.94230  0.25816  0.04581  Biso   1.000  O
  H81      1.0000 0.94203  0.02196  0.02698  Biso   1.000  H
  H82      1.0000 0.94198  0.02196  0.02702  Biso   1.000  H
  C40      1.0000 0.97064  0.21496  0.10161  Biso   1.000  C
  H83      1.0000 0.99897  0.32902  0.17599  Biso   1.000  H
  H84      1.0000 0.90501  0.40297  0.12798  Biso   1.000  H
  C41      1.0000 0.97057  0.21496  0.10161  Biso   1.000  C
  C42      1.0000 0.20048  0.52522  0.09990  Biso   1.000  C
  H85      1.0000 0.16600  0.47300  0.17599  Biso   1.000  H
  H86      1.0000 0.15302  0.31003  0.13099  Biso   1.000  H
  H87      1.0000 0.92699  0.12404  0.11398  Biso   1.000  H
  H88      1.0000 0.04301  0.15905  0.10802  Biso   1.000  H
  H89      1.0000 0.19699  0.64404  0.10700  Biso   1.000  H
  H90      1.0000 0.27101  0.47703  0.11200  Biso   1.000  H
  C43      1.0000 0.51763  0.65674  0.63339  Biso   1.000  C
  C44      1.0000 0.42683  0.71858  0.60052  Biso   1.000  C
  N7       1.0000 0.53789  0.49531  0.61581  Biso   1.000  N
  H91      1.0000 0.51101  0.65496  0.67600  Biso   1.000  H
  H92      1.0000 0.56899  0.73697  0.62701  Biso   1.000  H
  O15      1.0000 0.43978  0.71537  0.54650  Biso   1.000  O
  H93      1.0000 0.41603  0.84095  0.61500  Biso   1.000  H
  H94      1.0000 0.36903  0.64700  0.61001  Biso   1.000  H
  C45      1.0000 0.47321  0.36665  0.63359  Biso   1.000  C
  C46      1.0000 0.63837  0.44641  0.63371  Biso   1.000  C
  H95      1.0000 0.50600  0.48000  0.57600  Biso   1.000  H
  C47      1.0000 0.35591  0.74125  0.50738  Biso   1.000  C
  C48      1.0000 0.47082  0.22125  0.59901  Biso   1.000  C
  H96      1.0000 0.49897  0.33496  0.67600  Biso   1.000  H
  H97      1.0000 0.40403  0.41401  0.63002  Biso   1.000  H
  C49      1.0000 0.69630  0.53638  0.60031  Biso   1.000  C
  H98      1.0000 0.64501  0.32202  0.63099  Biso   1.000  H
  H99      1.0000 0.65798  0.48499  0.67701  Biso   1.000  H
  C50      1.0000 0.30053  0.59145  0.49200  Biso   1.000  C
  H100     1.0000 0.37502  0.78599  0.47098  Biso   1.000  H
  H101     1.0000 0.31502  0.82694  0.52402  Biso   1.000  H
  O16      1.0000 0.44301  0.26576  0.54528  Biso   1.000  O
  H102     1.0000 0.53501  0.15798  0.60701  Biso   1.000  H
  H103     1.0000 0.41597  0.13602  0.61001  Biso   1.000  H
  O17      1.0000 0.66080  0.49899  0.54459  Biso   1.000  O
  H104     1.0000 0.69302  0.66196  0.60599  Biso   1.000  H
  H105     1.0000 0.76801  0.49602  0.61098  Biso   1.000  H
  O18      1.0000 0.33921  0.49899  0.45540  Biso   1.000  O
  H106     1.0000 0.29897  0.52297  0.52999  Biso   1.000  H
  H107     1.0000 0.22797  0.62398  0.47601  Biso   1.000  H
  C51      1.0000 0.45228  0.14647  0.50621  Biso   1.000  C
  C52      1.0000 0.69948  0.59145  0.50799  Biso   1.000  C
  C53      1.0000 0.30370  0.53638  0.39968  Biso   1.000  C
  C54      1.0000 0.54772  0.14647  0.49379  Biso   1.000  C
  H108     1.0000 0.39698  0.16605  0.47200  Biso   1.000  H
  H109     1.0000 0.43802  0.03205  0.52601  Biso   1.000  H
  C55      1.0000 0.64409  0.74125  0.49261  Biso   1.000  C
  H110     1.0000 0.70103  0.52297  0.47001  Biso   1.000  H
  H111     1.0000 0.77198  0.62398  0.52402  Biso   1.000  H
  C56      1.0000 0.36157  0.44641  0.36628  Biso   1.000  C
  H112     1.0000 0.30698  0.66196  0.39400  Biso   1.000  H
  H113     1.0000 0.23200  0.49602  0.38901  Biso   1.000  H
  O19      1.0000 0.55699  0.26576  0.45471  Biso   1.000  O
  H114     1.0000 0.60303  0.16605  0.52800  Biso   1.000  H
  H115     1.0000 0.56199  0.03205  0.47398  Biso   1.000  H
  O20      1.0000 0.56022  0.71537  0.45349  Biso   1.000  O
  H116     1.0000 0.62498  0.78599  0.52901  Biso   1.000  H
  H117     1.0000 0.68500  0.82694  0.47601  Biso   1.000  H
  N8       1.0000 0.46213  0.49531  0.38422  Biso   1.000  N
  H118     1.0000 0.35500  0.32202  0.36900  Biso   1.000  H
  H119     1.0000 0.34202  0.48499  0.32298  Biso   1.000  H
  C57      1.0000 0.52920  0.22125  0.40102  Biso   1.000  C
  C58      1.0000 0.57319  0.71858  0.39952  Biso   1.000  C
  C59      1.0000 0.52679  0.36665  0.36640  Biso   1.000  C
  C60      1.0000 0.48238  0.65674  0.36661  Biso   1.000  C
  H120     1.0000 0.49400  0.48000  0.42399  Biso   1.000  H
  H121     1.0000 0.46499  0.15798  0.39298  Biso   1.000  H
  H122     1.0000 0.58396  0.13602  0.38998  Biso   1.000  H
  H123     1.0000 0.58398  0.84095  0.38499  Biso   1.000  H
  H124     1.0000 0.63097  0.64700  0.38998  Biso   1.000  H
  H125     1.0000 0.50097  0.33496  0.32400  Biso   1.000  H
  H126     1.0000 0.59599  0.41401  0.37002  Biso   1.000  H
  H127     1.0000 0.48899  0.65496  0.32400  Biso   1.000  H
  H128     1.0000 0.43103  0.73697  0.37302  Biso   1.000  H
  C61      1.0000 0.13837  0.94635  0.63371  Biso   1.000  C
  N9       1.0000 0.03789  0.99525  0.61581  Biso   1.000  N
  H129     1.0000 0.14501  0.82196  0.63099  Biso   1.000  H
  H130     1.0000 0.15798  0.98504  0.67701  Biso   1.000  H
  C62      1.0000 0.19630  0.03644  0.60031  Biso   1.000  C
  C63      1.0000 0.97321  0.86671  0.63359  Biso   1.000  C
  H131     1.0000 0.00600  0.98006  0.57600  Biso   1.000  H
  C64      1.0000 0.01763  0.15668  0.63339  Biso   1.000  C
  O21      1.0000 0.16080  0.99905  0.54459  Biso   1.000  O
  H132     1.0000 0.26801  0.99596  0.61098  Biso   1.000  H
  H133     1.0000 0.19302  0.16202  0.60599  Biso   1.000  H
  C65      1.0000 0.97082  0.72119  0.59901  Biso   1.000  C
  H134     1.0000 0.99897  0.83501  0.67600  Biso   1.000  H
  H135     1.0000 0.90403  0.91395  0.63002  Biso   1.000  H
  C66      1.0000 0.92683  0.21864  0.60052  Biso   1.000  C
  H136     1.0000 0.01101  0.15501  0.67600  Biso   1.000  H
  H137     1.0000 0.06899  0.23703  0.62701  Biso   1.000  H
  C67      1.0000 0.19948  0.09151  0.50799  Biso   1.000  C
  O22      1.0000 0.94301  0.76582  0.54528  Biso   1.000  O
  H138     1.0000 0.03501  0.65804  0.60701  Biso   1.000  H
  H139     1.0000 0.91597  0.63596  0.61001  Biso   1.000  H
  O23      1.0000 0.93978  0.21543  0.54650  Biso   1.000  O
  H140     1.0000 0.91603  0.34101  0.61500  Biso   1.000  H
  H141     1.0000 0.86903  0.14694  0.61001  Biso   1.000  H
  C68      1.0000 0.14409  0.24131  0.49261  Biso   1.000  C
  H142     1.0000 0.20103  0.02303  0.47001  Biso   1.000  H
  H143     1.0000 0.27198  0.12404  0.52402  Biso   1.000  H
  C69      1.0000 0.95228  0.64653  0.50621  Biso   1.000  C
  C70      1.0000 0.85591  0.24131  0.50738  Biso   1.000  C
  O24      1.0000 0.06022  0.21543  0.45349  Biso   1.000  O
  H144     1.0000 0.12498  0.28605  0.52901  Biso   1.000  H
  H145     1.0000 0.18500  0.32700  0.47601  Biso   1.000  H
  C71      1.0000 0.04772  0.64653  0.49379  Biso   1.000  C
  H146     1.0000 0.89698  0.66599  0.47200  Biso   1.000  H
  H147     1.0000 0.93802  0.53199  0.52601  Biso   1.000  H
  C72      1.0000 0.80053  0.09151  0.49200  Biso   1.000  C
  H148     1.0000 0.87502  0.28605  0.47098  Biso   1.000  H
  H149     1.0000 0.81502  0.32700  0.52402  Biso   1.000  H
  C73      1.0000 0.07319  0.21864  0.39952  Biso   1.000  C
  O25      1.0000 0.05699  0.76582  0.45471  Biso   1.000  O
  H150     1.0000 0.10303  0.66599  0.52800  Biso   1.000  H
  H151     1.0000 0.06199  0.53199  0.47398  Biso   1.000  H
  O26      1.0000 0.83921  0.99905  0.45540  Biso   1.000  O
  H152     1.0000 0.79897  0.02303  0.52999  Biso   1.000  H
  H153     1.0000 0.72797  0.12404  0.47601  Biso   1.000  H
  C74      1.0000 0.98238  0.15668  0.36661  Biso   1.000  C
  H154     1.0000 0.08398  0.34101  0.38499  Biso   1.000  H
  H155     1.0000 0.13097  0.14694  0.38998  Biso   1.000  H
  C75      1.0000 0.02920  0.72119  0.40102  Biso   1.000  C
  C76      1.0000 0.80370  0.03644  0.39968  Biso   1.000  C
  N10      1.0000 0.96213  0.99525  0.38422  Biso   1.000  N
  H156     1.0000 0.98899  0.15501  0.32400  Biso   1.000  H
  H157     1.0000 0.93103  0.23703  0.37302  Biso   1.000  H
  C77      1.0000 0.02679  0.86671  0.36640  Biso   1.000  C
  H158     1.0000 0.08396  0.63596  0.38998  Biso   1.000  H
  H159     1.0000 0.96499  0.65804  0.39298  Biso   1.000  H
  C78      1.0000 0.86157  0.94635  0.36628  Biso   1.000  C
  H160     1.0000 0.73200  0.99596  0.38901  Biso   1.000  H
  H161     1.0000 0.80698  0.16202  0.39400  Biso   1.000  H
  H162     1.0000 0.99400  0.98006  0.42399  Biso   1.000  H
  H163     1.0000 0.00097  0.83501  0.32400  Biso   1.000  H
  H164     1.0000 0.09599  0.91395  0.37002  Biso   1.000  H
  H165     1.0000 0.85500  0.82196  0.36900  Biso   1.000  H
  H166     1.0000 0.84202  0.98504  0.32298  Biso   1.000  H
