data_image0
_cell_length_a       10.953
_cell_length_b       11.75
_cell_length_c       23.617
_cell_angle_alpha    87.74
_cell_angle_beta     77.76
_cell_angle_gamma    86.59

_symmetry_space_group_name_H-M    "P 1"
_symmetry_int_tables_number       1

loop_
  _symmetry_equiv_pos_as_xyz
  'x, y, z'

loop_
  _atom_site_label
  _atom_site_occupancy
  _atom_site_fract_x
  _atom_site_fract_y
  _atom_site_fract_z
  _atom_site_thermal_displace_type
  _atom_site_B_iso_or_equiv
  _atom_site_type_symbol
  C1       1.0000 0.58612  0.67096  0.49975  Biso   1.000  C
  C2       1.0000 0.49193  0.71387  0.47253  Biso   1.000  C
  H1       1.0000 0.63919  0.60814  0.48372  Biso   1.000  H
  C3       1.0000 0.60459  0.71991  0.55159  Biso   1.000  C
  O1       1.0000 0.46583  0.67300  0.42269  Biso   1.000  O
  C4       1.0000 0.41060  0.81042  0.49537  Biso   1.000  C
  C5       1.0000 0.70142  0.67679  0.58107  Biso   1.000  C
  C6       1.0000 0.52239  0.81390  0.57448  Biso   1.000  C
  C7       1.0000 0.54024  0.57351  0.39902  Biso   1.000  C
  C8       1.0000 0.42602  0.85873  0.54496  Biso   1.000  C
  O2       1.0000 0.32060  0.84549  0.46347  Biso   1.000  O
  H2       1.0000 0.75601  0.61454  0.56559  Biso   1.000  H
  C9       1.0000 0.71521  0.72523  0.63121  Biso   1.000  C
  C10      1.0000 0.53961  0.86164  0.62662  Biso   1.000  C
  C11      1.0000 0.49617  0.55157  0.34432  Biso   1.000  C
  H3       1.0000 0.63043  0.58848  0.39018  Biso   1.000  H
  H4       1.0000 0.52614  0.50748  0.42650  Biso   1.000  H
  H5       1.0000 0.37324  0.92219  0.56009  Biso   1.000  H
  C12      1.0000 0.24381  0.94802  0.48133  Biso   1.000  C
  H6       1.0000 0.77910  0.69666  0.65042  Biso   1.000  H
  C13      1.0000 0.63390  0.81770  0.65397  Biso   1.000  C
  H7       1.0000 0.48627  0.92402  0.64292  Biso   1.000  H
  O3       1.0000 0.56530  0.45032  0.32165  Biso   1.000  O
  H8       1.0000 0.51334  0.61643  0.31628  Biso   1.000  H
  H9       1.0000 0.40519  0.54019  0.35299  Biso   1.000  H
  C14      1.0000 0.16269  0.97572  0.43742  Biso   1.000  C
  H10      1.0000 0.19054  0.93560  0.52030  Biso   1.000  H
  H11      1.0000 0.29758  0.01213  0.48298  Biso   1.000  H
  H12      1.0000 0.64358  0.85078  0.68869  Biso   1.000  H
  C15      1.0000 0.55445  0.42131  0.26695  Biso   1.000  C
  O4       1.0000 0.05828  0.89957  0.44718  Biso   1.000  O
  H13      1.0000 0.21350  0.96636  0.39768  Biso   1.000  H
  H14      1.0000 0.12977  0.05600  0.44111  Biso   1.000  H
  C16      1.0000 0.47686  0.48214  0.23466  Biso   1.000  C
  C17      1.0000 0.62971  0.32637  0.24420  Biso   1.000  C
  C18      1.0000 0.98089  0.90261  0.40674  Biso   1.000  C
  C19      1.0000 0.47656  0.45129  0.17771  Biso   1.000  C
  H15      1.0000 0.42424  0.54458  0.25139  Biso   1.000  H
  C20      1.0000 0.62865  0.29508  0.18898  Biso   1.000  C
  H16      1.0000 0.68066  0.28457  0.26661  Biso   1.000  H
  C21      1.0000 0.01162  0.95745  0.35282  Biso   1.000  C
  C22      1.0000 0.86888  0.84228  0.42191  Biso   1.000  C
  C23      1.0000 0.39721  0.52751  0.14134  Biso   1.000  C
  C24      1.0000 0.55336  0.35657  0.15556  Biso   1.000  C
  H17      1.0000 0.67940  0.23098  0.17298  Biso   1.000  H
  C25      1.0000 0.93389  0.95008  0.31259  Biso   1.000  C
  H18      1.0000 0.08482  0.99976  0.34298  Biso   1.000  H
  C26      1.0000 0.78913  0.83961  0.38303  Biso   1.000  C
  H19      1.0000 0.84841  0.80372  0.45849  Biso   1.000  H
  C27      1.0000 0.25468  0.52657  0.16826  Biso   1.000  C
  C28      1.0000 0.44562  0.64805  0.13844  Biso   1.000  C
  C29      1.0000 0.41774  0.48529  0.07876  Biso   1.000  C
  H20      1.0000 0.55453  0.33340  0.11729  Biso   1.000  H
  C30      1.0000 0.97049  0.00690  0.25196  Biso   1.000  C
  C31      1.0000 0.82013  0.89208  0.32868  Biso   1.000  C
  H21      1.0000 0.71318  0.80168  0.39391  Biso   1.000  H
  C32      1.0000 0.18509  0.46046  0.21147  Biso   1.000  C
  N1       1.0000 0.16620  0.59708  0.14607  Biso   1.000  N
  C33      1.0000 0.54429  0.69828  0.10034  Biso   1.000  C
  N2       1.0000 0.40257  0.72308  0.18261  Biso   1.000  N
  H22      1.0000 0.50685  0.48585  0.06051  Biso   1.000  H
  H23      1.0000 0.38964  0.40749  0.07958  Biso   1.000  H
  H24      1.0000 0.36964  0.53568  0.05652  Biso   1.000  H
  C34      1.0000 0.94049  0.93135  0.20649  Biso   1.000  C
  C35      1.0000 0.88943  0.12042  0.25265  Biso   1.000  C
  C36      1.0000 0.11320  0.03166  0.23549  Biso   1.000  C
  H25      1.0000 0.76612  0.88942  0.30219  Biso   1.000  H
  C37      1.0000 0.05141  0.49189  0.21511  Biso   1.000  C
  H26      1.0000 0.21797  0.40420  0.23488  Biso   1.000  H
  C38      1.0000 0.04216  0.57639  0.17402  Biso   1.000  C
  H27      1.0000 0.18621  0.64831  0.11789  Biso   1.000  H
  H28      1.0000 0.59199  0.66597  0.06580  Biso   1.000  H
  C39      1.0000 0.56108  0.80581  0.12210  Biso   1.000  C
  C40      1.0000 0.47300  0.82000  0.17337  Biso   1.000  C
  H29      1.0000 0.34007  0.71159  0.21208  Biso   1.000  H
  N3       1.0000 0.96096  0.81426  0.20861  Biso   1.000  N
  C41      1.0000 0.89982  0.95787  0.15595  Biso   1.000  C
  H30      1.0000 0.80060  0.10404  0.26232  Biso   1.000  H
  H31      1.0000 0.90790  0.17034  0.28178  Biso   1.000  H
  H32      1.0000 0.90897  0.15856  0.21438  Biso   1.000  H
  N4       1.0000 0.20775  0.94565  0.23518  Biso   1.000  N
  C42      1.0000 0.17488  0.12919  0.21676  Biso   1.000  C
  H33      1.0000 0.98346  0.45936  0.24129  Biso   1.000  H
  C43      1.0000 0.92639  0.63904  0.15690  Biso   1.000  C
  H34      1.0000 0.62140  0.85850  0.10481  Biso   1.000  H
  C44      1.0000 0.45155  0.91433  0.21694  Biso   1.000  C
  C45      1.0000 0.93155  0.76689  0.16072  Biso   1.000  C
  H35      1.0000 0.98862  0.77550  0.23640  Biso   1.000  H
  C46      1.0000 0.89399  0.85548  0.12747  Biso   1.000  C
  H36      1.0000 0.87926  0.03234  0.14260  Biso   1.000  H
  C47      1.0000 0.32888  0.98808  0.21694  Biso   1.000  C
  H37      1.0000 0.19364  0.87393  0.24511  Biso   1.000  H
  C48      1.0000 0.30954  0.10170  0.20484  Biso   1.000  C
  H38      1.0000 0.13618  0.20258  0.21230  Biso   1.000  H
  C49      1.0000 0.92193  0.61080  0.09432  Biso   1.000  C
  C50      1.0000 0.80062  0.60063  0.19713  Biso   1.000  C
  C51      1.0000 0.56703  0.99093  0.20207  Biso   1.000  C
  C52      1.0000 0.44737  0.86197  0.27853  Biso   1.000  C
  H39      1.0000 0.86884  0.84898  0.09172  Biso   1.000  H
  H40      1.0000 0.37293  0.15385  0.19110  Biso   1.000  H
  H41      1.0000 0.99934  0.63276  0.06809  Biso   1.000  H
  H42      1.0000 0.91321  0.52865  0.09189  Biso   1.000  H
  H43      1.0000 0.85034  0.65275  0.08309  Biso   1.000  H
  H44      1.0000 0.72974  0.64444  0.18629  Biso   1.000  H
  H45      1.0000 0.79214  0.51920  0.19249  Biso   1.000  H
  H46      1.0000 0.80192  0.61446  0.23770  Biso   1.000  H
  H47      1.0000 0.64354  0.94414  0.20320  Biso   1.000  H
  H48      1.0000 0.57273  0.02560  0.16319  Biso   1.000  H
  H49      1.0000 0.55694  0.05128  0.23050  Biso   1.000  H
  H50      1.0000 0.52535  0.81685  0.27900  Biso   1.000  H
  H51      1.0000 0.43751  0.92322  0.30631  Biso   1.000  H
  H52      1.0000 0.37647  0.81263  0.28910  Biso   1.000  H
  C53      1.0000 0.41397  0.32897  0.50027  Biso   1.000  C
  C54      1.0000 0.39553  0.27994  0.44839  Biso   1.000  C
  C55      1.0000 0.50818  0.28606  0.52745  Biso   1.000  C
  H53      1.0000 0.36091  0.39170  0.51631  Biso   1.000  H
  C56      1.0000 0.29880  0.32305  0.41892  Biso   1.000  C
  C57      1.0000 0.47773  0.18594  0.42550  Biso   1.000  C
  C58      1.0000 0.58952  0.18942  0.50461  Biso   1.000  C
  O5       1.0000 0.53428  0.32693  0.57729  Biso   1.000  O
  C59      1.0000 0.28491  0.27470  0.36877  Biso   1.000  C
  H54      1.0000 0.24411  0.38531  0.43439  Biso   1.000  H
  C60      1.0000 0.46049  0.13829  0.37341  Biso   1.000  C
  C61      1.0000 0.57410  0.14112  0.45502  Biso   1.000  C
  O6       1.0000 0.67953  0.15436  0.53651  Biso   1.000  O
  C62      1.0000 0.45988  0.42634  0.60096  Biso   1.000  C
  C63      1.0000 0.36622  0.18214  0.34601  Biso   1.000  C
  H55      1.0000 0.22099  0.30327  0.34961  Biso   1.000  H
  H56      1.0000 0.51383  0.07583  0.35711  Biso   1.000  H
  H57      1.0000 0.62688  0.07766  0.43990  Biso   1.000  H
  C64      1.0000 0.75641  0.05182  0.51865  Biso   1.000  C
  C65      1.0000 0.50395  0.44836  0.65566  Biso   1.000  C
  H58      1.0000 0.36969  0.41145  0.60980  Biso   1.000  H
  H59      1.0000 0.47397  0.49245  0.57348  Biso   1.000  H
  H60      1.0000 0.35654  0.14907  0.31129  Biso   1.000  H
  H61      1.0000 0.80958  0.06425  0.47968  Biso   1.000  H
  C66      1.0000 0.83744  0.02413  0.56256  Biso   1.000  C
  H62      1.0000 0.70254  0.98771  0.51700  Biso   1.000  H
  H63      1.0000 0.48678  0.38341  0.68370  Biso   1.000  H
  H64      1.0000 0.59502  0.45974  0.64699  Biso   1.000  H
  O7       1.0000 0.43481  0.54961  0.67833  Biso   1.000  O
  H65      1.0000 0.78662  0.03357  0.60230  Biso   1.000  H
  O8       1.0000 0.94185  0.10028  0.55281  Biso   1.000  O
  H66      1.0000 0.87033  0.94384  0.55892  Biso   1.000  H
  C67      1.0000 0.44566  0.57862  0.73303  Biso   1.000  C
  C68      1.0000 0.01923  0.09724  0.59324  Biso   1.000  C
  C69      1.0000 0.52326  0.51771  0.76532  Biso   1.000  C
  C70      1.0000 0.37041  0.67348  0.75578  Biso   1.000  C
  C71      1.0000 0.98850  0.04240  0.64716  Biso   1.000  C
  C72      1.0000 0.13131  0.15765  0.57812  Biso   1.000  C
  C73      1.0000 0.52354  0.54856  0.82232  Biso   1.000  C
  H67      1.0000 0.57588  0.45527  0.74859  Biso   1.000  H
  H68      1.0000 0.31947  0.71527  0.73338  Biso   1.000  H
  C74      1.0000 0.37148  0.70476  0.81100  Biso   1.000  C
  H69      1.0000 0.91531  0.00009  0.65700  Biso   1.000  H
  C75      1.0000 0.06623  0.04986  0.68739  Biso   1.000  C
  C76      1.0000 0.21097  0.16024  0.61700  Biso   1.000  C
  H70      1.0000 0.15171  0.19612  0.54149  Biso   1.000  H
  C77      1.0000 0.60291  0.47242  0.85864  Biso   1.000  C
  C78      1.0000 0.44677  0.64328  0.84442  Biso   1.000  C
  H71      1.0000 0.32072  0.76886  0.82700  Biso   1.000  H
  C79      1.0000 0.02961  0.99303  0.74807  Biso   1.000  C
  C80      1.0000 0.17997  0.10785  0.67135  Biso   1.000  C
  H72      1.0000 0.28701  0.19825  0.60612  Biso   1.000  H
  C81      1.0000 0.74542  0.47328  0.83177  Biso   1.000  C
  C82      1.0000 0.55448  0.35179  0.86159  Biso   1.000  C
  C83      1.0000 0.58238  0.51456  0.92123  Biso   1.000  C
  H73      1.0000 0.44559  0.66653  0.88269  Biso   1.000  H
  C84      1.0000 0.88692  0.96818  0.76450  Biso   1.000  C
  C85      1.0000 0.11069  0.87942  0.74733  Biso   1.000  C
  C86      1.0000 0.05961  0.06850  0.79354  Biso   1.000  C
  H74      1.0000 0.23400  0.11042  0.69779  Biso   1.000  H
  C87      1.0000 0.81501  0.53939  0.78855  Biso   1.000  C
  N5       1.0000 0.83393  0.40276  0.85391  Biso   1.000  N
  C88      1.0000 0.45582  0.30156  0.89968  Biso   1.000  C
  N6       1.0000 0.59762  0.27677  0.81742  Biso   1.000  N
  H75      1.0000 0.49328  0.51400  0.93947  Biso   1.000  H
  H76      1.0000 0.61048  0.59236  0.92040  Biso   1.000  H
  H77      1.0000 0.63047  0.46416  0.94351  Biso   1.000  H
  N7       1.0000 0.79237  0.05419  0.76480  Biso   1.000  N
  C89      1.0000 0.82532  0.87075  0.78322  Biso   1.000  C
  H78      1.0000 0.19950  0.89580  0.73771  Biso   1.000  H
  H79      1.0000 0.09232  0.82950  0.71820  Biso   1.000  H
  H80      1.0000 0.09116  0.84129  0.78560  Biso   1.000  H
  C90      1.0000 0.10030  0.04198  0.84403  Biso   1.000  C
  N8       1.0000 0.03916  0.18559  0.79137  Biso   1.000  N
  C91      1.0000 0.94870  0.50804  0.78487  Biso   1.000  C
  H81      1.0000 0.78214  0.59573  0.76510  Biso   1.000  H
  C92      1.0000 0.95805  0.42346  0.82596  Biso   1.000  C
  H82      1.0000 0.81390  0.35162  0.88209  Biso   1.000  H
  H83      1.0000 0.40813  0.33388  0.93419  Biso   1.000  H
  C93      1.0000 0.43904  0.19412  0.87788  Biso   1.000  C
  C94      1.0000 0.52711  0.17993  0.82661  Biso   1.000  C
  H84      1.0000 0.66005  0.28834  0.78790  Biso   1.000  H
  C95      1.0000 0.67124  0.01177  0.78305  Biso   1.000  C
  H85      1.0000 0.80646  0.12592  0.75492  Biso   1.000  H
  C96      1.0000 0.69058  0.89824  0.79514  Biso   1.000  C
  H86      1.0000 0.86394  0.79727  0.78768  Biso   1.000  H
  H87      1.0000 0.12086  0.96751  0.85738  Biso   1.000  H
  C97      1.0000 0.10613  0.14437  0.87251  Biso   1.000  C
  C98      1.0000 0.06856  0.23304  0.83926  Biso   1.000  C
  H88      1.0000 0.01149  0.22443  0.76359  Biso   1.000  H
  H89      1.0000 0.01666  0.54049  0.75869  Biso   1.000  H
  C99      1.0000 0.07373  0.36081  0.84308  Biso   1.000  C
  H90      1.0000 0.37871  0.14143  0.89518  Biso   1.000  H
  C100     1.0000 0.54857  0.08552  0.78305  Biso   1.000  C
  H91      1.0000 0.62719  0.84600  0.80888  Biso   1.000  H
  H92      1.0000 0.13126  0.15087  0.90831  Biso   1.000  H
  C101     1.0000 0.07819  0.38905  0.90567  Biso   1.000  C
  C102     1.0000 0.19950  0.39922  0.80285  Biso   1.000  C
  C103     1.0000 0.43307  0.00892  0.79796  Biso   1.000  C
  C104     1.0000 0.55274  0.13787  0.72150  Biso   1.000  C
  H93      1.0000 0.00078  0.36708  0.93189  Biso   1.000  H
  H94      1.0000 0.08691  0.47119  0.90809  Biso   1.000  H
  H95      1.0000 0.14978  0.34709  0.91689  Biso   1.000  H
  H96      1.0000 0.27038  0.35540  0.81369  Biso   1.000  H
  H97      1.0000 0.20797  0.48073  0.80749  Biso   1.000  H
  H98      1.0000 0.19820  0.38538  0.76229  Biso   1.000  H
  H99      1.0000 0.35658  0.05570  0.79679  Biso   1.000  H
  H100     1.0000 0.42738  0.97433  0.83679  Biso   1.000  H
  H101     1.0000 0.44318  0.94865  0.76948  Biso   1.000  H
  H102     1.0000 0.47477  0.18300  0.72098  Biso   1.000  H
  H103     1.0000 0.56259  0.07663  0.69372  Biso   1.000  H
  H104     1.0000 0.62365  0.18721  0.71088  Biso   1.000  H
