data_image0
_cell_length_a       18.207
_cell_length_b       21.478
_cell_length_c       11.911
_cell_angle_alpha    101.56
_cell_angle_beta     102.57
_cell_angle_gamma    105.16

_symmetry_space_group_name_H-M    "P 1"
_symmetry_int_tables_number       1

loop_
  _symmetry_equiv_pos_as_xyz
  'x, y, z'

loop_
  _atom_site_label
  _atom_site_occupancy
  _atom_site_fract_x
  _atom_site_fract_y
  _atom_site_fract_z
  _atom_site_thermal_displace_type
  _atom_site_B_iso_or_equiv
  _atom_site_type_symbol
  C1       1.0000 0.22659  0.46918  0.30751  Biso   1.000  C
  C2       1.0000 0.25838  0.42389  0.23857  Biso   1.000  C
  H1       1.0000 0.17602  0.47502  0.24796  Biso   1.000  H
  H2       1.0000 0.20802  0.44701  0.37403  Biso   1.000  H
  C3       1.0000 0.29251  0.54330  0.37851  Biso   1.000  C
  C4       1.0000 0.19712  0.35518  0.19404  Biso   1.000  C
  H3       1.0000 0.26900  0.44102  0.16301  Biso   1.000  H
  H4       1.0000 0.31301  0.42201  0.29302  Biso   1.000  H
  H5       1.0000 0.35099  0.53802  0.40104  Biso   1.000  H
  H6       1.0000 0.27799  0.56098  0.45996  Biso   1.000  H
  C5       1.0000 0.29259  0.58979  0.31609  Biso   1.000  C
  O1       1.0000 0.12593  0.35602  0.11732  Biso   1.000  O
  H7       1.0000 0.18400  0.33899  0.27004  Biso   1.000  H
  H8       1.0000 0.22099  0.32101  0.14602  Biso   1.000  H
  H9       1.0000 0.30699  0.57100  0.23499  Biso   1.000  H
  H10      1.0000 0.23398  0.59499  0.29401  Biso   1.000  H
  O2       1.0000 0.34758  0.65461  0.37520  Biso   1.000  O
  C6       1.0000 0.06409  0.29598  0.09004  Biso   1.000  C
  C7       1.0000 0.33680  0.70600  0.32933  Biso   1.000  C
  C8       1.0000 0.01360  0.28962  0.15809  Biso   1.000  C
  C9       1.0000 0.04998  0.24697  0.98954  Biso   1.000  C
  C10      1.0000 0.35272  0.71131  0.22167  Biso   1.000  C
  C11      1.0000 0.31680  0.75437  0.39228  Biso   1.000  C
  O3       1.0000 0.03139  0.34100  0.26396  Biso   1.000  O
  C12      1.0000 0.94689  0.23179  0.12662  Biso   1.000  C
  C13      1.0000 0.98468  0.18861  0.95243  Biso   1.000  C
  O4       1.0000 0.10719  0.25187  0.92552  Biso   1.000  O
  O5       1.0000 0.38003  0.66361  0.15809  Biso   1.000  O
  C14      1.0000 0.35209  0.77011  0.18357  Biso   1.000  C
  O6       1.0000 0.30314  0.74853  0.50494  Biso   1.000  O
  C15      1.0000 0.31201  0.81151  0.35901  Biso   1.000  C
  C16      1.0000 0.98749  0.38509  0.26083  Biso   1.000  C
  C17      1.0000 0.93570  0.18379  0.02584  Biso   1.000  C
  C18      1.0000 0.89000  0.22698  0.20611  Biso   1.000  C
  C19      1.0000 0.96880  0.13628  0.84164  Biso   1.000  C
  C20      1.0000 0.08951  0.27351  0.82081  Biso   1.000  C
  C21      1.0000 0.32379  0.61610  0.05007  Biso   1.000  C
  C22      1.0000 0.32811  0.81703  0.25144  Biso   1.000  C
  C23      1.0000 0.37009  0.77649  0.06742  Biso   1.000  C
  C24      1.0000 0.22387  0.72547  0.50467  Biso   1.000  C
  C25      1.0000 0.28771  0.86279  0.43368  Biso   1.000  C
  H11      1.0000 0.02500  0.43397  0.31699  Biso   1.000  H
  H12      1.0000 0.96800  0.38700  0.16998  Biso   1.000  H
  O7       1.0000 0.92062  0.36571  0.30116  Biso   1.000  O
  H13      1.0000 0.88500  0.13898  0.00098  Biso   1.000  H
  C26      1.0000 0.83059  0.25920  0.16578  Biso   1.000  C
  H14      1.0000 0.92301  0.25399  0.29803  Biso   1.000  H
  C27      1.0000 0.85420  0.15498  0.21407  Biso   1.000  C
  C28      1.0000 0.92429  0.15590  0.73765  Biso   1.000  C
  C29      1.0000 0.92768  0.06371  0.84468  Biso   1.000  C
  H15      1.0000 0.02498  0.13397  0.83002  Biso   1.000  H
  O8       1.0000 0.04887  0.22069  0.71655  Biso   1.000  O
  H16      1.0000 0.14501  0.30200  0.80900  Biso   1.000  H
  H17      1.0000 0.05301  0.30602  0.83306  Biso   1.000  H
  H18      1.0000 0.33801  0.57001  0.03800  Biso   1.000  H
  H19      1.0000 0.26402  0.60700  0.06000  Biso   1.000  H
  O9       1.0000 0.32711  0.63911  0.94903  Biso   1.000  O
  H20      1.0000 0.32199  0.85899  0.21898  Biso   1.000  H
  H21      1.0000 0.41402  0.75202  0.05598  Biso   1.000  H
  C30      1.0000 0.41089  0.84928  0.06706  Biso   1.000  C
  C31      1.0000 0.29400  0.74090  0.96388  Biso   1.000  C
  H22      1.0000 0.18902  0.69300  0.41704  Biso   1.000  H
  H23      1.0000 0.22100  0.69697  0.56897  Biso   1.000  H
  O10      1.0000 0.19348  0.77660  0.53454  Biso   1.000  O
  C32      1.0000 0.19813  0.84281  0.39174  Biso   1.000  C
  H24      1.0000 0.30702  0.86299  0.52604  Biso   1.000  H
  C33      1.0000 0.32928  0.93659  0.43269  Biso   1.000  C
  C34      1.0000 0.85008  0.32820  0.20870  Biso   1.000  C
  C35      1.0000 0.75931  0.22598  0.07770  Biso   1.000  C
  H25      1.0000 0.82298  0.12300  0.12501  Biso   1.000  H
  H26      1.0000 0.81302  0.15498  0.26700  Biso   1.000  H
  C36      1.0000 0.91751  0.12840  0.27076  Biso   1.000  C
  C37      1.0000 0.84240  0.13469  0.69678  Biso   1.000  C
  C38      1.0000 0.96490  0.20021  0.68301  Biso   1.000  C
  H27      1.0000 0.86899  0.05997  0.85300  Biso   1.000  H
  H28      1.0000 0.96199  0.05501  0.92203  Biso   1.000  H
  C39      1.0000 0.91988  0.00929  0.73693  Biso   1.000  C
  C40      1.0000 0.27450  0.67210  0.91622  Biso   1.000  C
  H29      1.0000 0.37498  0.87998  0.08897  Biso   1.000  H
  C41      1.0000 0.49319  0.87727  0.16167  Biso   1.000  C
  H30      1.0000 0.41800  0.84999  0.98006  Biso   1.000  H
  C42      1.0000 0.24069  0.77401  0.92239  Biso   1.000  C
  C43      1.0000 0.15319  0.79802  0.44163  Biso   1.000  C
  C44      1.0000 0.15760  0.86530  0.30331  Biso   1.000  C
  H31      1.0000 0.39202  0.94499  0.45201  Biso   1.000  H
  H32      1.0000 0.30701  0.94200  0.34399  Biso   1.000  H
  C45      1.0000 0.31673  0.98972  0.52104  Biso   1.000  C
  C46      1.0000 0.79992  0.36100  0.17186  Biso   1.000  C
  H33      1.0000 0.74401  0.17298  0.03997  Biso   1.000  H
  C47      1.0000 0.70600  0.25909  0.03621  Biso   1.000  C
  H34      1.0000 0.94298  0.15700  0.36304  Biso   1.000  H
  H35      1.0000 0.96299  0.13600  0.22498  Biso   1.000  H
  C48      1.0000 0.89128  0.05599  0.26852  Biso   1.000  C
  C49      1.0000 0.80187  0.15718  0.60835  Biso   1.000  C
  H36      1.0000 0.80902  0.09901  0.73407  Biso   1.000  H
  C50      1.0000 0.92708  0.22241  0.59807  Biso   1.000  C
  C51      1.0000 0.87363  0.94120  0.74364  Biso   1.000  C
  H37      1.0000 0.88902  0.01902  0.65807  Biso   1.000  H
  H38      1.0000 0.97796  0.00898  0.73201  Biso   1.000  H
  C52      1.0000 0.20006  0.63897  0.82814  Biso   1.000  C
  H39      1.0000 0.48497  0.87399  0.24796  Biso   1.000  H
  H40      1.0000 0.52898  0.84702  0.13797  Biso   1.000  H
  C53      1.0000 0.53690  0.94821  0.17222  Biso   1.000  C
  C54      1.0000 0.16939  0.74077  0.83422  Biso   1.000  C
  H41      1.0000 0.25597  0.82700  0.96003  Biso   1.000  H
  C55      1.0000 0.07293  0.77762  0.40202  Biso   1.000  C
  H42      1.0000 0.19100  0.90102  0.26602  Biso   1.000  H
  C56      1.0000 0.07571  0.84408  0.26244  Biso   1.000  C
  H43      1.0000 0.33000  0.97900  0.60697  Biso   1.000  H
  H44      1.0000 0.25498  0.98599  0.49198  Biso   1.000  H
  C57      1.0000 0.36400  0.06143  0.53794  Biso   1.000  C
  O11      1.0000 0.81837  0.43129  0.21317  Biso   1.000  O
  C58      1.0000 0.72548  0.32788  0.08378  Biso   1.000  C
  C59      1.0000 0.62991  0.22350  0.93267  Biso   1.000  C
  C60      1.0000 0.89378  0.03690  0.37412  Biso   1.000  C
  C61      1.0000 0.86600  0.00729  0.15907  Biso   1.000  C
  C62      1.0000 0.84681  0.20197  0.55846  Biso   1.000  C
  C63      1.0000 0.71227  0.13719  0.56632  Biso   1.000  C
  O12      1.0000 0.97169  0.26278  0.54004  Biso   1.000  O
  C64      1.0000 0.79600  0.91160  0.66915  Biso   1.000  C
  C65      1.0000 0.90474  0.90953  0.82474  Biso   1.000  C
  O13      1.0000 0.18161  0.56868  0.78683  Biso   1.000  O
  C66      1.0000 0.14990  0.67178  0.79130  Biso   1.000  C
  C67      1.0000 0.60898  0.96321  0.14450  Biso   1.000  C
  C68      1.0000 0.50788  0.99970  0.21362  Biso   1.000  C
  C69      1.0000 0.11000  0.77301  0.79398  Biso   1.000  C
  C70      1.0000 0.03510  0.79981  0.31699  Biso   1.000  C
  O14      1.0000 0.02829  0.73720  0.45996  Biso   1.000  O
  C71      1.0000 0.03118  0.86369  0.15836  Biso   1.000  C
  C72      1.0000 0.42641  0.07863  0.48804  Biso   1.000  C
  C73      1.0000 0.34291  0.11154  0.60491  Biso   1.000  C
  C74      1.0000 0.80351  0.45199  0.33129  Biso   1.000  C
  O15      1.0000 0.67289  0.36091  0.05097  Biso   1.000  O
  C75      1.0000 0.64791  0.22991  0.81643  Biso   1.000  C
  H45      1.0000 0.58598  0.24800  0.94402  Biso   1.000  H
  C76      1.0000 0.58909  0.15070  0.93294  Biso   1.000  C
  C77      1.0000 0.87112  0.96908  0.37037  Biso   1.000  C
  H46      1.0000 0.91300  0.07498  0.45898  Biso   1.000  H
  C78      1.0000 0.84328  0.93947  0.15532  Biso   1.000  C
  H47      1.0000 0.86402  0.02202  0.07699  Biso   1.000  H
  O16      1.0000 0.80647  0.22339  0.46555  Biso   1.000  O
  C79      1.0000 0.68799  0.18848  0.64108  Biso   1.000  C
  H48      1.0000 0.69298  0.13699  0.47404  Biso   1.000  H
  C80      1.0000 0.67070  0.06339  0.56731  Biso   1.000  C
  C81      1.0000 0.98280  0.33297  0.57822  Biso   1.000  C
  C82      1.0000 0.74949  0.85031  0.67586  Biso   1.000  C
  H49      1.0000 0.77204  0.93604  0.60603  Biso   1.000  H
  C83      1.0000 0.85819  0.84814  0.83145  Biso   1.000  C
  H50      1.0000 0.96503  0.93201  0.88206  Biso   1.000  H
  C84      1.0000 0.19647  0.54799  0.66871  Biso   1.000  C
  O17      1.0000 0.07936  0.63427  0.69884  Biso   1.000  O
  H51      1.0000 0.63200  0.92302  0.11204  Biso   1.000  H
  C85      1.0000 0.65211  0.02971  0.15827  Biso   1.000  C
  H52      1.0000 0.45201  0.98802  0.23499  Biso   1.000  H
  C86      1.0000 0.55100  0.06624  0.22730  Biso   1.000  C
  C87      1.0000 0.05310  0.76820  0.87347  Biso   1.000  C
  H53      1.0000 0.07699  0.74600  0.70206  Biso   1.000  H
  C88      1.0000 0.14578  0.84500  0.78593  Biso   1.000  C
  O18      1.0000 0.95113  0.77930  0.28354  Biso   1.000  O
  C89      1.0000 0.01718  0.66700  0.42178  Biso   1.000  C
  C90      1.0000 0.01532  0.81141  0.04757  Biso   1.000  C
  C91      1.0000 0.07228  0.93632  0.15541  Biso   1.000  C
  H54      1.0000 0.97500  0.86600  0.16998  Biso   1.000  H
  C92      1.0000 0.46792  0.14603  0.50512  Biso   1.000  C
  H55      1.0000 0.44301  0.04003  0.43600  Biso   1.000  H
  C93      1.0000 0.38442  0.17894  0.62199  Biso   1.000  C
  H56      1.0000 0.29499  0.09803  0.64399  Biso   1.000  H
  C94      1.0000 0.82862  0.52269  0.36992  Biso   1.000  C
  H57      1.0000 0.74098  0.43199  0.32199  Biso   1.000  H
  H58      1.0000 0.83599  0.43299  0.39496  Biso   1.000  H
  C95      1.0000 0.67619  0.38388  0.94993  Biso   1.000  C
  C96      1.0000 0.64728  0.28871  0.77833  Biso   1.000  C
  C97      1.0000 0.67190  0.18301  0.74865  Biso   1.000  C
  H59      1.0000 0.62500  0.11999  0.91103  Biso   1.000  H
  C98      1.0000 0.50679  0.12270  0.83833  Biso   1.000  C
  H60      1.0000 0.58200  0.15000  0.02003  Biso   1.000  H
  C99      1.0000 0.84578  0.92038  0.26092  Biso   1.000  C
  H61      1.0000 0.87303  0.95399  0.45201  Biso   1.000  H
  H62      1.0000 0.82400  0.90200  0.07100  Biso   1.000  H
  C100     1.0000 0.77611  0.27450  0.49533  Biso   1.000  C
  C101     1.0000 0.68318  0.24560  0.60772  Biso   1.000  C
  H63      1.0000 0.60798  0.05499  0.54808  Biso   1.000  H
  H64      1.0000 0.69297  0.05797  0.65601  Biso   1.000  H
  C102     1.0000 0.68328  0.01031  0.47905  Biso   1.000  C
  H65      1.0000 0.93901  0.34600  0.51902  Biso   1.000  H
  H66      1.0000 0.97699  0.34601  0.66808  Biso   1.000  H
  C103     1.0000 0.06410  0.37001  0.57786  Biso   1.000  C
  C104     1.0000 0.78060  0.81860  0.75705  Biso   1.000  C
  H67      1.0000 0.68903  0.82702  0.61801  Biso   1.000  H
  H68      1.0000 0.88201  0.82401  0.89404  Biso   1.000  H
  C105     1.0000 0.17137  0.47730  0.63017  Biso   1.000  C
  H69      1.0000 0.25900  0.56798  0.67801  Biso   1.000  H
  H70      1.0000 0.16399  0.56698  0.60504  Biso   1.000  H
  C106     1.0000 0.01251  0.61489  0.73926  Biso   1.000  C
  C107     1.0000 0.62309  0.08121  0.19967  Biso   1.000  C
  H71      1.0000 0.70799  0.04102  0.13699  Biso   1.000  H
  H72      1.0000 0.52902  0.10603  0.25904  Biso   1.000  H
  C108     1.0000 0.98640  0.71040  0.84191  Biso   1.000  C
  C109     1.0000 0.06430  0.81620  0.97425  Biso   1.000  C
  H73      1.0000 0.17697  0.87698  0.87508  Biso   1.000  H
  H74      1.0000 0.18696  0.84499  0.73300  Biso   1.000  H
  C110     1.0000 0.08248  0.87158  0.72924  Biso   1.000  C
  C111     1.0000 0.91048  0.72651  0.17919  Biso   1.000  C
  C112     1.0000 0.93592  0.63002  0.42223  Biso   1.000  C
  H75      1.0000 0.06097  0.65397  0.48098  Biso   1.000  H
  H76      1.0000 0.02302  0.65402  0.33201  Biso   1.000  H
  C113     1.0000 0.95000  0.75301  0.01046  Biso   1.000  C
  H77      1.0000 0.13099  0.94000  0.14700  Biso   1.000  H
  H78      1.0000 0.03801  0.94501  0.07797  Biso   1.000  H
  C114     1.0000 0.08010  0.99068  0.26307  Biso   1.000  C
  C115     1.0000 0.44678  0.19614  0.57209  Biso   1.000  C
  H79      1.0000 0.51599  0.15899  0.46596  Biso   1.000  H
  H80      1.0000 0.36803  0.21802  0.67403  Biso   1.000  H
  C116     1.0000 0.91952  0.55561  0.38959  Biso   1.000  C
  H81      1.0000 0.81601  0.53701  0.45397  Biso   1.000  H
  H82      1.0000 0.79600  0.54101  0.30402  Biso   1.000  H
  H83      1.0000 0.66197  0.42996  0.96200  Biso   1.000  H
  H84      1.0000 0.73596  0.39297  0.94000  Biso   1.000  H
  O19      1.0000 0.61995  0.33636  0.84191  Biso   1.000  O
  C117     1.0000 0.66320  0.29399  0.67076  Biso   1.000  C
  H85      1.0000 0.67799  0.14098  0.78102  Biso   1.000  H
  H86      1.0000 0.51501  0.12598  0.75204  Biso   1.000  H
  H87      1.0000 0.47101  0.15301  0.86203  Biso   1.000  H
  C118     1.0000 0.46310  0.05178  0.82787  Biso   1.000  C
  H88      1.0000 0.82799  0.86798  0.25797  Biso   1.000  H
  O20      1.0000 0.69687  0.25151  0.49515  Biso   1.000  O
  H89      1.0000 0.81098  0.30699  0.58304  Biso   1.000  H
  H90      1.0000 0.77899  0.30300  0.43103  Biso   1.000  H
  C119     1.0000 0.63601  0.93860  0.46215  Biso   1.000  C
  H91      1.0000 0.66998  0.02097  0.39303  Biso   1.000  H
  H92      1.0000 0.74500  0.01398  0.50802  Biso   1.000  H
  H93      1.0000 0.10701  0.35799  0.64108  Biso   1.000  H
  H94      1.0000 0.07002  0.35400  0.48907  Biso   1.000  H
  C120     1.0000 0.08046  0.44436  0.61041  Biso   1.000  C
  H95      1.0000 0.74500  0.77104  0.76206  Biso   1.000  H
  H96      1.0000 0.18399  0.46301  0.54603  Biso   1.000  H
  H97      1.0000 0.20400  0.45898  0.69607  Biso   1.000  H
  O21      1.0000 0.96859  0.65897  0.73604  Biso   1.000  O
  H98      1.0000 0.97498  0.56600  0.68301  Biso   1.000  H
  H99      1.0000 0.03198  0.61297  0.83002  Biso   1.000  H
  H100     1.0000 0.65598  0.13301  0.21004  Biso   1.000  H
  C121     1.0000 0.93591  0.70400  0.91005  Biso   1.000  C
  H101     1.0000 0.11498  0.86099  0.99902  Biso   1.000  H
  H102     1.0000 0.05701  0.84298  0.63705  Biso   1.000  H
  H103     1.0000 0.03700  0.86397  0.77502  Biso   1.000  H
  C122     1.0000 0.10872  0.94400  0.73157  Biso   1.000  C
  H104     1.0000 0.85497  0.69798  0.19100  Biso   1.000  H
  H105     1.0000 0.94701  0.69402  0.16703  Biso   1.000  H
  O22      1.0000 0.89279  0.74810  0.07448  Biso   1.000  O
  H106     1.0000 0.89299  0.64200  0.35901  Biso   1.000  H
  H107     1.0000 0.92998  0.64599  0.51102  Biso   1.000  H
  H108     1.0000 0.11099  0.98102  0.34202  Biso   1.000  H
  H109     1.0000 0.02202  0.99100  0.26799  Biso   1.000  H
  C123     1.0000 0.12637  0.05882  0.25636  Biso   1.000  C
  H110     1.0000 0.47901  0.24804  0.58497  Biso   1.000  H
  H111     1.0000 0.95400  0.54198  0.45996  Biso   1.000  H
  H112     1.0000 0.93402  0.54003  0.30804  Biso   1.000  H
  O23      1.0000 0.65240  0.34537  0.62480  Biso   1.000  O
  C124     1.0000 0.39100  0.03677  0.85550  Biso   1.000  C
  C125     1.0000 0.49207  0.00029  0.78647  Biso   1.000  C
  C126     1.0000 0.57361  0.92140  0.51205  Biso   1.000  C
  C127     1.0000 0.65712  0.88855  0.39518  Biso   1.000  C
  H113     1.0000 0.04598  0.45799  0.54004  Biso   1.000  H
  H114     1.0000 0.06599  0.46000  0.69205  Biso   1.000  H
  O24      1.0000 0.87408  0.64401  0.88277  Biso   1.000  O
  C128     1.0000 0.10622  0.96309  0.62597  Biso   1.000  C
  C129     1.0000 0.13398  0.99268  0.84093  Biso   1.000  C
  C130     1.0000 0.20401  0.08843  0.33094  Biso   1.000  C
  C131     1.0000 0.09526  0.09049  0.17526  Biso   1.000  C
  C132     1.0000 0.70740  0.41018  0.68391  Biso   1.000  C
  C133     1.0000 0.34789  0.97031  0.84173  Biso   1.000  C
  H115     1.0000 0.36801  0.07701  0.88805  Biso   1.000  H
  C134     1.0000 0.44901  0.93383  0.77270  Biso   1.000  C
  H116     1.0000 0.54799  0.01200  0.76501  Biso   1.000  H
  C135     1.0000 0.53209  0.85400  0.49497  Biso   1.000  C
  H117     1.0000 0.55699  0.95999  0.56400  Biso   1.000  H
  C136     1.0000 0.61559  0.82113  0.37801  Biso   1.000  C
  H118     1.0000 0.70503  0.90204  0.35601  Biso   1.000  H
  C137     1.0000 0.80288  0.64480  0.80605  Biso   1.000  C
  H119     1.0000 0.08699  0.92499  0.54102  Biso   1.000  H
  C138     1.0000 0.12887  0.03089  0.62963  Biso   1.000  C
  H120     1.0000 0.13598  0.97800  0.92301  Biso   1.000  H
  C139     1.0000 0.15672  0.06052  0.84477  Biso   1.000  C
  C140     1.0000 0.25052  0.14973  0.32423  Biso   1.000  C
  H121     1.0000 0.22798  0.06403  0.39397  Biso   1.000  H
  C141     1.0000 0.14184  0.15195  0.16864  Biso   1.000  C
  H122     1.0000 0.03498  0.06803  0.11803  Biso   1.000  H
  C142     1.0000 0.70749  0.45669  0.62158  Biso   1.000  C
  H123     1.0000 0.69299  0.42897  0.76501  Biso   1.000  H
  H124     1.0000 0.76602  0.40499  0.70608  Biso   1.000  H
  C143     1.0000 0.37691  0.91881  0.80033  Biso   1.000  C
  H125     1.0000 0.29201  0.95900  0.86301  Biso   1.000  H
  H126     1.0000 0.47099  0.89401  0.74105  Biso   1.000  H
  C144     1.0000 0.55323  0.80393  0.42791  Biso   1.000  C
  H127     1.0000 0.48400  0.84103  0.53404  Biso   1.000  H
  H128     1.0000 0.63199  0.78201  0.32606  Biso   1.000  H
  C145     1.0000 0.74160  0.57608  0.76143  Biso   1.000  C
  H129     1.0000 0.81600  0.66100  0.73005  Biso   1.000  H
  H130     1.0000 0.77901  0.67898  0.85407  Biso   1.000  H
  C146     1.0000 0.15422  0.07960  0.73917  Biso   1.000  C
  H131     1.0000 0.12698  0.04604  0.54808  Biso   1.000  H
  H132     1.0000 0.17600  0.09802  0.92900  Biso   1.000  H
  C147     1.0000 0.21942  0.18143  0.24304  Biso   1.000  C
  H133     1.0000 0.31097  0.17300  0.38199  Biso   1.000  H
  H134     1.0000 0.11798  0.17602  0.10596  Biso   1.000  H
  C148     1.0000 0.77341  0.53080  0.69258  Biso   1.000  C
  H135     1.0000 0.64902  0.46202  0.59905  Biso   1.000  H
  H136     1.0000 0.72200  0.43899  0.54004  Biso   1.000  H
  H137     1.0000 0.34404  0.86702  0.79005  Biso   1.000  H
  H138     1.0000 0.52100  0.75203  0.41503  Biso   1.000  H
  H139     1.0000 0.73101  0.55901  0.83708  Biso   1.000  H
  H140     1.0000 0.68699  0.57798  0.70707  Biso   1.000  H
  H141     1.0000 0.17199  0.13199  0.74203  Biso   1.000  H
  H142     1.0000 0.25503  0.22905  0.23803  Biso   1.000  H
  H143     1.0000 0.82398  0.52501  0.75204  Biso   1.000  H
  H144     1.0000 0.79198  0.55298  0.62605  Biso   1.000  H
