data_image0
_cell_length_a       12.008
_cell_length_b       19.63
_cell_length_c       20.882
_cell_angle_alpha    97.2
_cell_angle_beta     98.71
_cell_angle_gamma    96.9

_symmetry_space_group_name_H-M    "P 1"
_symmetry_int_tables_number       1

loop_
  _symmetry_equiv_pos_as_xyz
  'x, y, z'

loop_
  _atom_site_label
  _atom_site_occupancy
  _atom_site_fract_x
  _atom_site_fract_y
  _atom_site_fract_z
  _atom_site_thermal_displace_type
  _atom_site_B_iso_or_equiv
  _atom_site_type_symbol
  O1       1.0000 0.57284  0.41766  0.51980  Biso   1.000  O
  C1       1.0000 0.48200  0.38542  0.54390  Biso   1.000  C
  C2       1.0000 0.63506  0.47861  0.55849  Biso   1.000  C
  C3       1.0000 0.46479  0.31332  0.53391  Biso   1.000  C
  C4       1.0000 0.40770  0.42252  0.57372  Biso   1.000  C
  H1       1.0000 0.59395  0.51895  0.55320  Biso   1.000  H
  H2       1.0000 0.64838  0.47303  0.60531  Biso   1.000  H
  C5       1.0000 0.74259  0.48762  0.53352  Biso   1.000  C
  C6       1.0000 0.54571  0.27282  0.50203  Biso   1.000  C
  C7       1.0000 0.37085  0.28022  0.55414  Biso   1.000  C
  C8       1.0000 0.31536  0.38934  0.59503  Biso   1.000  C
  H3       1.0000 0.42085  0.47182  0.57960  Biso   1.000  H
  C9       1.0000 0.82927  0.49375  0.51212  Biso   1.000  C
  H4       1.0000 0.50236  0.23035  0.47470  Biso   1.000  H
  H5       1.0000 0.58251  0.30115  0.47294  Biso   1.000  H
  C10      1.0000 0.63669  0.25305  0.55232  Biso   1.000  C
  C11      1.0000 0.29749  0.31742  0.58460  Biso   1.000  C
  H6       1.0000 0.35613  0.23103  0.54694  Biso   1.000  H
  C12      1.0000 0.23834  0.42976  0.63102  Biso   1.000  C
  H7       1.0000 0.90312  0.49105  0.50301  Biso   1.000  H
  C13      1.0000 0.73663  0.29813  0.57534  Biso   1.000  C
  C14      1.0000 0.62183  0.19043  0.57740  Biso   1.000  C
  O2       1.0000 0.20313  0.28784  0.60663  Biso   1.000  O
  C15      1.0000 0.27258  0.43286  0.70404  Biso   1.000  C
  H8       1.0000 0.15842  0.40716  0.61731  Biso   1.000  H
  H9       1.0000 0.24328  0.47732  0.61971  Biso   1.000  H
  C16      1.0000 0.82001  0.28264  0.62304  Biso   1.000  C
  H10      1.0000 0.74841  0.34051  0.55810  Biso   1.000  H
  O3       1.0000 0.52087  0.14691  0.55252  Biso   1.000  O
  C17      1.0000 0.70658  0.17423  0.62382  Biso   1.000  C
  C18      1.0000 0.18331  0.21442  0.60071  Biso   1.000  C
  C19      1.0000 0.36684  0.47978  0.73793  Biso   1.000  C
  C20      1.0000 0.21603  0.38964  0.73974  Biso   1.000  C
  O4       1.0000 0.91885  0.32755  0.64831  Biso   1.000  O
  C21      1.0000 0.80581  0.22015  0.64733  Biso   1.000  C
  C22      1.0000 0.50410  0.08401  0.57843  Biso   1.000  C
  H11      1.0000 0.69637  0.13102  0.63974  Biso   1.000  H
  H12      1.0000 0.12661  0.20074  0.62833  Biso   1.000  H
  H13      1.0000 0.25492  0.19732  0.61721  Biso   1.000  H
  C23      1.0000 0.14378  0.18313  0.53621  Biso   1.000  C
  O5       1.0000 0.42100  0.52110  0.70027  Biso   1.000  O
  C24      1.0000 0.40006  0.48204  0.80390  Biso   1.000  C
  C25      1.0000 0.25183  0.39057  0.80571  Biso   1.000  C
  H14      1.0000 0.15072  0.35832  0.71810  Biso   1.000  H
  C26      1.0000 0.91887  0.39796  0.64141  Biso   1.000  C
  C27      1.0000 0.89351  0.20305  0.70091  Biso   1.000  C
  H15      1.0000 0.50683  0.09413  0.62583  Biso   1.000  H
  H16      1.0000 0.42981  0.05805  0.55791  Biso   1.000  H
  H17      1.0000 0.56419  0.05636  0.56951  Biso   1.000  H
  C28      1.0000 0.10999  0.15825  0.47960  Biso   1.000  C
  C29      1.0000 0.52973  0.55793  0.72931  Biso   1.000  C
  H18      1.0000 0.46328  0.51477  0.82604  Biso   1.000  H
  C30      1.0000 0.34358  0.43763  0.83950  Biso   1.000  C
  O6       1.0000 0.19357  0.34715  0.84107  Biso   1.000  O
  H19      1.0000 0.98627  0.42567  0.66922  Biso   1.000  H
  H20      1.0000 0.92016  0.40373  0.59552  Biso   1.000  H
  H21      1.0000 0.85005  0.41356  0.65463  Biso   1.000  H
  H22      1.0000 0.97022  0.22424  0.69591  Biso   1.000  H
  H23      1.0000 0.89243  0.15213  0.69650  Biso   1.000  H
  C31      1.0000 0.87011  0.22957  0.76810  Biso   1.000  C
  H24      1.0000 0.08505  0.14905  0.43381  Biso   1.000  H
  H25      1.0000 0.52237  0.59048  0.76751  Biso   1.000  H
  H26      1.0000 0.58068  0.52505  0.74303  Biso   1.000  H
  H27      1.0000 0.56151  0.58366  0.69733  Biso   1.000  H
  C32      1.0000 0.38455  0.44058  0.91223  Biso   1.000  C
  C33      1.0000 0.19030  0.27573  0.82060  Biso   1.000  C
  C34      1.0000 0.90793  0.29788  0.79562  Biso   1.000  C
  C35      1.0000 0.80746  0.18727  0.80272  Biso   1.000  C
  C36      1.0000 0.49154  0.40807  0.92531  Biso   1.000  C
  H28      1.0000 0.32427  0.41606  0.93182  Biso   1.000  H
  H29      1.0000 0.39932  0.48957  0.93334  Biso   1.000  H
  H30      1.0000 0.15752  0.24936  0.85175  Biso   1.000  H
  H31      1.0000 0.14353  0.26267  0.77701  Biso   1.000  H
  H32      1.0000 0.26786  0.26564  0.81874  Biso   1.000  H
  C37      1.0000 0.88426  0.32434  0.85581  Biso   1.000  C
  H33      1.0000 0.95126  0.32715  0.77261  Biso   1.000  H
  O7       1.0000 0.76760  0.12019  0.77285  Biso   1.000  O
  C38      1.0000 0.78794  0.21316  0.86424  Biso   1.000  C
  C39      1.0000 0.59980  0.44616  0.93231  Biso   1.000  C
  C40      1.0000 0.48464  0.33798  0.92893  Biso   1.000  C
  O8       1.0000 0.91648  0.39208  0.88431  Biso   1.000  O
  C41      1.0000 0.82468  0.28156  0.89171  Biso   1.000  C
  C42      1.0000 0.69140  0.07997  0.80473  Biso   1.000  C
  H34      1.0000 0.74823  0.18317  0.88823  Biso   1.000  H
  C43      1.0000 0.69644  0.41466  0.94362  Biso   1.000  C
  O9       1.0000 0.60403  0.51622  0.92712  Biso   1.000  O
  C44      1.0000 0.58105  0.30594  0.93912  Biso   1.000  C
  H35      1.0000 0.41199  0.31108  0.92423  Biso   1.000  H
  C45      1.0000 0.95587  0.44054  0.84504  Biso   1.000  C
  C46      1.0000 0.79536  0.31006  0.95675  Biso   1.000  C
  H36      1.0000 0.72953  0.07606  0.84871  Biso   1.000  H
  H37      1.0000 0.62372  0.10267  0.80782  Biso   1.000  H
  H38      1.0000 0.66876  0.03355  0.77932  Biso   1.000  H
  C47      1.0000 0.68875  0.34435  0.94725  Biso   1.000  C
  H39      1.0000 0.76931  0.44168  0.94911  Biso   1.000  H
  C48      1.0000 0.70160  0.54875  0.90591  Biso   1.000  C
  O10      1.0000 0.57947  0.23607  0.94318  Biso   1.000  O
  H40      1.0000 0.96174  0.48764  0.86854  Biso   1.000  H
  H41      1.0000 0.90213  0.43576  0.80390  Biso   1.000  H
  H42      1.0000 0.03072  0.43185  0.83563  Biso   1.000  H
  H43      1.0000 0.78368  0.27197  0.98285  Biso   1.000  H
  H44      1.0000 0.85968  0.34439  0.98123  Biso   1.000  H
  H45      1.0000 0.72325  0.51625  0.87134  Biso   1.000  H
  H46      1.0000 0.68173  0.59018  0.88652  Biso   1.000  H
  C49      1.0000 0.79903  0.57005  0.95831  Biso   1.000  C
  C50      1.0000 0.47589  0.19078  0.91884  Biso   1.000  C
  C51      1.0000 0.87588  0.58661  0.00156  Biso   1.000  C
  H47      1.0000 0.44196  0.20276  0.87623  Biso   1.000  H
  H48      1.0000 0.49282  0.14255  0.91125  Biso   1.000  H
  C52      1.0000 0.39225  0.19404  0.96341  Biso   1.000  C
  H49      1.0000 0.93814  0.60000  0.03667  Biso   1.000  H
  C53      1.0000 0.32439  0.19767  0.99774  Biso   1.000  C
  H50      1.0000 0.26899  0.20050  0.02560  Biso   1.000  H
  O11      1.0000 0.42748  0.58246  0.48023  Biso   1.000  O
  C54      1.0000 0.51822  0.61464  0.45609  Biso   1.000  C
  C55      1.0000 0.36524  0.52145  0.44150  Biso   1.000  C
  C56      1.0000 0.59253  0.57754  0.42631  Biso   1.000  C
  C57      1.0000 0.53544  0.68675  0.46613  Biso   1.000  C
  H51      1.0000 0.40636  0.48112  0.44683  Biso   1.000  H
  H52      1.0000 0.35194  0.52703  0.39473  Biso   1.000  H
  C58      1.0000 0.25764  0.51244  0.46652  Biso   1.000  C
  C59      1.0000 0.68496  0.61073  0.40501  Biso   1.000  C
  H53      1.0000 0.57945  0.52823  0.42039  Biso   1.000  H
  C60      1.0000 0.62947  0.71984  0.44590  Biso   1.000  C
  C61      1.0000 0.45460  0.72725  0.49801  Biso   1.000  C
  C62      1.0000 0.17105  0.50632  0.48792  Biso   1.000  C
  C63      1.0000 0.76190  0.57031  0.36902  Biso   1.000  C
  C64      1.0000 0.70273  0.68263  0.41539  Biso   1.000  C
  H54      1.0000 0.64419  0.76904  0.45310  Biso   1.000  H
  H55      1.0000 0.49788  0.76976  0.52534  Biso   1.000  H
  H56      1.0000 0.41773  0.69891  0.52710  Biso   1.000  H
  C65      1.0000 0.36355  0.74701  0.44772  Biso   1.000  C
  H57      1.0000 0.09712  0.50906  0.49703  Biso   1.000  H
  C66      1.0000 0.72773  0.56721  0.29600  Biso   1.000  C
  H58      1.0000 0.84182  0.59291  0.38273  Biso   1.000  H
  H59      1.0000 0.75703  0.52275  0.38033  Biso   1.000  H
  O12      1.0000 0.79711  0.71222  0.39340  Biso   1.000  O
  C67      1.0000 0.26369  0.70193  0.42470  Biso   1.000  C
  C68      1.0000 0.37847  0.80962  0.42259  Biso   1.000  C
  C69      1.0000 0.63341  0.52034  0.26211  Biso   1.000  C
  C70      1.0000 0.78420  0.61042  0.26029  Biso   1.000  C
  C71      1.0000 0.81700  0.78565  0.39933  Biso   1.000  C
  C72      1.0000 0.18022  0.71743  0.37700  Biso   1.000  C
  H60      1.0000 0.25182  0.65955  0.44194  Biso   1.000  H
  O13      1.0000 0.47936  0.85315  0.44752  Biso   1.000  O
  C73      1.0000 0.29366  0.82584  0.37621  Biso   1.000  C
  O14      1.0000 0.57932  0.47897  0.29977  Biso   1.000  O
  C74      1.0000 0.60016  0.51802  0.19609  Biso   1.000  C
  C75      1.0000 0.74842  0.60954  0.19433  Biso   1.000  C
  H61      1.0000 0.84950  0.64174  0.28189  Biso   1.000  H
  H62      1.0000 0.87362  0.79933  0.37171  Biso   1.000  H
  H63      1.0000 0.74539  0.80274  0.38283  Biso   1.000  H
  C76      1.0000 0.85645  0.81693  0.46383  Biso   1.000  C
  O15      1.0000 0.08146  0.67252  0.35173  Biso   1.000  O
  C77      1.0000 0.19442  0.77991  0.35271  Biso   1.000  C
  C78      1.0000 0.49621  0.91605  0.42161  Biso   1.000  C
  H64      1.0000 0.30386  0.86904  0.36030  Biso   1.000  H
  C79      1.0000 0.47050  0.44214  0.27073  Biso   1.000  C
  H65      1.0000 0.53695  0.48529  0.17400  Biso   1.000  H
  C80      1.0000 0.65672  0.56243  0.16049  Biso   1.000  C
  O16      1.0000 0.80667  0.65292  0.15897  Biso   1.000  O
  C81      1.0000 0.89023  0.84181  0.52039  Biso   1.000  C
  C82      1.0000 0.08146  0.60216  0.35863  Biso   1.000  C
  C83      1.0000 0.10672  0.79701  0.29913  Biso   1.000  C
  H66      1.0000 0.49349  0.90594  0.37421  Biso   1.000  H
  H67      1.0000 0.57051  0.94201  0.44213  Biso   1.000  H
  H68      1.0000 0.43613  0.94376  0.43053  Biso   1.000  H
  H69      1.0000 0.47788  0.40964  0.23253  Biso   1.000  H
  H70      1.0000 0.41963  0.47501  0.25701  Biso   1.000  H
  H71      1.0000 0.43881  0.41641  0.30271  Biso   1.000  H
  C84      1.0000 0.61569  0.55953  0.08781  Biso   1.000  C
  C85      1.0000 0.80991  0.72433  0.17939  Biso   1.000  C
  H72      1.0000 0.91519  0.85107  0.56623  Biso   1.000  H
  H73      1.0000 0.01406  0.57445  0.33082  Biso   1.000  H
  H74      1.0000 0.08016  0.59633  0.40452  Biso   1.000  H
  H75      1.0000 0.15019  0.58651  0.34541  Biso   1.000  H
  C86      1.0000 0.13012  0.77054  0.23189  Biso   1.000  C
  H76      1.0000 0.03009  0.77583  0.30413  Biso   1.000  H
  H77      1.0000 0.10787  0.84793  0.30349  Biso   1.000  H
  C87      1.0000 0.50868  0.59198  0.07468  Biso   1.000  C
  H78      1.0000 0.67596  0.58400  0.06822  Biso   1.000  H
  H79      1.0000 0.60100  0.51049  0.06670  Biso   1.000  H
  H80      1.0000 0.84271  0.75071  0.14829  Biso   1.000  H
  H81      1.0000 0.85670  0.73740  0.22303  Biso   1.000  H
  H82      1.0000 0.73245  0.73442  0.18130  Biso   1.000  H
  C88      1.0000 0.09231  0.70224  0.20442  Biso   1.000  C
  C89      1.0000 0.19285  0.81280  0.19731  Biso   1.000  C
  C90      1.0000 0.40051  0.55390  0.06768  Biso   1.000  C
  C91      1.0000 0.51559  0.66209  0.07111  Biso   1.000  C
  C92      1.0000 0.11606  0.67573  0.14423  Biso   1.000  C
  H83      1.0000 0.04905  0.67291  0.22738  Biso   1.000  H
  C93      1.0000 0.21229  0.78690  0.13580  Biso   1.000  C
  O17      1.0000 0.23263  0.87988  0.22719  Biso   1.000  O
  O18      1.0000 0.39628  0.48384  0.07287  Biso   1.000  O
  C94      1.0000 0.30379  0.58541  0.05642  Biso   1.000  C
  C95      1.0000 0.41919  0.69412  0.06092  Biso   1.000  C
  H84      1.0000 0.58832  0.68899  0.07581  Biso   1.000  H
  C96      1.0000 0.17562  0.71849  0.10828  Biso   1.000  C
  O19      1.0000 0.08384  0.60799  0.11572  Biso   1.000  O
  H85      1.0000 0.25200  0.81690  0.11181  Biso   1.000  H
  C97      1.0000 0.30883  0.92009  0.19531  Biso   1.000  C
  C98      1.0000 0.29872  0.45132  0.09413  Biso   1.000  C
  H86      1.0000 0.23099  0.55838  0.05088  Biso   1.000  H
  C99      1.0000 0.31148  0.65571  0.05279  Biso   1.000  C
  O20      1.0000 0.42083  0.76399  0.05681  Biso   1.000  O
  C100     1.0000 0.20487  0.69001  0.04329  Biso   1.000  C
  C101     1.0000 0.04444  0.55953  0.15500  Biso   1.000  C
  H87      1.0000 0.27079  0.92401  0.15133  Biso   1.000  H
  H88      1.0000 0.37651  0.89740  0.19222  Biso   1.000  H
  H89      1.0000 0.33147  0.96652  0.22072  Biso   1.000  H
  H90      1.0000 0.27698  0.48382  0.12870  Biso   1.000  H
  H91      1.0000 0.31860  0.40993  0.11352  Biso   1.000  H
  C102     1.0000 0.20129  0.43001  0.04173  Biso   1.000  C
  C103     1.0000 0.52443  0.80933  0.08120  Biso   1.000  C
  H92      1.0000 0.21664  0.72809  0.01719  Biso   1.000  H
  H93      1.0000 0.14056  0.65573  0.01881  Biso   1.000  H
  H94      1.0000 0.03850  0.51242  0.13149  Biso   1.000  H
  H95      1.0000 0.09809  0.56430  0.19609  Biso   1.000  H
  H96      1.0000 0.96951  0.56822  0.16440  Biso   1.000  H
  C104     1.0000 0.12434  0.41345  0.99843  Biso   1.000  C
  H97      1.0000 0.55836  0.79731  0.12381  Biso   1.000  H
  H98      1.0000 0.50741  0.85751  0.08879  Biso   1.000  H
  C105     1.0000 0.60797  0.80601  0.03658  Biso   1.000  C
  H99      1.0000 0.06218  0.40007  0.96337  Biso   1.000  H
  C106     1.0000 0.67593  0.80240  0.00230  Biso   1.000  C
  H100     1.0000 0.73133  0.79957  0.97444  Biso   1.000  H
  C107     1.0000 0.72134  0.35272  0.35800  Biso   1.000  C
  C108     1.0000 0.67790  0.27535  0.34213  Biso   1.000  C
  C109     1.0000 0.83320  0.37024  0.33361  Biso   1.000  C
  H101     1.0000 0.73271  0.36703  0.40599  Biso   1.000  H
  H102     1.0000 0.66383  0.37892  0.33733  Biso   1.000  H
  C110     1.0000 0.60553  0.24693  0.28361  Biso   1.000  C
  C111     1.0000 0.70661  0.23032  0.38669  Biso   1.000  C
  C112     1.0000 0.93711  0.36883  0.37220  Biso   1.000  C
  C113     1.0000 0.83128  0.38695  0.27053  Biso   1.000  C
  O21      1.0000 0.58183  0.29206  0.23933  Biso   1.000  O
  C114     1.0000 0.56032  0.17762  0.27210  Biso   1.000  C
  H103     1.0000 0.75604  0.24803  0.42680  Biso   1.000  H
  C115     1.0000 0.66420  0.16082  0.37362  Biso   1.000  C
  O22      1.0000 0.93383  0.35375  0.43488  Biso   1.000  O
  C116     1.0000 0.03743  0.38275  0.34810  Biso   1.000  C
  C117     1.0000 0.93205  0.39933  0.24580  Biso   1.000  C
  H104     1.0000 0.76081  0.38990  0.24423  Biso   1.000  H
  C118     1.0000 0.53047  0.26100  0.17498  Biso   1.000  C
  C119     1.0000 0.58919  0.13351  0.31691  Biso   1.000  C
  H105     1.0000 0.50853  0.15980  0.23292  Biso   1.000  H
  O23      1.0000 0.69065  0.11415  0.41652  Biso   1.000  O
  C120     1.0000 0.02816  0.32762  0.46691  Biso   1.000  C
  C121     1.0000 0.03683  0.39785  0.28493  Biso   1.000  C
  H106     1.0000 0.10795  0.38211  0.37543  Biso   1.000  H
  O24      1.0000 0.93626  0.41373  0.18341  Biso   1.000  O
  H107     1.0000 0.57288  0.22381  0.15951  Biso   1.000  H
  H108     1.0000 0.45119  0.24021  0.17498  Biso   1.000  H
  C122     1.0000 0.53112  0.31332  0.13179  Biso   1.000  C
  C123     1.0000 0.54106  0.05694  0.30099  Biso   1.000  C
  C124     1.0000 0.79254  0.13351  0.46202  Biso   1.000  C
  H109     1.0000 0.00973  0.31164  0.50722  Biso   1.000  H
  H110     1.0000 0.04650  0.28873  0.43812  Biso   1.000  H
  H111     1.0000 0.09379  0.36436  0.47783  Biso   1.000  H
  C125     1.0000 0.14681  0.40731  0.25721  Biso   1.000  C
  C126     1.0000 0.83184  0.40989  0.14139  Biso   1.000  C
  C127     1.0000 0.53093  0.35310  0.09413  Biso   1.000  C
  H112     1.0000 0.46304  0.05171  0.27582  Biso   1.000  H
  H113     1.0000 0.53627  0.03774  0.34232  Biso   1.000  H
  C128     1.0000 0.61351  0.01632  0.26201  Biso   1.000  C
  H114     1.0000 0.85541  0.15022  0.43973  Biso   1.000  H
  H115     1.0000 0.78338  0.17105  0.49630  Biso   1.000  H
  C129     1.0000 0.81749  0.07113  0.49130  Biso   1.000  C
  C130     1.0000 0.17459  0.33822  0.22861  Biso   1.000  C
  H116     1.0000 0.20969  0.43010  0.29242  Biso   1.000  H
  H117     1.0000 0.13876  0.43762  0.22268  Biso   1.000  H
  H118     1.0000 0.78696  0.44351  0.16000  Biso   1.000  H
  H119     1.0000 0.84598  0.42069  0.09849  Biso   1.000  H
  H120     1.0000 0.78985  0.36309  0.13639  Biso   1.000  H
  H121     1.0000 0.54002  0.38102  0.06200  Biso   1.000  H
  C131     1.0000 0.59823  0.01020  0.19369  Biso   1.000  C
  C132     1.0000 0.70183  0.98693  0.29389  Biso   1.000  C
  C133     1.0000 0.83418  0.02043  0.51344  Biso   1.000  C
  C134     1.0000 0.23584  0.29853  0.26720  Biso   1.000  C
  C135     1.0000 0.13207  0.31060  0.16362  Biso   1.000  C
  O25      1.0000 0.50861  0.03941  0.16460  Biso   1.000  O
  C136     1.0000 0.67088  0.97611  0.15980  Biso   1.000  C
  H122     1.0000 0.71245  0.98995  0.34022  Biso   1.000  H
  C137     1.0000 0.77432  0.95344  0.25990  Biso   1.000  C
  H123     1.0000 0.84776  0.97944  0.53141  Biso   1.000  H
  O26      1.0000 0.27649  0.32815  0.33086  Biso   1.000  O
  C138     1.0000 0.25498  0.23232  0.24159  Biso   1.000  C
  H124     1.0000 0.09048  0.33731  0.13629  Biso   1.000  H
  C139     1.0000 0.14955  0.24471  0.13811  Biso   1.000  C
  C140     1.0000 0.49288  0.03729  0.09599  Biso   1.000  C
  C141     1.0000 0.76083  0.94821  0.19203  Biso   1.000  C
  H125     1.0000 0.65897  0.97170  0.11342  Biso   1.000  H
  O27      1.0000 0.86316  0.92361  0.29061  Biso   1.000  O
  C142     1.0000 0.33975  0.28890  0.37200  Biso   1.000  C
  C143     1.0000 0.20991  0.20462  0.17709  Biso   1.000  C
  H126     1.0000 0.29894  0.20632  0.26852  Biso   1.000  H
  O28      1.0000 0.11006  0.21482  0.07400  Biso   1.000  O
  H127     1.0000 0.56150  0.06059  0.08370  Biso   1.000  H
  H128     1.0000 0.42791  0.06082  0.08188  Biso   1.000  H
  H129     1.0000 0.47830  0.98882  0.07488  Biso   1.000  H
  C144     1.0000 0.84547  0.91712  0.15461  Biso   1.000  C
  C145     1.0000 0.90188  0.94752  0.35751  Biso   1.000  C
  H130     1.0000 0.36678  0.31662  0.41510  Biso   1.000  H
  H131     1.0000 0.29104  0.24663  0.37670  Biso   1.000  H
  H132     1.0000 0.40510  0.27634  0.35251  Biso   1.000  H
  C146     1.0000 0.22561  0.13232  0.14991  Biso   1.000  C
  C147     1.0000 0.02219  0.24448  0.03791  Biso   1.000  C
  H133     1.0000 0.87503  0.87939  0.17640  Biso   1.000  H
  H134     1.0000 0.80754  0.89711  0.10960  Biso   1.000  H
  C148     1.0000 0.94355  0.97320  0.15192  Biso   1.000  C
  H135     1.0000 0.84414  0.93155  0.38292  Biso   1.000  H
  H136     1.0000 0.97269  0.92931  0.37181  Biso   1.000  H
  H137     1.0000 0.91600  0.99831  0.36471  Biso   1.000  H
  C149     1.0000 0.12461  0.07752  0.15162  Biso   1.000  C
  H138     1.0000 0.23799  0.13169  0.10412  Biso   1.000  H
  H139     1.0000 0.29484  0.11990  0.17542  Biso   1.000  H
  H140     1.0000 0.96177  0.25051  0.06391  Biso   1.000  H
  H141     1.0000 0.99094  0.21375  0.99687  Biso   1.000  H
  H142     1.0000 0.05384  0.28973  0.02821  Biso   1.000  H
  C150     1.0000 0.94330  0.01121  0.09951  Biso   1.000  C
  C151     1.0000 0.03297  0.98982  0.20393  Biso   1.000  C
  C152     1.0000 0.03397  0.06159  0.09981  Biso   1.000  C
  C153     1.0000 0.12184  0.04242  0.20461  Biso   1.000  C
  O29      1.0000 0.85298  0.99138  0.04868  Biso   1.000  O
  H143     1.0000 0.03346  0.96473  0.24002  Biso   1.000  H
  H144     1.0000 0.03464  0.08623  0.06342  Biso   1.000  H
  O30      1.0000 0.21093  0.06175  0.25652  Biso   1.000  O
  C154     1.0000 0.83499  0.03404  0.99882  Biso   1.000  C
  C155     1.0000 0.19683  0.03453  0.31500  Biso   1.000  C
  C156     1.0000 0.77619  0.09151  0.01699  Biso   1.000  C
  H145     1.0000 0.90962  0.05238  0.98834  Biso   1.000  H
  H146     1.0000 0.79033  0.00536  0.95876  Biso   1.000  H
  H147     1.0000 0.19921  0.98393  0.30863  Biso   1.000  H
  H148     1.0000 0.12250  0.04281  0.32700  Biso   1.000  H
  C157     1.0000 0.28900  0.06911  0.36662  Biso   1.000  C
  C158     1.0000 0.72472  0.13831  0.02791  Biso   1.000  C
  C159     1.0000 0.36102  0.09441  0.41001  Biso   1.000  C
  H149     1.0000 0.68342  0.17579  0.03668  Biso   1.000  H
  H150     1.0000 0.41965  0.11491  0.44532  Biso   1.000  H
  C160     1.0000 0.27889  0.64734  0.64204  Biso   1.000  C
  C161     1.0000 0.16712  0.62983  0.66643  Biso   1.000  C
  H151     1.0000 0.26759  0.63302  0.59400  Biso   1.000  H
  H152     1.0000 0.33648  0.62114  0.66271  Biso   1.000  H
  C162     1.0000 0.32242  0.72472  0.65791  Biso   1.000  C
  C163     1.0000 0.06321  0.63124  0.62784  Biso   1.000  C
  C164     1.0000 0.16896  0.61317  0.72951  Biso   1.000  C
  C165     1.0000 0.39471  0.75313  0.71643  Biso   1.000  C
  C166     1.0000 0.29369  0.76974  0.61330  Biso   1.000  C
  O31      1.0000 0.06649  0.64636  0.56515  Biso   1.000  O
  C167     1.0000 0.96290  0.61737  0.65194  Biso   1.000  C
  C168     1.0000 0.06819  0.60074  0.75424  Biso   1.000  C
  H153     1.0000 0.23951  0.61016  0.75581  Biso   1.000  H
  O32      1.0000 0.41839  0.70800  0.76066  Biso   1.000  O
  C169     1.0000 0.43991  0.82244  0.72794  Biso   1.000  C
  H154     1.0000 0.24419  0.75204  0.57323  Biso   1.000  H
  C170     1.0000 0.33612  0.83925  0.62642  Biso   1.000  C
  C171     1.0000 0.97208  0.67245  0.53313  Biso   1.000  C
  C172     1.0000 0.96350  0.60227  0.71511  Biso   1.000  C
  H155     1.0000 0.89228  0.61796  0.62461  Biso   1.000  H
  O33      1.0000 0.06397  0.58633  0.81663  Biso   1.000  O
  C173     1.0000 0.46984  0.73906  0.82501  Biso   1.000  C
  C174     1.0000 0.41113  0.86656  0.68313  Biso   1.000  C
  H156     1.0000 0.49171  0.84026  0.76712  Biso   1.000  H
  O34      1.0000 0.30958  0.88596  0.58347  Biso   1.000  O
  H157     1.0000 0.99058  0.68842  0.49282  Biso   1.000  H
  H158     1.0000 0.95382  0.71134  0.56192  Biso   1.000  H
  H159     1.0000 0.90645  0.63576  0.52220  Biso   1.000  H
  C175     1.0000 0.85351  0.59276  0.74283  Biso   1.000  C
  C176     1.0000 0.16838  0.59017  0.85860  Biso   1.000  C
  H160     1.0000 0.42743  0.77626  0.84053  Biso   1.000  H
  H161     1.0000 0.54912  0.75984  0.82501  Biso   1.000  H
  C177     1.0000 0.46910  0.68674  0.86820  Biso   1.000  C
  C178     1.0000 0.45925  0.94317  0.69900  Biso   1.000  C
  C179     1.0000 0.20769  0.86656  0.53802  Biso   1.000  C
  C180     1.0000 0.82572  0.66185  0.77143  Biso   1.000  C
  H162     1.0000 0.79062  0.56996  0.70762  Biso   1.000  H
  H163     1.0000 0.86146  0.56244  0.77731  Biso   1.000  H
  H164     1.0000 0.21327  0.55656  0.84004  Biso   1.000  H
  H165     1.0000 0.15432  0.57937  0.90150  Biso   1.000  H
  H166     1.0000 0.21038  0.63698  0.86365  Biso   1.000  H
  C181     1.0000 0.46931  0.64696  0.90591  Biso   1.000  C
  H167     1.0000 0.53720  0.94836  0.72422  Biso   1.000  H
  H168     1.0000 0.46405  0.96232  0.65771  Biso   1.000  H
  C182     1.0000 0.38672  0.98375  0.73803  Biso   1.000  C
  H169     1.0000 0.14490  0.84984  0.56031  Biso   1.000  H
  H170     1.0000 0.21684  0.82901  0.50369  Biso   1.000  H
  C183     1.0000 0.18283  0.92893  0.50874  Biso   1.000  C
  C184     1.0000 0.76439  0.70154  0.73284  Biso   1.000  C
  C185     1.0000 0.86825  0.68946  0.83642  Biso   1.000  C
  H171     1.0000 0.46021  0.61905  0.93804  Biso   1.000  H
  C186     1.0000 0.40207  0.98986  0.80630  Biso   1.000  C
  C187     1.0000 0.29848  0.01313  0.70610  Biso   1.000  C
  C188     1.0000 0.16614  0.97964  0.48660  Biso   1.000  C
  O35      1.0000 0.72382  0.67192  0.66917  Biso   1.000  O
  C189     1.0000 0.74532  0.76774  0.75840  Biso   1.000  C
  H172     1.0000 0.90984  0.66275  0.86375  Biso   1.000  H
  C190     1.0000 0.85076  0.75535  0.86193  Biso   1.000  C
  O36      1.0000 0.49162  0.96066  0.83544  Biso   1.000  O
  C191     1.0000 0.32935  0.02396  0.84024  Biso   1.000  C
  H173     1.0000 0.28787  0.01017  0.65982  Biso   1.000  H
  C192     1.0000 0.22600  0.04668  0.74014  Biso   1.000  C
  H174     1.0000 0.15255  0.02063  0.46863  Biso   1.000  H
  C193     1.0000 0.66049  0.71116  0.62804  Biso   1.000  C
  C194     1.0000 0.79031  0.79544  0.82290  Biso   1.000  C
  H175     1.0000 0.70129  0.79375  0.73152  Biso   1.000  H
  O37      1.0000 0.89025  0.78524  0.92604  Biso   1.000  O
  C195     1.0000 0.50735  0.96277  0.90405  Biso   1.000  C
  C196     1.0000 0.23948  0.05186  0.80801  Biso   1.000  C
  H176     1.0000 0.34126  0.02837  0.88662  Biso   1.000  H
  O38      1.0000 0.13707  0.07645  0.70943  Biso   1.000  O
  H177     1.0000 0.63345  0.68345  0.58494  Biso   1.000  H
  H178     1.0000 0.70919  0.75344  0.62333  Biso   1.000  H
  H179     1.0000 0.59522  0.72373  0.64753  Biso   1.000  H
  C197     1.0000 0.77463  0.86775  0.85013  Biso   1.000  C
  C198     1.0000 0.97805  0.75558  0.96213  Biso   1.000  C
  H180     1.0000 0.43873  0.93948  0.91634  Biso   1.000  H
  H181     1.0000 0.57231  0.93924  0.91811  Biso   1.000  H
  H182     1.0000 0.52200  0.01124  0.92511  Biso   1.000  H
  C199     1.0000 0.15476  0.08295  0.84543  Biso   1.000  C
  C200     1.0000 0.09835  0.05254  0.64253  Biso   1.000  C
  C201     1.0000 0.87563  0.92254  0.84842  Biso   1.000  C
  H183     1.0000 0.76224  0.86838  0.89592  Biso   1.000  H
  H184     1.0000 0.70547  0.88016  0.82462  Biso   1.000  H
  H185     1.0000 0.03855  0.74955  0.93613  Biso   1.000  H
  H186     1.0000 0.94641  0.71039  0.97183  Biso   1.000  H
  H187     1.0000 0.00938  0.78631  0.00317  Biso   1.000  H
  C202     1.0000 0.05668  0.02687  0.84812  Biso   1.000  C
  H188     1.0000 0.12520  0.12068  0.82364  Biso   1.000  H
  H189     1.0000 0.19269  0.10296  0.89044  Biso   1.000  H
  H190     1.0000 0.15618  0.06857  0.61712  Biso   1.000  H
  H191     1.0000 0.02754  0.07075  0.62823  Biso   1.000  H
  H192     1.0000 0.08424  0.00176  0.63533  Biso   1.000  H
  C203     1.0000 0.87847  0.95764  0.79543  Biso   1.000  C
  C204     1.0000 0.96627  0.93847  0.90023  Biso   1.000  C
  C205     1.0000 0.96727  0.01024  0.79611  Biso   1.000  C
  C206     1.0000 0.05693  0.98886  0.90052  Biso   1.000  C
  O39      1.0000 0.78931  0.93831  0.74352  Biso   1.000  O
  H193     1.0000 0.96569  0.91388  0.93662  Biso   1.000  H
  H194     1.0000 0.96677  0.03534  0.76002  Biso   1.000  H
  O40      1.0000 0.14732  0.00868  0.95131  Biso   1.000  O
  C207     1.0000 0.80340  0.96553  0.68504  Biso   1.000  C
  C208     1.0000 0.16523  0.96601  0.00117  Biso   1.000  C
  H195     1.0000 0.87773  0.95726  0.67304  Biso   1.000  H
  C209     1.0000 0.71123  0.93095  0.63342  Biso   1.000  C
  H196     1.0000 0.80111  0.01614  0.69141  Biso   1.000  H
  C210     1.0000 0.22404  0.90856  0.98305  Biso   1.000  C
  H197     1.0000 0.09071  0.94773  0.01169  Biso   1.000  H
  H198     1.0000 0.20999  0.99470  0.04127  Biso   1.000  H
  C211     1.0000 0.63921  0.90566  0.59003  Biso   1.000  C
  C212     1.0000 0.27551  0.86176  0.97212  Biso   1.000  C
  H199     1.0000 0.58058  0.88515  0.55472  Biso   1.000  H
  H200     1.0000 0.31688  0.82427  0.96331  Biso   1.000  H
  Ne1      1.0000 0.89224  0.16996  0.24519  Biso   1.000  Ne
  He1      1.0000 0.06220  0.15263  0.40074  Biso   1.000  He
  He2      1.0000 0.80543  0.26731  0.08766  Biso   1.000  He
  Ar1      1.0000 0.89174  0.17024  0.24528  Biso   1.000  Ar
  Ne2      1.0000 0.43266  0.66659  0.25895  Biso   1.000  Ne
  He3      1.0000 0.61028  0.84800  0.26751  Biso   1.000  He
  He4      1.0000 0.24099  0.51861  0.26792  Biso   1.000  He
  Ar2      1.0000 0.42908  0.67796  0.26173  Biso   1.000  Ar
  Ne3      1.0000 0.56760  0.33348  0.74108  Biso   1.000  Ne
  He5      1.0000 0.42073  0.17732  0.73154  Biso   1.000  He
  He6      1.0000 0.73975  0.46204  0.73229  Biso   1.000  He
  Ar3      1.0000 0.56708  0.31884  0.74077  Biso   1.000  Ar
  Ne4      1.0000 0.10802  0.83011  0.75484  Biso   1.000  Ne
  He7      1.0000 0.19281  0.73457  0.90793  Biso   1.000  He
  He8      1.0000 0.33169  0.97153  0.93203  Biso   1.000  He
  He9      1.0000 0.95145  0.84503  0.61261  Biso   1.000  He
  Ar4      1.0000 0.10853  0.82983  0.75475  Biso   1.000  Ar
