data_image0
_cell_length_a       17.385
_cell_length_b       17.425
_cell_length_c       17.479
_cell_angle_alpha    60.38
_cell_angle_beta     60.31
_cell_angle_gamma    60.17

_symmetry_space_group_name_H-M    "P 1"
_symmetry_int_tables_number       1

loop_
  _symmetry_equiv_pos_as_xyz
  'x, y, z'

loop_
  _atom_site_label
  _atom_site_occupancy
  _atom_site_fract_x
  _atom_site_fract_y
  _atom_site_fract_z
  _atom_site_thermal_displace_type
  _atom_site_B_iso_or_equiv
  _atom_site_type_symbol
  C1       1.0000 0.63107  0.76194  0.36068  Biso   1.000  C
  N1       1.0000 0.62664  0.69973  0.34834  Biso   1.000  N
  C2       1.0000 0.62994  0.85406  0.29429  Biso   1.000  C
  H1       1.0000 0.63541  0.74720  0.41870  Biso   1.000  H
  C3       1.0000 0.62833  0.61045  0.42093  Biso   1.000  C
  C4       1.0000 0.62549  0.92047  0.32037  Biso   1.000  C
  C5       1.0000 0.63164  0.88016  0.20328  Biso   1.000  C
  C6       1.0000 0.54312  0.58714  0.44444  Biso   1.000  C
  C7       1.0000 0.71995  0.53401  0.38962  Biso   1.000  C
  H2       1.0000 0.62522  0.61366  0.47791  Biso   1.000  H
  H3       1.0000 0.62624  0.90320  0.38084  Biso   1.000  H
  C8       1.0000 0.61995  0.01076  0.25977  Biso   1.000  C
  C9       1.0000 0.62834  0.97189  0.14129  Biso   1.000  C
  H4       1.0000 0.63488  0.83616  0.18390  Biso   1.000  H
  C10      1.0000 0.54526  0.49053  0.51780  Biso   1.000  C
  H5       1.0000 0.48476  0.63506  0.46780  Biso   1.000  H
  H6       1.0000 0.54297  0.58871  0.38704  Biso   1.000  H
  C11      1.0000 0.72158  0.44152  0.46473  Biso   1.000  C
  N2       1.0000 0.80113  0.55434  0.37072  Biso   1.000  N
  H7       1.0000 0.72422  0.53114  0.33181  Biso   1.000  H
  C12      1.0000 0.62432  0.03526  0.16939  Biso   1.000  C
  C13      1.0000 0.61066  0.08427  0.28718  Biso   1.000  C
  C14      1.0000 0.62903  0.99677  0.04777  Biso   1.000  C
  C15      1.0000 0.63915  0.41441  0.48830  Biso   1.000  C
  H8       1.0000 0.49286  0.47525  0.52721  Biso   1.000  H
  H9       1.0000 0.53635  0.49151  0.57791  Biso   1.000  H
  H10      1.0000 0.71875  0.44422  0.52143  Biso   1.000  H
  H11      1.0000 0.78134  0.39292  0.44444  Biso   1.000  H
  C16      1.0000 0.86057  0.56484  0.28808  Biso   1.000  C
  H12      1.0000 0.62463  0.09620  0.12671  Biso   1.000  H
  N3       1.0000 0.59754  0.07208  0.36870  Biso   1.000  N
  H13      1.0000 0.61481  0.14288  0.24073  Biso   1.000  H
  H14      1.0000 0.63606  0.94929  0.03048  Biso   1.000  H
  N4       1.0000 0.62069  0.07869  0.98867  Biso   1.000  N
  H15      1.0000 0.64125  0.35373  0.53963  Biso   1.000  H
  H16      1.0000 0.64424  0.40703  0.43314  Biso   1.000  H
  C17      1.0000 0.95005  0.57244  0.26228  Biso   1.000  C
  H17      1.0000 0.84514  0.56775  0.24143  Biso   1.000  H
  C18      1.0000 0.57854  0.15404  0.38774  Biso   1.000  C
  C19      1.0000 0.61720  0.09600  0.90003  Biso   1.000  C
  C20      1.0000 0.97627  0.57733  0.32498  Biso   1.000  C
  C21      1.0000 0.01223  0.57553  0.17302  Biso   1.000  C
  H18      1.0000 0.58063  0.20845  0.32839  Biso   1.000  H
  C22      1.0000 0.65476  0.13435  0.42212  Biso   1.000  C
  C23      1.0000 0.48136  0.17837  0.45908  Biso   1.000  C
  C24      1.0000 0.68787  0.14033  0.82311  Biso   1.000  C
  H19      1.0000 0.63138  0.03528  0.89480  Biso   1.000  H
  C25      1.0000 0.51711  0.15990  0.89843  Biso   1.000  C
  H20      1.0000 0.93313  0.57803  0.38572  Biso   1.000  H
  C26      1.0000 0.06261  0.58108  0.29799  Biso   1.000  C
  H21      1.0000 0.99475  0.57516  0.12971  Biso   1.000  H
  C27      1.0000 0.09921  0.57939  0.14673  Biso   1.000  C
  N5       1.0000 0.74574  0.11874  0.35022  Biso   1.000  N
  H22      1.0000 0.65624  0.07696  0.47868  Biso   1.000  H
  C28      1.0000 0.63316  0.21713  0.44729  Biso   1.000  C
  C29      1.0000 0.46083  0.25865  0.48300  Biso   1.000  C
  H23      1.0000 0.43354  0.19363  0.43391  Biso   1.000  H
  H24      1.0000 0.47706  0.12305  0.51640  Biso   1.000  H
  N6       1.0000 0.78108  0.07243  0.82220  Biso   1.000  N
  H25      1.0000 0.67929  0.19661  0.83238  Biso   1.000  H
  C30      1.0000 0.67833  0.16863  0.72903  Biso   1.000  C
  H26      1.0000 0.47208  0.12704  0.94864  Biso   1.000  H
  H27      1.0000 0.50068  0.21720  0.91021  Biso   1.000  H
  C31      1.0000 0.50898  0.18692  0.80602  Biso   1.000  C
  C32      1.0000 0.12533  0.58458  0.20851  Biso   1.000  C
  C33      1.0000 0.08524  0.58633  0.36661  Biso   1.000  C
  C34      1.0000 0.16691  0.58123  0.05307  Biso   1.000  C
  C35      1.0000 0.80774  0.03716  0.36389  Biso   1.000  C
  H28      1.0000 0.63732  0.27273  0.39032  Biso   1.000  H
  H29      1.0000 0.68045  0.20185  0.47310  Biso   1.000  H
  C36      1.0000 0.53447  0.24010  0.51933  Biso   1.000  C
  H30      1.0000 0.39804  0.27054  0.53112  Biso   1.000  H
  H31      1.0000 0.45947  0.31541  0.42693  Biso   1.000  H
  C37      1.0000 0.83779  0.09241  0.82980  Biso   1.000  C
  H32      1.0000 0.69507  0.11160  0.71683  Biso   1.000  H
  H33      1.0000 0.72288  0.20214  0.67868  Biso   1.000  H
  C38      1.0000 0.57757  0.23224  0.72792  Biso   1.000  C
  H34      1.0000 0.51916  0.13025  0.79717  Biso   1.000  H
  H35      1.0000 0.44468  0.23043  0.80588  Biso   1.000  H
  H36      1.0000 0.18444  0.59026  0.18913  Biso   1.000  H
  N7       1.0000 0.16586  0.58024  0.35141  Biso   1.000  N
  H37      1.0000 0.03716  0.59465  0.42331  Biso   1.000  H
  N8       1.0000 0.15076  0.57078  0.99494  Biso   1.000  N
  H38      1.0000 0.22400  0.59022  0.03487  Biso   1.000  H
  H39      1.0000 0.79109  0.98869  0.42024  Biso   1.000  H
  C39      1.0000 0.90173  0.01458  0.29848  Biso   1.000  C
  H40      1.0000 0.53195  0.18711  0.57861  Biso   1.000  H
  H41      1.0000 0.52068  0.29615  0.53168  Biso   1.000  H
  H42      1.0000 0.81681  0.15105  0.83692  Biso   1.000  H
  C40      1.0000 0.93277  0.03012  0.82792  Biso   1.000  C
  H43      1.0000 0.56328  0.29249  0.73280  Biso   1.000  H
  H44      1.0000 0.57268  0.24548  0.66822  Biso   1.000  H
  C41      1.0000 0.18058  0.57994  0.42679  Biso   1.000  C
  C42      1.0000 0.22608  0.56285  0.90742  Biso   1.000  C
  C43      1.0000 0.96705  0.92532  0.32672  Biso   1.000  C
  C44      1.0000 0.92675  0.07405  0.21019  Biso   1.000  C
  C45      1.0000 0.96422  0.93881  0.82932  Biso   1.000  C
  C46      1.0000 0.99398  0.05945  0.82904  Biso   1.000  C
  C47      1.0000 0.19889  0.67175  0.39339  Biso   1.000  C
  H45      1.0000 0.12279  0.57819  0.48314  Biso   1.000  H
  C48      1.0000 0.26387  0.49534  0.45120  Biso   1.000  C
  C49      1.0000 0.18973  0.63417  0.82492  Biso   1.000  C
  H46      1.0000 0.27963  0.57480  0.90170  Biso   1.000  H
  C50      1.0000 0.25779  0.46425  0.90930  Biso   1.000  C
  C51      1.0000 0.05624  0.90006  0.26681  Biso   1.000  C
  H47      1.0000 0.94886  0.88260  0.38753  Biso   1.000  H
  C52      1.0000 0.01850  0.04996  0.14673  Biso   1.000  C
  H48      1.0000 0.88154  0.13298  0.19080  Biso   1.000  H
  C53      1.0000 0.05510  0.87791  0.83022  Biso   1.000  C
  H49      1.0000 0.92319  0.91748  0.82980  Biso   1.000  H
  C54      1.0000 0.08230  0.00130  0.82946  Biso   1.000  C
  H50      1.0000 0.97320  0.12099  0.82959  Biso   1.000  H
  N9       1.0000 0.11804  0.75356  0.37623  Biso   1.000  N
  H51      1.0000 0.25495  0.67522  0.33544  Biso   1.000  H
  C55      1.0000 0.21684  0.67164  0.47101  Biso   1.000  C
  H52      1.0000 0.25054  0.43736  0.47352  Biso   1.000  H
  H53      1.0000 0.32012  0.49504  0.39443  Biso   1.000  H
  C56      1.0000 0.28375  0.49631  0.52533  Biso   1.000  C
  N10      1.0000 0.16840  0.72672  0.82429  Biso   1.000  N
  H54      1.0000 0.13243  0.62720  0.83238  Biso   1.000  H
  C57      1.0000 0.26842  0.61984  0.73392  Biso   1.000  C
  H55      1.0000 0.20402  0.45219  0.91698  Biso   1.000  H
  H56      1.0000 0.27979  0.41934  0.96335  Biso   1.000  H
  C58      1.0000 0.33743  0.44897  0.81920  Biso   1.000  C
  C59      1.0000 0.12975  0.81033  0.29311  Biso   1.000  C
  C60      1.0000 0.08287  0.96215  0.17518  Biso   1.000  C
  C61      1.0000 0.04514  0.11537  0.05328  Biso   1.000  C
  C62      1.0000 0.08456  0.78312  0.83120  Biso   1.000  C
  C63      1.0000 0.11406  0.91089  0.82932  Biso   1.000  C
  C64      1.0000 0.14668  0.03177  0.83092  Biso   1.000  C
  H57      1.0000 0.22898  0.72975  0.45071  Biso   1.000  H
  H58      1.0000 0.16026  0.67031  0.52749  Biso   1.000  H
  C65      1.0000 0.30048  0.58721  0.49430  Biso   1.000  C
  H59      1.0000 0.34007  0.44212  0.53719  Biso   1.000  H
  H60      1.0000 0.22995  0.49059  0.58412  Biso   1.000  H
  H61      1.0000 0.24521  0.66365  0.68043  Biso   1.000  H
  H62      1.0000 0.32196  0.63329  0.72464  Biso   1.000  H
  C66      1.0000 0.30071  0.51876  0.73852  Biso   1.000  C
  H63      1.0000 0.39247  0.45898  0.81174  Biso   1.000  H
  H64      1.0000 0.35707  0.38422  0.82137  Biso   1.000  H
  H65      1.0000 0.18827  0.79437  0.24610  Biso   1.000  H
  H66      1.0000 0.14456  0.94394  0.13320  Biso   1.000  H
  H67      1.0000 0.99768  0.17187  0.03403  Biso   1.000  H
  N11      1.0000 0.12842  0.10069  0.99655  Biso   1.000  N
  H68      1.0000 0.03962  0.76279  0.83727  Biso   1.000  H
  H69      1.0000 0.17632  0.87121  0.82869  Biso   1.000  H
  H70      1.0000 0.20603  0.98750  0.83671  Biso   1.000  H
  N12      1.0000 0.12575  0.11508  0.82464  Biso   1.000  N
  H71      1.0000 0.31039  0.58832  0.54479  Biso   1.000  H
  H72      1.0000 0.35779  0.59013  0.43879  Biso   1.000  H
  H73      1.0000 0.24732  0.50629  0.74584  Biso   1.000  H
  H74      1.0000 0.35082  0.51032  0.67938  Biso   1.000  H
  C67      1.0000 0.14845  0.17439  0.91084  Biso   1.000  C
  C68      1.0000 0.19519  0.13609  0.82855  Biso   1.000  C
  C69      1.0000 0.21239  0.21072  0.91021  Biso   1.000  C
  H75      1.0000 0.08830  0.22669  0.90512  Biso   1.000  H
  H76      1.0000 0.25175  0.07906  0.83615  Biso   1.000  H
  C70      1.0000 0.22165  0.21491  0.73552  Biso   1.000  C
  H77      1.0000 0.17950  0.23749  0.96112  Biso   1.000  H
  H78      1.0000 0.26958  0.15790  0.92172  Biso   1.000  H
  C71      1.0000 0.23997  0.28423  0.81865  Biso   1.000  C
  H79      1.0000 0.25449  0.19073  0.68259  Biso   1.000  H
  H80      1.0000 0.16403  0.26793  0.72562  Biso   1.000  H
  C72      1.0000 0.28658  0.24904  0.73915  Biso   1.000  C
  H81      1.0000 0.18330  0.33929  0.81000  Biso   1.000  H
  H82      1.0000 0.28323  0.30462  0.81983  Biso   1.000  H
  H83      1.0000 0.34558  0.19660  0.74549  Biso   1.000  H
  H84      1.0000 0.30271  0.29967  0.68022  Biso   1.000  H
  C73      1.0000 0.53788  0.68924  0.64082  Biso   1.000  C
  N13      1.0000 0.45581  0.74210  0.65602  Biso   1.000  N
  H85      1.0000 0.58340  0.70933  0.58300  Biso   1.000  H
  C74      1.0000 0.56890  0.59598  0.70804  Biso   1.000  C
  C75      1.0000 0.43111  0.83122  0.58070  Biso   1.000  C
  C76      1.0000 0.66107  0.53493  0.67938  Biso   1.000  C
  C77      1.0000 0.50590  0.56757  0.79682  Biso   1.000  C
  C78      1.0000 0.36558  0.82780  0.55099  Biso   1.000  C
  C79      1.0000 0.38788  0.91229  0.61383  Biso   1.000  C
  H86      1.0000 0.48967  0.83712  0.52638  Biso   1.000  H
  H87      1.0000 0.70345  0.55420  0.61864  Biso   1.000  H
  C80      1.0000 0.68919  0.44381  0.74312  Biso   1.000  C
  C81      1.0000 0.53500  0.47727  0.85951  Biso   1.000  C
  H88      1.0000 0.44357  0.60899  0.81502  Biso   1.000  H
  H89      1.0000 0.30960  0.81690  0.60560  Biso   1.000  H
  H90      1.0000 0.39754  0.77482  0.52693  Biso   1.000  H
  C82      1.0000 0.33467  0.91909  0.47512  Biso   1.000  C
  N14      1.0000 0.45681  0.91700  0.63461  Biso   1.000  N
  H91      1.0000 0.33210  0.90457  0.67143  Biso   1.000  H
  C83      1.0000 0.35777  0.00491  0.53879  Biso   1.000  C
  C84      1.0000 0.62727  0.41768  0.83022  Biso   1.000  C
  C85      1.0000 0.78706  0.37933  0.71223  Biso   1.000  C
  C86      1.0000 0.46648  0.44895  0.95003  Biso   1.000  C
  H92      1.0000 0.38990  0.92711  0.41821  Biso   1.000  H
  H93      1.0000 0.28930  0.91605  0.45908  Biso   1.000  H
  C87      1.0000 0.29055  0.00015  0.50713  Biso   1.000  C
  C88      1.0000 0.43840  0.91150  0.71474  Biso   1.000  C
  H94      1.0000 0.41380  0.01655  0.48474  Biso   1.000  H
  H95      1.0000 0.32492  0.05723  0.56404  Biso   1.000  H
  H96      1.0000 0.64742  0.35708  0.87248  Biso   1.000  H
  N15      1.0000 0.84328  0.39829  0.63301  Biso   1.000  N
  H97      1.0000 0.80690  0.32007  0.75644  Biso   1.000  H
  H98      1.0000 0.40778  0.49507  0.96802  Biso   1.000  H
  N16      1.0000 0.48128  0.36670  0.00537  Biso   1.000  N
  H99      1.0000 0.23165  0.99533  0.55992  Biso   1.000  H
  H100     1.0000 0.27434  0.05841  0.45594  Biso   1.000  H
  H101     1.0000 0.38027  0.90358  0.75993  Biso   1.000  H
  C89      1.0000 0.50237  0.91642  0.74410  Biso   1.000  C
  C90      1.0000 0.93896  0.32731  0.61578  Biso   1.000  C
  C91      1.0000 0.40587  0.34766  0.08843  Biso   1.000  C
  C92      1.0000 0.59118  0.91751  0.68433  Biso   1.000  C
  C93      1.0000 0.47448  0.91821  0.83238  Biso   1.000  C
  H102     1.0000 0.94259  0.27189  0.67380  Biso   1.000  H
  C94      1.0000 0.95125  0.29855  0.53963  Biso   1.000  C
  C95      1.0000 0.00622  0.36804  0.58802  Biso   1.000  C
  H103     1.0000 0.34910  0.40538  0.08654  Biso   1.000  H
  C96      1.0000 0.38368  0.26759  0.09533  Biso   1.000  C
  C97      1.0000 0.43111  0.32066  0.17197  Biso   1.000  C
  C98      1.0000 0.65221  0.92008  0.71181  Biso   1.000  C
  H104     1.0000 0.61132  0.91650  0.62331  Biso   1.000  H
  H105     1.0000 0.41314  0.91780  0.87409  Biso   1.000  H
  C99      1.0000 0.53399  0.92036  0.86112  Biso   1.000  C
  H106     1.0000 0.93766  0.35473  0.48572  Biso   1.000  H
  H107     1.0000 0.90737  0.26502  0.56383  Biso   1.000  H
  C100     1.0000 0.05755  0.23155  0.50818  Biso   1.000  C
  N17      1.0000 0.99678  0.38983  0.66383  Biso   1.000  N
  H108     1.0000 0.99708  0.42723  0.53419  Biso   1.000  H
  C101     1.0000 0.11012  0.30034  0.55804  Biso   1.000  C
  H109     1.0000 0.37934  0.28309  0.03459  Biso   1.000  H
  H110     1.0000 0.43796  0.20936  0.10377  Biso   1.000  H
  C102     1.0000 0.29881  0.24719  0.16849  Biso   1.000  C
  N18      1.0000 0.44331  0.39829  0.16828  Biso   1.000  N
  C103     1.0000 0.34841  0.29515  0.26158  Biso   1.000  C
  H111     1.0000 0.49020  0.26537  0.17253  Biso   1.000  H
  C104     1.0000 0.62382  0.91962  0.80149  Biso   1.000  C
  C105     1.0000 0.74772  0.92340  0.64570  Biso   1.000  C
  C106     1.0000 0.50381  0.92216  0.95540  Biso   1.000  C
  C107     1.0000 0.12388  0.26780  0.48433  Biso   1.000  C
  H112     1.0000 0.06635  0.17132  0.55992  Biso   1.000  H
  H113     1.0000 0.06844  0.21815  0.45420  Biso   1.000  H
  C108     1.0000 0.98218  0.47464  0.64821  Biso   1.000  C
  H114     1.0000 0.15477  0.33336  0.53258  Biso   1.000  H
  H115     1.0000 0.12298  0.24541  0.61299  Biso   1.000  H
  H116     1.0000 0.29229  0.19364  0.16876  Biso   1.000  H
  H117     1.0000 0.24129  0.30245  0.16339  Biso   1.000  H
  C109     1.0000 0.32207  0.22198  0.25559  Biso   1.000  C
  C110     1.0000 0.52055  0.38667  0.16319  Biso   1.000  C
  H118     1.0000 0.29304  0.35255  0.26668  Biso   1.000  H
  H119     1.0000 0.36691  0.26697  0.31744  Biso   1.000  H
  H120     1.0000 0.66589  0.91876  0.82171  Biso   1.000  H
  N19      1.0000 0.79973  0.93459  0.66508  Biso   1.000  N
  H121     1.0000 0.76901  0.91649  0.58712  Biso   1.000  H
  H122     1.0000 0.54981  0.91389  0.97583  Biso   1.000  H
  N20      1.0000 0.42127  0.93404  0.00997  Biso   1.000  N
  H123     1.0000 0.12283  0.32158  0.42568  Biso   1.000  H
  H124     1.0000 0.18676  0.21951  0.47191  Biso   1.000  H
  H125     1.0000 0.97579  0.52009  0.59012  Biso   1.000  H
  C111     1.0000 0.97517  0.50349  0.71725  Biso   1.000  C
  H126     1.0000 0.37539  0.16213  0.26054  Biso   1.000  H
  H127     1.0000 0.26738  0.20984  0.31138  Biso   1.000  H
  C112     1.0000 0.54442  0.45484  0.16088  Biso   1.000  C
  H128     1.0000 0.56811  0.32783  0.16088  Biso   1.000  H
  C113     1.0000 0.89028  0.94252  0.59221  Biso   1.000  C
  C114     1.0000 0.39719  0.93868  0.09965  Biso   1.000  C
  C115     1.0000 0.97276  0.44261  0.80742  Biso   1.000  C
  C116     1.0000 0.97377  0.59322  0.69075  Biso   1.000  C
  C117     1.0000 0.48229  0.54228  0.16033  Biso   1.000  C
  C118     1.0000 0.63168  0.43466  0.16249  Biso   1.000  C
  H129     1.0000 0.89696  0.93434  0.53628  Biso   1.000  H
  C119     1.0000 0.96998  0.86989  0.62743  Biso   1.000  C
  C120     1.0000 0.89187  0.03935  0.56550  Biso   1.000  C
  H130     1.0000 0.45392  0.93736  0.10244  Biso   1.000  H
  C121     1.0000 0.37264  0.84982  0.17657  Biso   1.000  C
  C122     1.0000 0.31827  0.02591  0.11681  Biso   1.000  C
  H131     1.0000 0.97219  0.38146  0.82611  Biso   1.000  H
  C123     1.0000 0.97119  0.47028  0.86983  Biso   1.000  C
  C124     1.0000 0.96858  0.62478  0.75400  Biso   1.000  C
  H132     1.0000 0.97636  0.63423  0.62889  Biso   1.000  H
  C125     1.0000 0.50010  0.61609  0.16040  Biso   1.000  C
  H133     1.0000 0.42211  0.55687  0.15984  Biso   1.000  H
  C126     1.0000 0.65593  0.50438  0.16193  Biso   1.000  C
  H134     1.0000 0.67684  0.37395  0.16423  Biso   1.000  H
  N21      1.0000 0.97439  0.77590  0.64660  Biso   1.000  N
  H135     1.0000 0.96061  0.87528  0.68601  Biso   1.000  H
  C127     1.0000 0.06269  0.88340  0.55490  Biso   1.000  C
  H136     1.0000 0.84184  0.08744  0.53788  Biso   1.000  H
  H137     1.0000 0.87792  0.04981  0.62254  Biso   1.000  H
  C128     1.0000 0.98451  0.05085  0.49744  Biso   1.000  C
  N22      1.0000 0.44705  0.76516  0.16793  Biso   1.000  N
  H138     1.0000 0.31961  0.84943  0.16876  Biso   1.000  H
  C129     1.0000 0.33861  0.84920  0.27497  Biso   1.000  C
  H139     1.0000 0.26564  0.03581  0.10147  Biso   1.000  H
  H140     1.0000 0.34002  0.08056  0.07594  Biso   1.000  H
  C130     1.0000 0.28160  0.01698  0.22734  Biso   1.000  C
  C131     1.0000 0.97052  0.56137  0.84201  Biso   1.000  C
  C132     1.0000 0.97271  0.40318  0.96482  Biso   1.000  C
  C133     1.0000 0.96507  0.71996  0.72882  Biso   1.000  C
  C134     1.0000 0.43035  0.70423  0.16151  Biso   1.000  C
  C135     1.0000 0.58832  0.58939  0.16291  Biso   1.000  C
  C136     1.0000 0.74939  0.47768  0.16904  Biso   1.000  C
  H141     1.0000 0.07290  0.87663  0.49730  Biso   1.000  H
  H142     1.0000 0.11485  0.83462  0.57882  Biso   1.000  H
  C137     1.0000 0.06197  0.98070  0.53251  Biso   1.000  C
  H143     1.0000 0.99574  0.04607  0.43844  Biso   1.000  H
  H144     1.0000 0.98255  0.11407  0.48370  Biso   1.000  H
  H145     1.0000 0.31823  0.79412  0.31954  Biso   1.000  H
  H146     1.0000 0.39116  0.84357  0.28760  Biso   1.000  H
  C138     1.0000 0.26006  0.93507  0.28899  Biso   1.000  C
  H147     1.0000 0.33100  0.01809  0.23920  Biso   1.000  H
  H148     1.0000 0.22499  0.07190  0.23892  Biso   1.000  H
  H149     1.0000 0.97118  0.57978  0.88441  Biso   1.000  H
  H150     1.0000 0.96371  0.34580  0.98511  Biso   1.000  H
  N23      1.0000 0.98494  0.41968  0.01862  Biso   1.000  N
  H151     1.0000 0.95559  0.73989  0.77562  Biso   1.000  H
  H152     1.0000 0.37173  0.71889  0.15761  Biso   1.000  H
  H153     1.0000 0.60286  0.63354  0.16563  Biso   1.000  H
  N24      1.0000 0.81073  0.39905  0.17218  Biso   1.000  N
  H154     1.0000 0.76227  0.52336  0.17114  Biso   1.000  H
  H155     1.0000 0.05374  0.98744  0.58942  Biso   1.000  H
  H156     1.0000 0.12227  0.98911  0.48502  Biso   1.000  H
  H157     1.0000 0.20596  0.93744  0.28160  Biso   1.000  H
  H158     1.0000 0.24099  0.93221  0.35371  Biso   1.000  H
  C139     1.0000 0.98250  0.34560  0.11270  Biso   1.000  C
  C140     1.0000 0.89501  0.38466  0.18390  Biso   1.000  C
  H159     1.0000 0.98142  0.28819  0.11367  Biso   1.000  H
  C141     1.0000 0.06833  0.32224  0.13215  Biso   1.000  C
  H160     1.0000 0.89333  0.44515  0.17881  Biso   1.000  H
  C142     1.0000 0.88949  0.31473  0.28383  Biso   1.000  C
  H161     1.0000 0.07357  0.38057  0.12260  Biso   1.000  H
  H162     1.0000 0.12522  0.29190  0.08801  Biso   1.000  H
  C143     1.0000 0.06209  0.25419  0.23578  Biso   1.000  C
  H163     1.0000 0.88815  0.25572  0.29004  Biso   1.000  H
  H164     1.0000 0.83185  0.34175  0.32979  Biso   1.000  H
  C144     1.0000 0.97853  0.29510  0.30140  Biso   1.000  C
  H165     1.0000 0.06195  0.19386  0.24380  Biso   1.000  H
  H166     1.0000 0.11790  0.24125  0.24813  Biso   1.000  H
  H167     1.0000 0.97935  0.35455  0.29464  Biso   1.000  H
  H168     1.0000 0.97607  0.25209  0.36570  Biso   1.000  H
  Ne1      1.0000 0.91904  0.86951  0.13570  Biso   1.000  Ne
  He1      1.0000 0.85054  0.80358  0.33716  Biso   1.000  He
  He2      1.0000 0.85580  0.04806  0.06633  Biso   1.000  He
  He3      1.0000 0.10204  0.82314  0.06624  Biso   1.000  He
  He4      1.0000 0.87056  0.80007  0.06294  Biso   1.000  He
  Ar1      1.0000 0.91855  0.87005  0.13554  Biso   1.000  Ar
  Ne2      1.0000 0.67459  0.61967  0.87154  Biso   1.000  Ne
  He5      1.0000 0.73351  0.69358  0.93987  Biso   1.000  He
  He6      1.0000 0.75176  0.41579  0.93896  Biso   1.000  He
  He7      1.0000 0.47927  0.68397  0.93071  Biso   1.000  He
  He8      1.0000 0.74458  0.68767  0.67539  Biso   1.000  He
  Ar2      1.0000 0.67800  0.62374  0.86798  Biso   1.000  Ar
