data_image0
_cell_length_a       15.002
_cell_length_b       15.273
_cell_length_c       15.278
_cell_angle_alpha    60.82
_cell_angle_beta     81.77
_cell_angle_gamma    76.83

_symmetry_space_group_name_H-M    "P 1"
_symmetry_int_tables_number       1

loop_
  _symmetry_equiv_pos_as_xyz
  'x, y, z'

loop_
  _atom_site_label
  _atom_site_occupancy
  _atom_site_fract_x
  _atom_site_fract_y
  _atom_site_fract_z
  _atom_site_thermal_displace_type
  _atom_site_B_iso_or_equiv
  _atom_site_type_symbol
  C1       1.0000 0.58631  0.37360  0.60729  Biso   1.000  C
  C2       1.0000 0.67877  0.36301  0.55230  Biso   1.000  C
  H1       1.0000 0.59670  0.35757  0.67586  Biso   1.000  H
  H2       1.0000 0.55276  0.44376  0.57166  Biso   1.000  H
  H3       1.0000 0.55049  0.32640  0.60939  Biso   1.000  H
  C3       1.0000 0.67200  0.38043  0.44667  Biso   1.000  C
  H4       1.0000 0.71403  0.29376  0.59207  Biso   1.000  H
  H5       1.0000 0.71357  0.41244  0.54908  Biso   1.000  H
  C4       1.0000 0.67075  0.29851  0.42919  Biso   1.000  C
  C5       1.0000 0.66907  0.47913  0.36460  Biso   1.000  C
  C6       1.0000 0.66934  0.31319  0.33137  Biso   1.000  C
  C7       1.0000 0.66882  0.19397  0.51824  Biso   1.000  C
  C8       1.0000 0.66861  0.49526  0.26572  Biso   1.000  C
  C9       1.0000 0.66487  0.56990  0.38201  Biso   1.000  C
  C10      1.0000 0.67127  0.22402  0.31276  Biso   1.000  C
  C11      1.0000 0.66777  0.41260  0.24937  Biso   1.000  C
  N1       1.0000 0.75582  0.12807  0.56266  Biso   1.000  N
  H6       1.0000 0.63809  0.15619  0.49791  Biso   1.000  H
  H7       1.0000 0.62957  0.20356  0.57196  Biso   1.000  H
  C12      1.0000 0.67147  0.60038  0.17757  Biso   1.000  C
  H8       1.0000 0.63421  0.55430  0.44840  Biso   1.000  H
  H9       1.0000 0.62486  0.62891  0.33122  Biso   1.000  H
  N2       1.0000 0.75099  0.60234  0.37886  Biso   1.000  N
  C13      1.0000 0.57547  0.20441  0.31299  Biso   1.000  C
  H10      1.0000 0.70292  0.23740  0.24719  Biso   1.000  H
  H11      1.0000 0.70702  0.16189  0.36528  Biso   1.000  H
  C14      1.0000 0.66448  0.42849  0.14329  Biso   1.000  C
  C15      1.0000 0.83163  0.15341  0.52080  Biso   1.000  C
  H12      1.0000 0.70465  0.63722  0.19678  Biso   1.000  H
  H13      1.0000 0.70649  0.59284  0.12086  Biso   1.000  H
  C16      1.0000 0.57625  0.66484  0.14246  Biso   1.000  C
  C17      1.0000 0.82771  0.54903  0.37225  Biso   1.000  C
  H14      1.0000 0.54464  0.18822  0.37878  Biso   1.000  H
  H15      1.0000 0.53964  0.26564  0.26107  Biso   1.000  H
  H16      1.0000 0.58076  0.14712  0.29926  Biso   1.000  H
  N3       1.0000 0.75074  0.41127  0.09063  Biso   1.000  N
  H17      1.0000 0.63328  0.49947  0.10173  Biso   1.000  H
  H18      1.0000 0.62524  0.38301  0.14599  Biso   1.000  H
  C18      1.0000 0.91949  0.08751  0.56618  Biso   1.000  C
  H19      1.0000 0.83235  0.21510  0.45980  Biso   1.000  H
  H20      1.0000 0.54109  0.67278  0.19821  Biso   1.000  H
  H21      1.0000 0.58301  0.73218  0.08680  Biso   1.000  H
  H22      1.0000 0.54405  0.63073  0.11996  Biso   1.000  H
  C19      1.0000 0.91438  0.58140  0.36910  Biso   1.000  C
  H23      1.0000 0.82937  0.48789  0.36948  Biso   1.000  H
  C20      1.0000 0.82686  0.39592  0.12611  Biso   1.000  C
  C21      1.0000 0.92047  0.99820  0.65778  Biso   1.000  C
  C22      1.0000 0.00232  0.11453  0.51787  Biso   1.000  C
  C23      1.0000 0.99782  0.52001  0.36588  Biso   1.000  C
  C24      1.0000 0.91451  0.67309  0.36820  Biso   1.000  C
  C25      1.0000 0.91388  0.38004  0.07247  Biso   1.000  C
  H24      1.0000 0.82825  0.39453  0.18868  Biso   1.000  H
  H25      1.0000 0.86442  0.97879  0.69177  Biso   1.000  H
  C26      1.0000 0.00298  0.93815  0.69897  Biso   1.000  C
  C27      1.0000 0.08571  0.05466  0.55786  Biso   1.000  C
  H26      1.0000 0.00190  0.17541  0.45590  Biso   1.000  H
  H27      1.0000 0.99814  0.45792  0.36550  Biso   1.000  H
  C28      1.0000 0.08036  0.54804  0.36325  Biso   1.000  C
  H28      1.0000 0.85811  0.71616  0.36925  Biso   1.000  H
  C29      1.0000 0.99663  0.70175  0.36565  Biso   1.000  C
  C30      1.0000 0.99703  0.36517  0.11283  Biso   1.000  C
  C31      1.0000 0.91468  0.38111  0.98067  Biso   1.000  C
  C32      1.0000 0.08521  0.96595  0.64946  Biso   1.000  C
  H29      1.0000 0.00353  0.87759  0.76139  Biso   1.000  H
  C33      1.0000 0.17287  0.08511  0.50549  Biso   1.000  C
  C34      1.0000 0.16797  0.48155  0.35958  Biso   1.000  C
  C35      1.0000 0.07918  0.63961  0.36370  Biso   1.000  C
  H30      1.0000 0.99617  0.76422  0.36535  Biso   1.000  H
  H31      1.0000 0.99703  0.36469  0.17532  Biso   1.000  H
  C36      1.0000 0.08034  0.35123  0.06287  Biso   1.000  C
  H32      1.0000 0.85851  0.39113  0.95224  Biso   1.000  H
  C37      1.0000 0.99721  0.36789  0.93033  Biso   1.000  C
  H33      1.0000 0.14158  0.92412  0.67819  Biso   1.000  H
  N4       1.0000 0.24902  0.03114  0.53948  Biso   1.000  N
  H34      1.0000 0.17123  0.14727  0.44435  Biso   1.000  H
  N5       1.0000 0.24407  0.50565  0.35657  Biso   1.000  N
  H35      1.0000 0.16705  0.41963  0.35928  Biso   1.000  H
  H36      1.0000 0.13518  0.65928  0.36250  Biso   1.000  H
  C38      1.0000 0.07949  0.35223  0.97107  Biso   1.000  C
  C39      1.0000 0.16751  0.33361  0.10841  Biso   1.000  C
  H37      1.0000 0.99711  0.36935  0.86747  Biso   1.000  H
  C40      1.0000 0.33516  0.06300  0.48501  Biso   1.000  C
  C41      1.0000 0.33076  0.43829  0.35290  Biso   1.000  C
  H38      1.0000 0.13557  0.34224  0.93656  Biso   1.000  H
  N6       1.0000 0.24380  0.31873  0.06557  Biso   1.000  N
  H39      1.0000 0.16636  0.33364  0.17067  Biso   1.000  H
  H40      1.0000 0.37627  0.05643  0.53400  Biso   1.000  H
  H41      1.0000 0.36481  0.01399  0.46018  Biso   1.000  H
  C42      1.0000 0.32947  0.16938  0.39731  Biso   1.000  C
  C43      1.0000 0.32692  0.35028  0.33452  Biso   1.000  C
  H42      1.0000 0.37107  0.48141  0.29948  Biso   1.000  H
  H43      1.0000 0.36076  0.40961  0.41727  Biso   1.000  H
  C44      1.0000 0.33011  0.30117  0.11141  Biso   1.000  C
  C45      1.0000 0.32775  0.18624  0.29858  Biso   1.000  C
  C46      1.0000 0.32745  0.25191  0.41562  Biso   1.000  C
  C47      1.0000 0.32475  0.36704  0.23587  Biso   1.000  C
  C48      1.0000 0.32676  0.28531  0.21771  Biso   1.000  C
  H44      1.0000 0.37000  0.24049  0.10991  Biso   1.000  H
  H45      1.0000 0.36063  0.36022  0.06782  Biso   1.000  H
  C49      1.0000 0.32717  0.09771  0.27975  Biso   1.000  C
  C50      1.0000 0.32773  0.23422  0.52237  Biso   1.000  C
  C51      1.0000 0.32388  0.47380  0.14877  Biso   1.000  C
  H46      1.0000 0.29411  0.04788  0.33662  Biso   1.000  H
  H47      1.0000 0.29351  0.12310  0.21831  Biso   1.000  H
  C52      1.0000 0.42413  0.04352  0.26782  Biso   1.000  C
  H48      1.0000 0.29185  0.29514  0.52657  Biso   1.000  H
  H49      1.0000 0.29744  0.17551  0.56791  Biso   1.000  H
  C53      1.0000 0.42477  0.21310  0.55741  Biso   1.000  C
  H50      1.0000 0.28963  0.48225  0.09363  Biso   1.000  H
  H51      1.0000 0.29147  0.52441  0.17082  Biso   1.000  H
  C54      1.0000 0.42086  0.49481  0.10991  Biso   1.000  C
  H52      1.0000 0.42027  0.98607  0.25732  Biso   1.000  H
  H53      1.0000 0.45776  0.01812  0.32859  Biso   1.000  H
  H54      1.0000 0.45626  0.09169  0.20991  Biso   1.000  H
  H55      1.0000 0.42146  0.20250  0.62627  Biso   1.000  H
  H56      1.0000 0.46026  0.15192  0.55485  Biso   1.000  H
  H57      1.0000 0.45464  0.27153  0.51329  Biso   1.000  H
  H58      1.0000 0.45505  0.48608  0.16452  Biso   1.000  H
  H59      1.0000 0.45223  0.44702  0.08507  Biso   1.000  H
  H60      1.0000 0.41713  0.56491  0.05507  Biso   1.000  H
  C55      1.0000 0.33527  0.43015  0.61795  Biso   1.000  C
  N7       1.0000 0.24915  0.39771  0.62110  Biso   1.000  N
  H61      1.0000 0.36599  0.44575  0.55155  Biso   1.000  H
  H62      1.0000 0.37528  0.37114  0.66874  Biso   1.000  H
  C56      1.0000 0.33108  0.52091  0.63535  Biso   1.000  C
  C57      1.0000 0.17249  0.45102  0.62770  Biso   1.000  C
  C58      1.0000 0.32821  0.61962  0.55328  Biso   1.000  C
  C59      1.0000 0.33161  0.50468  0.73430  Biso   1.000  C
  C60      1.0000 0.08576  0.41864  0.63085  Biso   1.000  C
  H63      1.0000 0.17079  0.51209  0.63048  Biso   1.000  H
  C61      1.0000 0.32939  0.70154  0.57076  Biso   1.000  C
  C62      1.0000 0.32137  0.63703  0.44765  Biso   1.000  C
  C63      1.0000 0.33237  0.58745  0.75058  Biso   1.000  C
  C64      1.0000 0.32868  0.39960  0.82238  Biso   1.000  C
  C65      1.0000 0.08563  0.32696  0.63175  Biso   1.000  C
  C66      1.0000 0.00239  0.48004  0.63408  Biso   1.000  C
  C67      1.0000 0.33132  0.80608  0.48171  Biso   1.000  C
  C68      1.0000 0.33082  0.68679  0.66859  Biso   1.000  C
  H64      1.0000 0.28611  0.70628  0.40789  Biso   1.000  H
  H65      1.0000 0.28657  0.58761  0.45088  Biso   1.000  H
  C69      1.0000 0.41390  0.62645  0.39266  Biso   1.000  C
  C70      1.0000 0.33566  0.57156  0.85666  Biso   1.000  C
  H66      1.0000 0.29549  0.36283  0.80317  Biso   1.000  H
  H67      1.0000 0.29365  0.40721  0.87910  Biso   1.000  H
  C71      1.0000 0.42389  0.33521  0.85749  Biso   1.000  C
  H68      1.0000 0.14203  0.28389  0.63070  Biso   1.000  H
  C72      1.0000 0.00358  0.29830  0.63430  Biso   1.000  C
  H69      1.0000 0.00200  0.54212  0.63445  Biso   1.000  H
  C73      1.0000 0.91978  0.45201  0.63670  Biso   1.000  C
  N8       1.0000 0.24432  0.87198  0.43730  Biso   1.000  N
  H70      1.0000 0.36212  0.84382  0.50212  Biso   1.000  H
  H71      1.0000 0.37057  0.79649  0.42799  Biso   1.000  H
  C74      1.0000 0.32887  0.77603  0.68719  Biso   1.000  C
  H72      1.0000 0.40351  0.64248  0.32409  Biso   1.000  H
  H73      1.0000 0.44738  0.55629  0.42829  Biso   1.000  H
  H74      1.0000 0.44965  0.67365  0.39056  Biso   1.000  H
  N9       1.0000 0.24940  0.58878  0.90933  Biso   1.000  N
  H75      1.0000 0.36686  0.50054  0.89830  Biso   1.000  H
  H76      1.0000 0.37490  0.61704  0.85396  Biso   1.000  H
  H77      1.0000 0.45906  0.32727  0.80175  Biso   1.000  H
  H78      1.0000 0.41720  0.26787  0.91315  Biso   1.000  H
  H79      1.0000 0.45609  0.36932  0.88000  Biso   1.000  H
  H80      1.0000 0.00397  0.23582  0.63460  Biso   1.000  H
  C75      1.0000 0.92096  0.36044  0.63625  Biso   1.000  C
  C76      1.0000 0.83217  0.51850  0.64038  Biso   1.000  C
  C77      1.0000 0.16851  0.84664  0.47916  Biso   1.000  C
  H81      1.0000 0.29722  0.76265  0.75276  Biso   1.000  H
  H82      1.0000 0.29313  0.83809  0.63468  Biso   1.000  H
  C78      1.0000 0.42467  0.79564  0.68697  Biso   1.000  C
  C79      1.0000 0.17329  0.60413  0.87384  Biso   1.000  C
  H83      1.0000 0.86496  0.34077  0.63745  Biso   1.000  H
  N10      1.0000 0.75607  0.49440  0.64338  Biso   1.000  N
  H84      1.0000 0.83309  0.58042  0.64068  Biso   1.000  H
  C80      1.0000 0.08071  0.91254  0.43377  Biso   1.000  C
  H85      1.0000 0.16779  0.78495  0.54015  Biso   1.000  H
  H86      1.0000 0.45551  0.81182  0.62117  Biso   1.000  H
  H87      1.0000 0.46050  0.73441  0.73888  Biso   1.000  H
  H88      1.0000 0.41938  0.85293  0.70070  Biso   1.000  H
  C81      1.0000 0.08633  0.62001  0.92748  Biso   1.000  C
  H89      1.0000 0.17189  0.60552  0.81128  Biso   1.000  H
  C82      1.0000 0.66938  0.56176  0.64706  Biso   1.000  C
  C83      1.0000 0.99782  0.88551  0.48208  Biso   1.000  C
  C84      1.0000 0.07974  0.00185  0.34217  Biso   1.000  C
  C85      1.0000 0.00310  0.63484  0.88720  Biso   1.000  C
  C86      1.0000 0.08547  0.61887  0.01928  Biso   1.000  C
  C87      1.0000 0.67322  0.64973  0.66551  Biso   1.000  C
  H90      1.0000 0.62907  0.51864  0.70047  Biso   1.000  H
  H91      1.0000 0.63938  0.59044  0.58269  Biso   1.000  H
  C88      1.0000 0.91443  0.94539  0.44210  Biso   1.000  C
  H92      1.0000 0.99824  0.82463  0.54405  Biso   1.000  H
  C89      1.0000 0.99716  0.06190  0.30098  Biso   1.000  C
  H93      1.0000 0.13573  0.02119  0.30819  Biso   1.000  H
  C90      1.0000 0.91980  0.64882  0.93709  Biso   1.000  C
  H94      1.0000 0.00310  0.63532  0.82471  Biso   1.000  H
  H95      1.0000 0.14165  0.60885  0.04771  Biso   1.000  H
  C91      1.0000 0.00293  0.63216  0.06962  Biso   1.000  C
  C92      1.0000 0.67539  0.63301  0.76409  Biso   1.000  C
  C93      1.0000 0.67269  0.74810  0.58441  Biso   1.000  C
  C94      1.0000 0.82734  0.91494  0.49446  Biso   1.000  C
  C95      1.0000 0.91493  0.03409  0.35050  Biso   1.000  C
  H96      1.0000 0.99661  0.12245  0.23857  Biso   1.000  H
  C96      1.0000 0.83263  0.66644  0.89155  Biso   1.000  C
  C97      1.0000 0.92065  0.64781  0.02888  Biso   1.000  C
  H97      1.0000 0.00304  0.63070  0.13249  Biso   1.000  H
  C98      1.0000 0.67338  0.71474  0.78224  Biso   1.000  C
  C99      1.0000 0.67632  0.52625  0.85119  Biso   1.000  C
  C100     1.0000 0.67069  0.83060  0.60264  Biso   1.000  C
  C101     1.0000 0.67242  0.76583  0.47758  Biso   1.000  C
  N11      1.0000 0.75112  0.96891  0.46048  Biso   1.000  N
  H98      1.0000 0.82891  0.85278  0.55560  Biso   1.000  H
  H99      1.0000 0.85856  0.07593  0.32176  Biso   1.000  H
  N12      1.0000 0.75634  0.68132  0.93439  Biso   1.000  N
  H100     1.0000 0.83385  0.66641  0.82928  Biso   1.000  H
  H101     1.0000 0.86457  0.65781  0.06339  Biso   1.000  H
  C102     1.0000 0.67239  0.81381  0.70137  Biso   1.000  C
  C103     1.0000 0.67004  0.69881  0.88855  Biso   1.000  C
  H102     1.0000 0.71052  0.51773  0.90633  Biso   1.000  H
  H103     1.0000 0.70868  0.47564  0.82913  Biso   1.000  H
  C104     1.0000 0.57928  0.50524  0.89005  Biso   1.000  C
  C105     1.0000 0.66498  0.93705  0.51494  Biso   1.000  C
  H104     1.0000 0.70829  0.70490  0.47338  Biso   1.000  H
  H105     1.0000 0.70270  0.82450  0.43212  Biso   1.000  H
  C106     1.0000 0.57537  0.78695  0.44255  Biso   1.000  C
  C107     1.0000 0.67304  0.90234  0.72020  Biso   1.000  C
  H106     1.0000 0.63014  0.75955  0.89005  Biso   1.000  H
  H107     1.0000 0.63951  0.63983  0.93213  Biso   1.000  H
  H108     1.0000 0.54509  0.51397  0.83543  Biso   1.000  H
  H109     1.0000 0.54791  0.55303  0.91488  Biso   1.000  H
  H110     1.0000 0.58301  0.43514  0.94489  Biso   1.000  H
  H111     1.0000 0.62394  0.94362  0.46595  Biso   1.000  H
  H112     1.0000 0.63535  0.98599  0.53978  Biso   1.000  H
  H113     1.0000 0.57870  0.79748  0.37368  Biso   1.000  H
  H114     1.0000 0.53988  0.84813  0.44510  Biso   1.000  H
  H115     1.0000 0.54550  0.72852  0.48666  Biso   1.000  H
  H116     1.0000 0.70603  0.95213  0.66341  Biso   1.000  H
  H117     1.0000 0.70663  0.87695  0.78164  Biso   1.000  H
  C108     1.0000 0.57601  0.95649  0.73220  Biso   1.000  C
  H118     1.0000 0.54245  0.98193  0.67136  Biso   1.000  H
  H119     1.0000 0.54395  0.90835  0.79005  Biso   1.000  H
  H120     1.0000 0.57987  0.01394  0.74271  Biso   1.000  H
  Ne1      1.0000 0.99929  0.33311  0.33220  Biso   1.000  Ne
  He1      1.0000 0.00000  0.00000  0.00000  Biso   1.000  He
  He2      1.0000 0.91711  0.32503  0.32841  Biso   1.000  He
  He3      1.0000 0.08014  0.35233  0.30115  Biso   1.000  He
  Ar1      1.0000 0.99921  0.33223  0.33250  Biso   1.000  Ar
  Ne2      1.0000 0.00086  0.66693  0.66776  Biso   1.000  Ne
  He4      1.0000 0.00000  0.00000  0.00000  Biso   1.000  He
  He5      1.0000 0.91826  0.70731  0.67697  Biso   1.000  He
  He6      1.0000 0.00000  0.00000  0.00000  Biso   1.000  He
  Ar2      1.0000 0.00095  0.66780  0.66750  Biso   1.000  Ar
