data_image0
_cell_length_a       11.925
_cell_length_b       14.165
_cell_length_c       14.553
_cell_angle_alpha    73.95
_cell_angle_beta     70.6
_cell_angle_gamma    88.03

_symmetry_space_group_name_H-M    "P 1"
_symmetry_int_tables_number       1

loop_
  _symmetry_equiv_pos_as_xyz
  'x, y, z'

loop_
  _atom_site_label
  _atom_site_occupancy
  _atom_site_fract_x
  _atom_site_fract_y
  _atom_site_fract_z
  _atom_site_thermal_displace_type
  _atom_site_B_iso_or_equiv
  _atom_site_type_symbol
  C1       1.0000 0.67060  0.54881  0.47537  Biso   1.000  C
  C2       1.0000 0.68388  0.46199  0.44637  Biso   1.000  C
  C3       1.0000 0.63803  0.63382  0.41745  Biso   1.000  C
  H1       1.0000 0.68401  0.54997  0.53587  Biso   1.000  H
  C4       1.0000 0.66116  0.46020  0.35861  Biso   1.000  C
  C5       1.0000 0.72719  0.37561  0.50566  Biso   1.000  C
  C6       1.0000 0.61723  0.63099  0.32939  Biso   1.000  C
  C7       1.0000 0.62847  0.72515  0.44857  Biso   1.000  C
  C8       1.0000 0.62835  0.54435  0.30077  Biso   1.000  C
  H2       1.0000 0.66820  0.40120  0.33873  Biso   1.000  H
  N1       1.0000 0.75458  0.29972  0.47491  Biso   1.000  N
  H3       1.0000 0.73471  0.37690  0.56829  Biso   1.000  H
  H4       1.0000 0.59549  0.68856  0.28870  Biso   1.000  H
  N2       1.0000 0.61622  0.80703  0.39050  Biso   1.000  N
  H5       1.0000 0.63155  0.72267  0.51363  Biso   1.000  H
  H6       1.0000 0.61329  0.54291  0.24102  Biso   1.000  H
  C9       1.0000 0.80102  0.21685  0.53481  Biso   1.000  C
  C10      1.0000 0.60344  0.89608  0.42504  Biso   1.000  C
  C11      1.0000 0.81081  0.22540  0.63350  Biso   1.000  C
  H7       1.0000 0.74940  0.15714  0.55068  Biso   1.000  H
  H8       1.0000 0.88129  0.20594  0.49139  Biso   1.000  H
  C12      1.0000 0.61736  0.88975  0.52623  Biso   1.000  C
  H9       1.0000 0.66273  0.94728  0.37251  Biso   1.000  H
  H10      1.0000 0.52367  0.91959  0.42770  Biso   1.000  H
  C13      1.0000 0.91375  0.26953  0.63433  Biso   1.000  C
  C14      1.0000 0.71390  0.19192  0.72391  Biso   1.000  C
  C15      1.0000 0.51728  0.86398  0.61558  Biso   1.000  C
  C16      1.0000 0.72878  0.91309  0.53056  Biso   1.000  C
  C17      1.0000 0.92365  0.27250  0.72710  Biso   1.000  C
  C18      1.0000 0.01140  0.31937  0.53549  Biso   1.000  C
  C19      1.0000 0.72412  0.19471  0.81652  Biso   1.000  C
  C20      1.0000 0.59750  0.15802  0.71844  Biso   1.000  C
  C21      1.0000 0.52843  0.86577  0.70850  Biso   1.000  C
  C22      1.0000 0.39914  0.83313  0.61163  Biso   1.000  C
  C23      1.0000 0.73813  0.91786  0.62264  Biso   1.000  C
  C24      1.0000 0.83832  0.93160  0.43597  Biso   1.000  C
  C25      1.0000 0.82916  0.23484  0.81857  Biso   1.000  C
  C26      1.0000 0.03499  0.31958  0.72801  Biso   1.000  C
  H11      1.0000 0.97977  0.33247  0.47939  Biso   1.000  H
  H12      1.0000 0.03987  0.38159  0.53967  Biso   1.000  H
  H13      1.0000 0.07755  0.27624  0.52373  Biso   1.000  H
  C27      1.0000 0.61964  0.15761  0.91377  Biso   1.000  C
  H14      1.0000 0.53190  0.16125  0.77940  Biso   1.000  H
  H15      1.0000 0.58353  0.20087  0.65817  Biso   1.000  H
  H16      1.0000 0.60186  0.09012  0.71412  Biso   1.000  H
  C28      1.0000 0.63853  0.89253  0.71245  Biso   1.000  C
  C29      1.0000 0.41895  0.84194  0.80369  Biso   1.000  C
  H17      1.0000 0.41324  0.79938  0.55872  Biso   1.000  H
  H18      1.0000 0.35278  0.78846  0.67753  Biso   1.000  H
  H19      1.0000 0.35476  0.89148  0.59607  Biso   1.000  H
  C30      1.0000 0.85326  0.95638  0.62644  Biso   1.000  C
  H20      1.0000 0.90814  0.90887  0.45510  Biso   1.000  H
  H21      1.0000 0.82701  0.89569  0.39073  Biso   1.000  H
  H22      1.0000 0.85074  0.00217  0.40090  Biso   1.000  H
  C31      1.0000 0.84031  0.23959  0.91802  Biso   1.000  C
  N3       1.0000 0.01901  0.42432  0.72315  Biso   1.000  N
  H23      1.0000 0.10369  0.31365  0.66918  Biso   1.000  H
  H24      1.0000 0.05170  0.28515  0.79079  Biso   1.000  H
  N4       1.0000 0.53162  0.22938  0.94224  Biso   1.000  N
  H25      1.0000 0.65140  0.13139  0.97002  Biso   1.000  H
  H26      1.0000 0.57738  0.10181  0.90777  Biso   1.000  H
  C32      1.0000 0.65137  0.89374  0.81242  Biso   1.000  C
  N5       1.0000 0.38728  0.73803  0.86146  Biso   1.000  N
  H27      1.0000 0.34995  0.86908  0.78396  Biso   1.000  H
  H28      1.0000 0.43045  0.87765  0.84993  Biso   1.000  H
  N6       1.0000 0.92998  0.88642  0.66826  Biso   1.000  N
  H29      1.0000 0.90155  0.99308  0.55637  Biso   1.000  H
  H30      1.0000 0.83252  0.00462  0.66652  Biso   1.000  H
  H31      1.0000 0.87658  0.18042  0.94641  Biso   1.000  H
  H32      1.0000 0.89050  0.29803  0.90603  Biso   1.000  H
  H33      1.0000 0.76104  0.24313  0.96592  Biso   1.000  H
  C33      1.0000 0.05177  0.45619  0.78373  Biso   1.000  C
  C34      1.0000 0.55629  0.32061  0.89805  Biso   1.000  C
  H34      1.0000 0.59454  0.84434  0.86822  Biso   1.000  H
  H35      1.0000 0.73263  0.87857  0.81106  Biso   1.000  H
  H36      1.0000 0.63524  0.95904  0.82267  Biso   1.000  H
  C35      1.0000 0.45724  0.67186  0.84120  Biso   1.000  C
  C36      1.0000 0.91039  0.79477  0.68755  Biso   1.000  C
  C37      1.0000 0.04511  0.55915  0.78669  Biso   1.000  C
  H37      1.0000 0.08242  0.41116  0.82996  Biso   1.000  H
  C38      1.0000 0.47133  0.39502  0.92493  Biso   1.000  C
  H38      1.0000 0.63143  0.34151  0.84628  Biso   1.000  H
  C39      1.0000 0.42406  0.56705  0.89760  Biso   1.000  C
  H39      1.0000 0.53239  0.68972  0.78889  Biso   1.000  H
  H40      1.0000 0.84910  0.77085  0.67009  Biso   1.000  H
  C40      1.0000 0.98174  0.72417  0.73689  Biso   1.000  C
  C41      1.0000 0.97966  0.62626  0.73742  Biso   1.000  C
  C42      1.0000 0.10905  0.59152  0.83793  Biso   1.000  C
  C43      1.0000 0.50282  0.49479  0.87505  Biso   1.000  C
  C44      1.0000 0.35880  0.36775  0.99902  Biso   1.000  C
  C45      1.0000 0.31244  0.53780  0.97275  Biso   1.000  C
  C46      1.0000 0.05089  0.75593  0.78570  Biso   1.000  C
  H41      1.0000 0.93365  0.60439  0.70417  Biso   1.000  H
  H42      1.0000 0.15072  0.54594  0.87399  Biso   1.000  H
  C47      1.0000 0.11274  0.68962  0.83694  Biso   1.000  C
  H43      1.0000 0.57926  0.51393  0.82480  Biso   1.000  H
  H44      1.0000 0.33599  0.30031  0.03333  Biso   1.000  H
  C48      1.0000 0.28018  0.43909  0.02255  Biso   1.000  C
  H45      1.0000 0.25838  0.58608  0.98976  Biso   1.000  H
  H46      1.0000 0.05506  0.82343  0.78350  Biso   1.000  H
  H47      1.0000 0.15758  0.71113  0.87126  Biso   1.000  H
  H48      1.0000 0.20390  0.42002  0.07303  Biso   1.000  H
  C49      1.0000 0.32942  0.45110  0.52464  Biso   1.000  C
  C50      1.0000 0.36190  0.36608  0.58256  Biso   1.000  C
  C51      1.0000 0.31604  0.53792  0.55364  Biso   1.000  C
  H49      1.0000 0.31603  0.44996  0.46406  Biso   1.000  H
  C52      1.0000 0.37146  0.27476  0.55143  Biso   1.000  C
  C53      1.0000 0.38269  0.36892  0.67062  Biso   1.000  C
  C54      1.0000 0.33879  0.53980  0.64132  Biso   1.000  C
  C55      1.0000 0.27273  0.62430  0.49435  Biso   1.000  C
  N7       1.0000 0.38371  0.19288  0.60951  Biso   1.000  N
  H50      1.0000 0.36837  0.27731  0.48638  Biso   1.000  H
  H51      1.0000 0.40444  0.31134  0.71131  Biso   1.000  H
  C56      1.0000 0.37158  0.45556  0.69924  Biso   1.000  C
  H52      1.0000 0.33181  0.59878  0.66128  Biso   1.000  H
  N8       1.0000 0.24535  0.70019  0.52509  Biso   1.000  N
  H53      1.0000 0.26522  0.62308  0.43172  Biso   1.000  H
  C57      1.0000 0.39648  0.10390  0.57497  Biso   1.000  C
  H54      1.0000 0.38671  0.45707  0.75898  Biso   1.000  H
  C58      1.0000 0.19890  0.78313  0.46520  Biso   1.000  C
  C59      1.0000 0.38257  0.11015  0.47378  Biso   1.000  C
  H55      1.0000 0.33720  0.05263  0.62750  Biso   1.000  H
  H56      1.0000 0.47626  0.08032  0.57231  Biso   1.000  H
  C60      1.0000 0.18911  0.77451  0.36651  Biso   1.000  C
  H57      1.0000 0.25053  0.84277  0.44933  Biso   1.000  H
  H58      1.0000 0.11864  0.79397  0.50862  Biso   1.000  H
  C61      1.0000 0.27115  0.08682  0.46945  Biso   1.000  C
  C62      1.0000 0.48267  0.13595  0.38435  Biso   1.000  C
  C63      1.0000 0.08618  0.73037  0.36567  Biso   1.000  C
  C64      1.0000 0.28611  0.80806  0.27610  Biso   1.000  C
  C65      1.0000 0.26179  0.08212  0.37737  Biso   1.000  C
  C66      1.0000 0.16161  0.06838  0.56404  Biso   1.000  C
  C67      1.0000 0.47152  0.13422  0.29143  Biso   1.000  C
  C68      1.0000 0.60087  0.16685  0.38837  Biso   1.000  C
  C69      1.0000 0.07636  0.72748  0.27291  Biso   1.000  C
  C70      1.0000 0.98856  0.68056  0.46444  Biso   1.000  C
  C71      1.0000 0.27583  0.80528  0.18341  Biso   1.000  C
  C72      1.0000 0.40243  0.84189  0.28156  Biso   1.000  C
  C73      1.0000 0.14669  0.04361  0.37349  Biso   1.000  C
  C74      1.0000 0.36140  0.10738  0.28756  Biso   1.000  C
  H59      1.0000 0.09179  0.09104  0.54491  Biso   1.000  H
  H60      1.0000 0.17291  0.10429  0.60928  Biso   1.000  H
  H61      1.0000 0.14928  0.99774  0.59911  Biso   1.000  H
  C75      1.0000 0.58097  0.15797  0.19631  Biso   1.000  C
  H62      1.0000 0.58668  0.20060  0.44128  Biso   1.000  H
  H63      1.0000 0.64722  0.21151  0.32248  Biso   1.000  H
  H64      1.0000 0.64520  0.10845  0.40386  Biso   1.000  H
  C76      1.0000 0.96494  0.68040  0.27200  Biso   1.000  C
  C77      1.0000 0.17077  0.76506  0.18143  Biso   1.000  C
  H65      1.0000 0.02016  0.66743  0.52061  Biso   1.000  H
  H66      1.0000 0.96008  0.61841  0.46026  Biso   1.000  H
  H67      1.0000 0.92237  0.72367  0.47628  Biso   1.000  H
  C78      1.0000 0.38029  0.84237  0.08624  Biso   1.000  C
  H68      1.0000 0.46803  0.83873  0.22060  Biso   1.000  H
  H69      1.0000 0.41650  0.79912  0.34176  Biso   1.000  H
  H70      1.0000 0.39807  0.90979  0.28589  Biso   1.000  H
  N9       1.0000 0.06995  0.11349  0.33174  Biso   1.000  N
  H71      1.0000 0.09841  0.00685  0.44356  Biso   1.000  H
  H72      1.0000 0.16740  0.99528  0.33349  Biso   1.000  H
  C79      1.0000 0.34859  0.10619  0.18751  Biso   1.000  C
  N10      1.0000 0.61264  0.26188  0.13854  Biso   1.000  N
  H73      1.0000 0.65000  0.13092  0.21597  Biso   1.000  H
  H74      1.0000 0.56947  0.12233  0.15008  Biso   1.000  H
  N11      1.0000 0.98092  0.57559  0.27686  Biso   1.000  N
  H75      1.0000 0.89624  0.68626  0.33083  Biso   1.000  H
  H76      1.0000 0.94822  0.71482  0.20922  Biso   1.000  H
  C80      1.0000 0.15962  0.76039  0.08199  Biso   1.000  C
  N12      1.0000 0.46834  0.77055  0.05769  Biso   1.000  N
  H77      1.0000 0.34852  0.86852  0.02999  Biso   1.000  H
  H78      1.0000 0.42254  0.89810  0.09223  Biso   1.000  H
  C81      1.0000 0.08953  0.20513  0.31246  Biso   1.000  C
  H79      1.0000 0.40538  0.15557  0.13179  Biso   1.000  H
  H80      1.0000 0.26733  0.12143  0.18887  Biso   1.000  H
  H81      1.0000 0.36469  0.04087  0.17733  Biso   1.000  H
  C82      1.0000 0.54269  0.32812  0.15881  Biso   1.000  C
  C83      1.0000 0.94819  0.54374  0.21620  Biso   1.000  C
  H82      1.0000 0.12334  0.81948  0.05359  Biso   1.000  H
  H83      1.0000 0.10943  0.70188  0.09398  Biso   1.000  H
  H84      1.0000 0.23889  0.75678  0.03409  Biso   1.000  H
  C84      1.0000 0.44364  0.67936  0.10195  Biso   1.000  C
  H85      1.0000 0.15091  0.22905  0.32992  Biso   1.000  H
  C85      1.0000 0.01818  0.27573  0.26312  Biso   1.000  C
  C86      1.0000 0.57586  0.43292  0.10241  Biso   1.000  C
  H86      1.0000 0.46754  0.31018  0.21111  Biso   1.000  H
  C87      1.0000 0.95482  0.44076  0.21332  Biso   1.000  C
  H87      1.0000 0.91754  0.58884  0.16997  Biso   1.000  H
  C88      1.0000 0.52860  0.60496  0.07508  Biso   1.000  C
  H88      1.0000 0.36858  0.65840  0.15372  Biso   1.000  H
  C89      1.0000 0.02027  0.37371  0.26258  Biso   1.000  C
  C90      1.0000 0.94912  0.24405  0.21430  Biso   1.000  C
  C91      1.0000 0.68748  0.46217  0.02725  Biso   1.000  C
  C92      1.0000 0.49711  0.50511  0.12495  Biso   1.000  C
  C93      1.0000 0.89087  0.40839  0.16207  Biso   1.000  C
  C94      1.0000 0.64121  0.63223  0.00099  Biso   1.000  C
  H89      1.0000 0.06627  0.39559  0.29583  Biso   1.000  H
  H90      1.0000 0.94486  0.17648  0.21650  Biso   1.000  H
  C95      1.0000 0.88718  0.31029  0.16306  Biso   1.000  C
  H91      1.0000 0.74157  0.41392  0.01017  Biso   1.000  H
  C96      1.0000 0.71974  0.56089  0.97746  Biso   1.000  C
  H92      1.0000 0.42066  0.48597  0.17521  Biso   1.000  H
  H93      1.0000 0.84929  0.45397  0.12602  Biso   1.000  H
  H94      1.0000 0.66394  0.69967  0.96668  Biso   1.000  H
  H95      1.0000 0.84238  0.28880  0.12867  Biso   1.000  H
  H96      1.0000 0.79611  0.57995  0.92698  Biso   1.000  H
  Ne1      1.0000 0.71232  0.56038  0.68677  Biso   1.000  Ne
  He1      1.0000 0.73315  0.62944  0.75259  Biso   1.000  He
  He2      1.0000 0.53910  0.59817  0.66281  Biso   1.000  He
  He3      1.0000 0.79313  0.63962  0.60766  Biso   1.000  He
  Ar1      1.0000 0.73779  0.62100  0.66357  Biso   1.000  Ar
  Ne2      1.0000 0.28762  0.43956  0.31323  Biso   1.000  Ne
  He4      1.0000 0.11805  0.47572  0.42072  Biso   1.000  He
  He5      1.0000 0.31430  0.36570  0.33987  Biso   1.000  He
  He6      1.0000 0.27685  0.36293  0.21503  Biso   1.000  He
  Ar2      1.0000 0.18871  0.41268  0.38621  Biso   1.000  Ar
