data_image0
_cell_length_a       16.186
_cell_length_b       16.186
_cell_length_c       16.61
_cell_angle_alpha    90
_cell_angle_beta     90
_cell_angle_gamma    120

_symmetry_space_group_name_H-M    "P 1"
_symmetry_int_tables_number       1

loop_
  _symmetry_equiv_pos_as_xyz
  'x, y, z'

loop_
  _atom_site_label
  _atom_site_occupancy
  _atom_site_fract_x
  _atom_site_fract_y
  _atom_site_fract_z
  _atom_site_thermal_displace_type
  _atom_site_B_iso_or_equiv
  _atom_site_type_symbol
  N1       1.0000 0.68411  0.56579  0.21583  Biso   1.000  N
  C1       1.0000 0.68338  0.52121  0.29422  Biso   1.000  C
  C2       1.0000 0.68492  0.52863  0.15129  Biso   1.000  C
  C3       1.0000 0.67209  0.42190  0.28940  Biso   1.000  C
  H1       1.0000 0.63059  0.51721  0.32733  Biso   1.000  H
  H2       1.0000 0.74372  0.56380  0.32270  Biso   1.000  H
  H3       1.0000 0.68769  0.47127  0.15099  Biso   1.000  H
  C4       1.0000 0.68161  0.57328  0.07333  Biso   1.000  C
  C5       1.0000 0.58628  0.34593  0.28892  Biso   1.000  C
  C6       1.0000 0.75961  0.41370  0.28892  Biso   1.000  C
  C7       1.0000 0.66908  0.64990  0.07200  Biso   1.000  C
  C8       1.0000 0.68588  0.53141  0.00000  Biso   1.000  C
  C9       1.0000 0.49458  0.35392  0.28700  Biso   1.000  C
  C10      1.0000 0.57808  0.25019  0.28940  Biso   1.000  C
  C11      1.0000 0.85926  0.50537  0.28700  Biso   1.000  C
  C12      1.0000 0.74975  0.32788  0.28940  Biso   1.000  C
  H4       1.0000 0.66318  0.67665  0.12101  Biso   1.000  H
  C13      1.0000 0.66498  0.68878  0.00000  Biso   1.000  C
  H5       1.0000 0.69167  0.47576  0.00000  Biso   1.000  H
  C14      1.0000 0.68161  0.57328  0.92673  Biso   1.000  C
  H6       1.0000 0.44098  0.29392  0.26743  Biso   1.000  H
  H7       1.0000 0.50448  0.40621  0.25111  Biso   1.000  H
  H8       1.0000 0.48052  0.36683  0.34148  Biso   1.000  H
  C15      1.0000 0.47880  0.16223  0.29422  Biso   1.000  C
  C16      1.0000 0.65413  0.24041  0.28892  Biso   1.000  C
  H9       1.0000 0.85290  0.55902  0.26743  Biso   1.000  H
  H10      1.0000 0.90172  0.49552  0.25111  Biso   1.000  H
  H11      1.0000 0.88628  0.51949  0.34148  Biso   1.000  H
  C17      1.0000 0.83778  0.31660  0.29422  Biso   1.000  C
  Br1      1.0000 0.65263  0.80000  0.00000  Biso   1.000  Br
  C18      1.0000 0.66908  0.64990  0.92800  Biso   1.000  C
  C19      1.0000 0.68492  0.52863  0.84871  Biso   1.000  C
  N2       1.0000 0.43416  0.11828  0.21583  Biso   1.000  N
  H12      1.0000 0.48282  0.11343  0.32733  Biso   1.000  H
  H13      1.0000 0.43618  0.17992  0.32270  Biso   1.000  H
  C20      1.0000 0.64609  0.14068  0.28700  Biso   1.000  C
  N3       1.0000 0.88166  0.31589  0.21583  Biso   1.000  N
  H14      1.0000 0.88660  0.36940  0.32733  Biso   1.000  H
  H15      1.0000 0.82012  0.25632  0.32270  Biso   1.000  H
  H16      1.0000 0.66318  0.67665  0.87905  Biso   1.000  H
  N4       1.0000 0.68411  0.56579  0.78423  Biso   1.000  N
  H17      1.0000 0.68769  0.47127  0.84901  Biso   1.000  H
  C21      1.0000 0.47139  0.15630  0.15129  Biso   1.000  C
  H18      1.0000 0.70607  0.14710  0.26743  Biso   1.000  H
  H19      1.0000 0.59382  0.09831  0.25111  Biso   1.000  H
  H20      1.0000 0.63322  0.11372  0.34148  Biso   1.000  H
  C22      1.0000 0.84370  0.31511  0.15129  Biso   1.000  C
  C23      1.0000 0.68338  0.52121  0.70584  Biso   1.000  C
  H21      1.0000 0.52867  0.21637  0.15099  Biso   1.000  H
  C24      1.0000 0.42669  0.10829  0.07333  Biso   1.000  C
  H22      1.0000 0.78362  0.31232  0.15099  Biso   1.000  H
  C25      1.0000 0.89168  0.31839  0.07333  Biso   1.000  C
  H23      1.0000 0.63059  0.51721  0.67273  Biso   1.000  H
  H24      1.0000 0.74372  0.56380  0.67730  Biso   1.000  H
  C26      1.0000 0.67209  0.42190  0.71060  Biso   1.000  C
  C27      1.0000 0.35007  0.01919  0.07200  Biso   1.000  C
  C28      1.0000 0.46859  0.15452  0.00000  Biso   1.000  C
  C29      1.0000 0.98077  0.33087  0.07200  Biso   1.000  C
  C30      1.0000 0.84549  0.31411  0.00000  Biso   1.000  C
  C31      1.0000 0.75961  0.41370  0.71114  Biso   1.000  C
  C32      1.0000 0.58628  0.34593  0.71114  Biso   1.000  C
  H25      1.0000 0.32332  0.98655  0.12101  Biso   1.000  H
  C33      1.0000 0.31122  0.97621  0.00000  Biso   1.000  C
  H26      1.0000 0.52416  0.21587  0.00000  Biso   1.000  H
  C34      1.0000 0.42669  0.10829  0.92673  Biso   1.000  C
  H27      1.0000 0.01351  0.33679  0.12101  Biso   1.000  H
  C35      1.0000 0.02380  0.33501  0.00000  Biso   1.000  C
  H28      1.0000 0.78409  0.30833  0.00000  Biso   1.000  H
  C36      1.0000 0.89168  0.31839  0.92673  Biso   1.000  C
  C37      1.0000 0.85926  0.50537  0.71300  Biso   1.000  C
  C38      1.0000 0.74975  0.32788  0.71060  Biso   1.000  C
  C39      1.0000 0.57808  0.25019  0.71060  Biso   1.000  C
  C40      1.0000 0.49458  0.35392  0.71300  Biso   1.000  C
  Br2      1.0000 0.19998  0.85258  0.00000  Biso   1.000  Br
  C41      1.0000 0.35007  0.01919  0.92800  Biso   1.000  C
  C42      1.0000 0.47139  0.15630  0.84871  Biso   1.000  C
  C43      1.0000 0.98077  0.33087  0.92800  Biso   1.000  C
  Br3      1.0000 0.14739  0.34742  0.00000  Biso   1.000  Br
  C44      1.0000 0.84370  0.31511  0.84871  Biso   1.000  C
  H29      1.0000 0.85290  0.55902  0.73263  Biso   1.000  H
  H30      1.0000 0.90172  0.49552  0.74895  Biso   1.000  H
  H31      1.0000 0.88628  0.51949  0.65852  Biso   1.000  H
  C45      1.0000 0.83778  0.31660  0.70584  Biso   1.000  C
  C46      1.0000 0.65413  0.24041  0.71114  Biso   1.000  C
  C47      1.0000 0.47880  0.16223  0.70584  Biso   1.000  C
  H32      1.0000 0.44098  0.29392  0.73263  Biso   1.000  H
  H33      1.0000 0.50448  0.40621  0.74895  Biso   1.000  H
  H34      1.0000 0.48052  0.36683  0.65852  Biso   1.000  H
  H35      1.0000 0.32332  0.98655  0.87905  Biso   1.000  H
  N5       1.0000 0.43416  0.11828  0.78423  Biso   1.000  N
  H36      1.0000 0.52867  0.21637  0.84901  Biso   1.000  H
  H37      1.0000 0.01351  0.33679  0.87905  Biso   1.000  H
  N6       1.0000 0.88166  0.31589  0.78423  Biso   1.000  N
  H38      1.0000 0.78362  0.31232  0.84901  Biso   1.000  H
  H39      1.0000 0.88660  0.36940  0.67273  Biso   1.000  H
  H40      1.0000 0.82012  0.25632  0.67730  Biso   1.000  H
  C48      1.0000 0.64609  0.14068  0.71300  Biso   1.000  C
  H41      1.0000 0.48282  0.11343  0.67273  Biso   1.000  H
  H42      1.0000 0.43618  0.17992  0.67730  Biso   1.000  H
  H43      1.0000 0.70607  0.14710  0.73263  Biso   1.000  H
  H44      1.0000 0.59382  0.09831  0.74895  Biso   1.000  H
  H45      1.0000 0.63322  0.11372  0.65852  Biso   1.000  H
  C49      1.0000 0.66706  0.70419  0.42872  Biso   1.000  C
  C50      1.0000 0.62933  0.66060  0.50000  Biso   1.000  C
  C51      1.0000 0.74389  0.79558  0.42739  Biso   1.000  C
  H46      1.0000 0.64050  0.67159  0.37959  Biso   1.000  H
  Br4      1.0000 0.52688  0.53369  0.50000  Biso   1.000  Br
  C52      1.0000 0.66706  0.70419  0.57134  Biso   1.000  C
  C53      1.0000 0.78958  0.84359  0.35099  Biso   1.000  C
  C54      1.0000 0.78338  0.84280  0.50000  Biso   1.000  C
  C55      1.0000 0.74389  0.79558  0.57261  Biso   1.000  C
  H47      1.0000 0.64050  0.67159  0.62041  Biso   1.000  H
  N7       1.0000 0.75028  0.81120  0.28332  Biso   1.000  N
  H48      1.0000 0.84998  0.90038  0.35262  Biso   1.000  H
  H49      1.0000 0.83621  0.90608  0.50000  Biso   1.000  H
  C56      1.0000 0.78958  0.84359  0.64901  Biso   1.000  C
  C57      1.0000 0.79999  0.86157  0.20722  Biso   1.000  C
  N8       1.0000 0.75028  0.81120  0.71674  Biso   1.000  N
  H50      1.0000 0.84998  0.90038  0.64744  Biso   1.000  H
  C58      1.0000 0.90246  0.93305  0.21343  Biso   1.000  C
  H51      1.0000 0.79277  0.81277  0.16749  Biso   1.000  H
  H52      1.0000 0.76649  0.89367  0.18519  Biso   1.000  H
  C59      1.0000 0.79999  0.86157  0.79284  Biso   1.000  C
  C60      1.0000 0.97187  0.90309  0.21632  Biso   1.000  C
  C61      1.0000 0.93117  0.02804  0.21632  Biso   1.000  C
  C62      1.0000 0.90246  0.93305  0.78663  Biso   1.000  C
  H53      1.0000 0.79277  0.81277  0.83251  Biso   1.000  H
  H54      1.0000 0.76649  0.89367  0.81481  Biso   1.000  H
  C63      1.0000 0.93656  0.79465  0.21921  Biso   1.000  C
  C64      1.0000 0.06691  0.96936  0.21343  Biso   1.000  C
  C65      1.0000 0.85810  0.06342  0.21921  Biso   1.000  C
  C66      1.0000 0.03060  0.09752  0.21343  Biso   1.000  C
  C67      1.0000 0.97187  0.90309  0.78374  Biso   1.000  C
  C68      1.0000 0.93117  0.02804  0.78374  Biso   1.000  C
  H55      1.0000 0.91541  0.76718  0.16538  Biso   1.000  H
  H56      1.0000 0.88328  0.76347  0.25713  Biso   1.000  H
  H57      1.0000 0.98878  0.78481  0.23679  Biso   1.000  H
  C69      1.0000 0.13842  0.93840  0.20722  Biso   1.000  C
  C70      1.0000 0.09691  0.06877  0.21632  Biso   1.000  C
  H58      1.0000 0.85173  0.08454  0.16538  Biso   1.000  H
  H59      1.0000 0.88018  0.11671  0.25713  Biso   1.000  H
  H60      1.0000 0.79597  0.01120  0.23679  Biso   1.000  H
  C71      1.0000 0.06155  0.19996  0.20722  Biso   1.000  C
  C72      1.0000 0.93656  0.79465  0.78079  Biso   1.000  C
  C73      1.0000 0.06691  0.96936  0.78663  Biso   1.000  C
  C74      1.0000 0.85810  0.06342  0.78079  Biso   1.000  C
  C75      1.0000 0.03060  0.09752  0.78663  Biso   1.000  C
  N9       1.0000 0.18882  0.93911  0.28332  Biso   1.000  N
  H61      1.0000 0.18720  0.97999  0.16749  Biso   1.000  H
  H62      1.0000 0.10628  0.87277  0.18519  Biso   1.000  H
  C76      1.0000 0.20532  0.14189  0.21921  Biso   1.000  C
  N10      1.0000 0.06086  0.24962  0.28332  Biso   1.000  N
  H63      1.0000 0.01999  0.20717  0.16749  Biso   1.000  H
  H64      1.0000 0.12719  0.23349  0.18519  Biso   1.000  H
  H65      1.0000 0.91541  0.76718  0.83462  Biso   1.000  H
  H66      1.0000 0.88328  0.76347  0.74293  Biso   1.000  H
  H67      1.0000 0.98878  0.78481  0.76321  Biso   1.000  H
  C77      1.0000 0.13842  0.93840  0.79284  Biso   1.000  C
  C78      1.0000 0.09691  0.06877  0.78374  Biso   1.000  C
  H68      1.0000 0.85173  0.08454  0.83462  Biso   1.000  H
  H69      1.0000 0.88018  0.11671  0.74293  Biso   1.000  H
  H70      1.0000 0.79597  0.01120  0.76321  Biso   1.000  H
  C79      1.0000 0.06155  0.19996  0.79284  Biso   1.000  C
  C80      1.0000 0.15641  0.94596  0.35099  Biso   1.000  C
  H71      1.0000 0.23280  0.14817  0.16538  Biso   1.000  H
  H72      1.0000 0.23643  0.11971  0.25713  Biso   1.000  H
  H73      1.0000 0.21520  0.20403  0.23679  Biso   1.000  H
  C81      1.0000 0.05397  0.21038  0.35099  Biso   1.000  C
  N11      1.0000 0.18882  0.93911  0.71674  Biso   1.000  N
  H74      1.0000 0.18720  0.97999  0.83251  Biso   1.000  H
  H75      1.0000 0.10628  0.87277  0.81481  Biso   1.000  H
  C82      1.0000 0.20532  0.14189  0.78079  Biso   1.000  C
  N12      1.0000 0.06086  0.24962  0.71674  Biso   1.000  N
  H76      1.0000 0.01999  0.20717  0.83251  Biso   1.000  H
  H77      1.0000 0.12719  0.23349  0.81481  Biso   1.000  H
  H78      1.0000 0.09960  0.94960  0.35262  Biso   1.000  H
  C83      1.0000 0.20442  0.94832  0.42739  Biso   1.000  C
  H79      1.0000 0.05039  0.14996  0.35262  Biso   1.000  H
  C84      1.0000 0.05166  0.25604  0.42739  Biso   1.000  C
  C85      1.0000 0.15641  0.94596  0.64901  Biso   1.000  C
  H80      1.0000 0.23280  0.14817  0.83462  Biso   1.000  H
  H81      1.0000 0.23643  0.11971  0.74293  Biso   1.000  H
  H82      1.0000 0.21520  0.20403  0.76321  Biso   1.000  H
  C86      1.0000 0.05397  0.21038  0.64901  Biso   1.000  C
  C87      1.0000 0.15720  0.94061  0.50000  Biso   1.000  C
  C88      1.0000 0.29578  0.96287  0.42872  Biso   1.000  C
  C89      1.0000 0.05939  0.21652  0.50000  Biso   1.000  C
  C90      1.0000 0.03706  0.33287  0.42872  Biso   1.000  C
  H83      1.0000 0.09960  0.94960  0.64744  Biso   1.000  H
  C91      1.0000 0.20442  0.94832  0.57261  Biso   1.000  C
  H84      1.0000 0.05039  0.14996  0.64744  Biso   1.000  H
  C92      1.0000 0.05166  0.25604  0.57261  Biso   1.000  C
  H85      1.0000 0.09390  0.93005  0.50000  Biso   1.000  H
  H86      1.0000 0.32837  0.96886  0.37959  Biso   1.000  H
  C93      1.0000 0.33938  0.96865  0.50000  Biso   1.000  C
  H87      1.0000 0.06991  0.16380  0.50000  Biso   1.000  H
  H88      1.0000 0.03106  0.35941  0.37959  Biso   1.000  H
  C94      1.0000 0.03132  0.37068  0.50000  Biso   1.000  C
  C95      1.0000 0.29578  0.96287  0.57134  Biso   1.000  C
  C96      1.0000 0.03706  0.33287  0.57134  Biso   1.000  C
  Br5      1.0000 0.46632  0.99319  0.50000  Biso   1.000  Br
  Br6      1.0000 0.00680  0.47312  0.50000  Biso   1.000  Br
  H89      1.0000 0.32837  0.96886  0.62041  Biso   1.000  H
  H90      1.0000 0.03106  0.35941  0.62041  Biso   1.000  H
  C97      1.0000 0.48590  0.62001  0.21890  Biso   1.000  C
  C98      1.0000 0.40630  0.64641  0.21409  Biso   1.000  C
  H91      1.0000 0.52280  0.63870  0.16881  Biso   1.000  H
  H92      1.0000 0.45699  0.55095  0.22661  Biso   1.000  H
  H93      1.0000 0.52821  0.65347  0.26430  Biso   1.000  H
  C99      1.0000 0.31072  0.57250  0.21222  Biso   1.000  C
  C100     1.0000 0.42749  0.73822  0.21222  Biso   1.000  C
  C101     1.0000 0.28747  0.46670  0.20951  Biso   1.000  C
  C102     1.0000 0.24007  0.59369  0.21409  Biso   1.000  C
  C103     1.0000 0.53326  0.82076  0.20951  Biso   1.000  C
  C104     1.0000 0.35363  0.75991  0.21409  Biso   1.000  C
  N13      1.0000 0.28989  0.41976  0.28423  Biso   1.000  N
  H94      1.0000 0.22300  0.42832  0.18603  Biso   1.000  H
  H95      1.0000 0.33291  0.46342  0.17140  Biso   1.000  H
  C105     1.0000 0.13409  0.51407  0.21890  Biso   1.000  C
  C106     1.0000 0.26179  0.68928  0.21222  Biso   1.000  C
  N14      1.0000 0.58015  0.87006  0.28423  Biso   1.000  N
  H96      1.0000 0.57167  0.79465  0.18603  Biso   1.000  H
  H97      1.0000 0.53662  0.86949  0.17140  Biso   1.000  H
  C107     1.0000 0.38001  0.86592  0.21890  Biso   1.000  C
  C108     1.0000 0.28421  0.45301  0.35099  Biso   1.000  C
  H98      1.0000 0.11590  0.47719  0.16881  Biso   1.000  H
  H99      1.0000 0.09398  0.54296  0.22661  Biso   1.000  H
  H100     1.0000 0.12529  0.47177  0.26430  Biso   1.000  H
  C109     1.0000 0.17917  0.71247  0.20951  Biso   1.000  C
  C110     1.0000 0.54700  0.83118  0.35099  Biso   1.000  C
  H101     1.0000 0.36131  0.88411  0.16881  Biso   1.000  H
  H102     1.0000 0.44899  0.90601  0.22661  Biso   1.000  H
  H103     1.0000 0.34653  0.87469  0.26430  Biso   1.000  H
  C111     1.0000 0.28777  0.41120  0.42679  Biso   1.000  C
  H104     1.0000 0.27742  0.50801  0.35172  Biso   1.000  H
  N15      1.0000 0.12992  0.71011  0.28423  Biso   1.000  N
  H105     1.0000 0.20530  0.77696  0.18603  Biso   1.000  H
  H106     1.0000 0.13047  0.66710  0.17140  Biso   1.000  H
  C112     1.0000 0.58881  0.87662  0.42679  Biso   1.000  C
  H107     1.0000 0.49201  0.76940  0.35172  Biso   1.000  H
  C113     1.0000 0.28159  0.45222  0.50000  Biso   1.000  C
  C114     1.0000 0.30189  0.33280  0.42541  Biso   1.000  C
  C115     1.0000 0.16880  0.71582  0.35099  Biso   1.000  C
  C116     1.0000 0.54777  0.82939  0.50000  Biso   1.000  C
  C117     1.0000 0.66716  0.96908  0.42541  Biso   1.000  C
  H108     1.0000 0.27323  0.50630  0.50000  Biso   1.000  H
  C118     1.0000 0.28777  0.41120  0.57321  Biso   1.000  C
  C119     1.0000 0.30790  0.29292  0.50000  Biso   1.000  C
  H109     1.0000 0.30746  0.30676  0.37580  Biso   1.000  H
  C120     1.0000 0.12342  0.71218  0.42679  Biso   1.000  C
  H110     1.0000 0.23063  0.72260  0.35172  Biso   1.000  H
  H111     1.0000 0.49367  0.76690  0.50000  Biso   1.000  H
  C121     1.0000 0.58881  0.87662  0.57321  Biso   1.000  C
  C122     1.0000 0.70711  0.01498  0.50000  Biso   1.000  C
  H112     1.0000 0.69318  0.00071  0.37580  Biso   1.000  H
  C123     1.0000 0.30189  0.33280  0.57459  Biso   1.000  C
  C124     1.0000 0.28421  0.45301  0.64901  Biso   1.000  C
  Br7      1.0000 0.33180  0.19098  0.50000  Biso   1.000  Br
  C125     1.0000 0.17057  0.71839  0.50000  Biso   1.000  C
  C126     1.0000 0.03091  0.69806  0.42541  Biso   1.000  C
  C127     1.0000 0.66716  0.96908  0.57459  Biso   1.000  C
  C128     1.0000 0.54700  0.83118  0.64901  Biso   1.000  C
  Br8      1.0000 0.80901  0.14082  0.50000  Biso   1.000  Br
  H113     1.0000 0.30746  0.30676  0.62420  Biso   1.000  H
  N16      1.0000 0.28989  0.41976  0.71583  Biso   1.000  N
  H114     1.0000 0.27742  0.50801  0.64834  Biso   1.000  H
  H115     1.0000 0.23311  0.72681  0.50000  Biso   1.000  H
  C129     1.0000 0.12342  0.71218  0.57321  Biso   1.000  C
  C130     1.0000 0.98498  0.69206  0.50000  Biso   1.000  C
  H116     1.0000 0.99928  0.69249  0.37580  Biso   1.000  H
  H117     1.0000 0.69318  0.00071  0.62420  Biso   1.000  H
  N17      1.0000 0.58015  0.87006  0.71583  Biso   1.000  N
  H118     1.0000 0.49201  0.76940  0.64834  Biso   1.000  H
  C131     1.0000 0.28747  0.46670  0.79055  Biso   1.000  C
  C132     1.0000 0.03091  0.69806  0.57459  Biso   1.000  C
  C133     1.0000 0.16880  0.71582  0.64901  Biso   1.000  C
  Br9      1.0000 0.85917  0.66817  0.50000  Biso   1.000  Br
  C134     1.0000 0.53326  0.82076  0.79055  Biso   1.000  C
  H119     1.0000 0.22300  0.42832  0.81403  Biso   1.000  H
  H120     1.0000 0.33291  0.46342  0.82860  Biso   1.000  H
  C135     1.0000 0.31072  0.57250  0.78784  Biso   1.000  C
  H121     1.0000 0.99928  0.69249  0.62420  Biso   1.000  H
  N18      1.0000 0.12992  0.71011  0.71583  Biso   1.000  N
  H122     1.0000 0.23063  0.72260  0.64834  Biso   1.000  H
  C136     1.0000 0.42749  0.73822  0.78784  Biso   1.000  C
  H123     1.0000 0.57167  0.79465  0.81403  Biso   1.000  H
  H124     1.0000 0.53662  0.86949  0.82860  Biso   1.000  H
  C137     1.0000 0.24007  0.59369  0.78591  Biso   1.000  C
  C138     1.0000 0.40630  0.64641  0.78591  Biso   1.000  C
  C139     1.0000 0.17917  0.71247  0.79055  Biso   1.000  C
  C140     1.0000 0.35363  0.75991  0.78591  Biso   1.000  C
  C141     1.0000 0.13409  0.51407  0.78110  Biso   1.000  C
  C142     1.0000 0.26179  0.68928  0.78784  Biso   1.000  C
  C143     1.0000 0.48590  0.62001  0.78110  Biso   1.000  C
  H125     1.0000 0.20530  0.77696  0.81403  Biso   1.000  H
  H126     1.0000 0.13047  0.66710  0.82860  Biso   1.000  H
  C144     1.0000 0.38001  0.86592  0.78110  Biso   1.000  C
  H127     1.0000 0.11590  0.47719  0.83125  Biso   1.000  H
  H128     1.0000 0.09398  0.54296  0.77339  Biso   1.000  H
  H129     1.0000 0.12529  0.47177  0.73570  Biso   1.000  H
  H130     1.0000 0.52280  0.63870  0.83125  Biso   1.000  H
  H131     1.0000 0.45699  0.55095  0.77339  Biso   1.000  H
  H132     1.0000 0.52821  0.65347  0.73570  Biso   1.000  H
  H133     1.0000 0.36131  0.88411  0.83125  Biso   1.000  H
  H134     1.0000 0.44899  0.90601  0.77339  Biso   1.000  H
  H135     1.0000 0.34653  0.87469  0.73570  Biso   1.000  H
  Ne1      1.0000 0.99999  0.99998  0.50001  Biso   1.000  Ne
  He1      1.0000 0.96781  0.02396  0.43730  Biso   1.000  He
  He2      1.0000 0.96851  0.90431  0.42586  Biso   1.000  He
  He3      1.0000 0.09048  0.05964  0.57303  Biso   1.000  He
  Ar1      1.0000 0.00002  0.99999  0.50001  Biso   1.000  Ar
  Ne2      1.0000 0.66666  0.33333  0.00001  Biso   1.000  Ne
  He4      1.0000 0.69163  0.35447  0.92636  Biso   1.000  He
  He5      1.0000 0.63515  0.33897  0.92606  Biso   1.000  He
  He6      1.0000 0.66254  0.30634  0.07371  Biso   1.000  He
  Ar2      1.0000 0.66662  0.33330  0.00001  Biso   1.000  Ar
  Ne3      1.0000 0.33333  0.66666  0.50001  Biso   1.000  Ne
  He7      1.0000 0.42015  0.06565  0.47551  Biso   1.000  He
  He8      1.0000 0.39670  0.63711  0.42486  Biso   1.000  He
  He9      1.0000 0.00000  0.00000  0.00000  Biso   1.000  He
  Ar3      1.0000 0.33331  0.66665  0.50001  Biso   1.000  Ar
