data_image0
_cell_length_a       12.023
_cell_length_b       14.837
_cell_length_c       21.708
_cell_angle_alpha    100.85
_cell_angle_beta     94.19
_cell_angle_gamma    107.65

_symmetry_space_group_name_H-M    "P 1"
_symmetry_int_tables_number       1

loop_
  _symmetry_equiv_pos_as_xyz
  'x, y, z'

loop_
  _atom_site_label
  _atom_site_occupancy
  _atom_site_fract_x
  _atom_site_fract_y
  _atom_site_fract_z
  _atom_site_thermal_displace_type
  _atom_site_B_iso_or_equiv
  _atom_site_type_symbol
  C1       1.0000 0.60521  0.42313  0.62228  Biso   1.000  C
  N1       1.0000 0.62873  0.32962  0.60868  Biso   1.000  N
  H1       1.0000 0.65936  0.46925  0.60309  Biso   1.000  H
  H2       1.0000 0.52560  0.41386  0.60371  Biso   1.000  H
  C2       1.0000 0.61960  0.46309  0.69238  Biso   1.000  C
  C3       1.0000 0.56248  0.26926  0.54749  Biso   1.000  C
  C4       1.0000 0.75467  0.34635  0.61048  Biso   1.000  C
  H3       1.0000 0.69251  0.45899  0.71198  Biso   1.000  H
  H4       1.0000 0.55535  0.42344  0.71000  Biso   1.000  H
  N2       1.0000 0.62129  0.56110  0.70777  Biso   1.000  N
  C5       1.0000 0.43276  0.23703  0.54900  Biso   1.000  C
  H5       1.0000 0.58026  0.30586  0.51481  Biso   1.000  H
  H6       1.0000 0.58761  0.21267  0.53659  Biso   1.000  H
  C6       1.0000 0.79134  0.25835  0.61669  Biso   1.000  C
  H7       1.0000 0.77870  0.36590  0.57198  Biso   1.000  H
  H8       1.0000 0.79611  0.39951  0.64586  Biso   1.000  H
  C7       1.0000 0.67383  0.61091  0.77687  Biso   1.000  C
  H9       1.0000 0.66339  0.59391  0.68229  Biso   1.000  H
  H10      1.0000 0.54802  0.56259  0.70109  Biso   1.000  H
  N3       1.0000 0.37085  0.16151  0.49188  Biso   1.000  N
  H11      1.0000 0.40455  0.29202  0.55118  Biso   1.000  H
  H12      1.0000 0.41580  0.21140  0.58647  Biso   1.000  H
  H13      1.0000 0.87662  0.27655  0.62199  Biso   1.000  H
  H14      1.0000 0.76050  0.20812  0.57827  Biso   1.000  H
  N4       1.0000 0.74665  0.22006  0.67149  Biso   1.000  N
  C8       1.0000 0.59288  0.57229  0.82069  Biso   1.000  C
  H15      1.0000 0.68852  0.68011  0.78279  Biso   1.000  H
  H16      1.0000 0.74837  0.60053  0.78630  Biso   1.000  H
  C9       1.0000 0.23827  0.14054  0.48137  Biso   1.000  C
  H17      1.0000 0.40055  0.18008  0.45821  Biso   1.000  H
  H18      1.0000 0.38515  0.10693  0.49468  Biso   1.000  H
  C10      1.0000 0.80057  0.14704  0.68769  Biso   1.000  C
  H19      1.0000 0.76177  0.26911  0.70497  Biso   1.000  H
  H20      1.0000 0.66875  0.19252  0.66287  Biso   1.000  H
  C11      1.0000 0.61231  0.49789  0.84740  Biso   1.000  C
  C12      1.0000 0.50313  0.60332  0.83921  Biso   1.000  C
  C13      1.0000 0.17670  0.10581  0.53309  Biso   1.000  C
  H21      1.0000 0.20567  0.09208  0.44229  Biso   1.000  H
  H22      1.0000 0.22253  0.19923  0.47611  Biso   1.000  H
  C14      1.0000 0.73884  0.09834  0.73557  Biso   1.000  C
  H23      1.0000 0.88310  0.17923  0.70441  Biso   1.000  H
  H24      1.0000 0.79555  0.09880  0.64970  Biso   1.000  H
  H25      1.0000 0.67409  0.47541  0.83660  Biso   1.000  H
  C15      1.0000 0.54073  0.45677  0.88989  Biso   1.000  C
  C16      1.0000 0.43242  0.56551  0.88018  Biso   1.000  C
  H26      1.0000 0.48921  0.65320  0.82296  Biso   1.000  H
  C17      1.0000 0.15008  0.17024  0.58168  Biso   1.000  C
  C18      1.0000 0.13844  0.00955  0.53560  Biso   1.000  C
  C19      1.0000 0.66881  0.00152  0.71890  Biso   1.000  C
  C20      1.0000 0.74341  0.14918  0.79686  Biso   1.000  C
  C21      1.0000 0.44930  0.49117  0.90500  Biso   1.000  C
  H27      1.0000 0.55461  0.40792  0.90727  Biso   1.000  H
  H28      1.0000 0.37222  0.58983  0.89140  Biso   1.000  H
  H29      1.0000 0.17393  0.23611  0.58197  Biso   1.000  H
  C22      1.0000 0.09020  0.13766  0.62810  Biso   1.000  C
  C23      1.0000 0.07861  0.97541  0.58178  Biso   1.000  C
  H30      1.0000 0.15421  0.96524  0.50401  Biso   1.000  H
  H31      1.0000 0.66613  0.96523  0.67859  Biso   1.000  H
  C24      1.0000 0.60238  0.95771  0.76200  Biso   1.000  C
  C25      1.0000 0.67741  0.10732  0.83840  Biso   1.000  C
  H32      1.0000 0.79268  0.21319  0.80979  Biso   1.000  H
  O1       1.0000 0.38155  0.44592  0.94469  Biso   1.000  O
  C26      1.0000 0.05571  0.04060  0.62929  Biso   1.000  C
  H33      1.0000 0.07235  0.18117  0.65941  Biso   1.000  H
  H34      1.0000 0.05379  0.90943  0.58140  Biso   1.000  H
  C27      1.0000 0.60473  0.01202  0.81998  Biso   1.000  C
  H35      1.0000 0.55726  0.89241  0.75087  Biso   1.000  H
  H36      1.0000 0.68098  0.14271  0.87918  Biso   1.000  H
  C28      1.0000 0.28170  0.47488  0.95937  Biso   1.000  C
  O2       1.0000 0.99739  0.01521  0.67916  Biso   1.000  O
  O3       1.0000 0.53614  0.97811  0.86474  Biso   1.000  O
  C29      1.0000 0.21064  0.40710  0.99750  Biso   1.000  C
  H37      1.0000 0.30744  0.54128  0.98376  Biso   1.000  H
  H38      1.0000 0.23337  0.47138  0.92067  Biso   1.000  H
  C30      1.0000 0.96458  0.91822  0.68347  Biso   1.000  C
  C31      1.0000 0.45273  0.88427  0.84787  Biso   1.000  C
  N5       1.0000 0.23877  0.32926  0.00219  Biso   1.000  N
  O4       1.0000 0.12707  0.42641  0.01919  Biso   1.000  O
  H39      1.0000 0.90167  0.87967  0.64946  Biso   1.000  H
  C32      1.0000 0.92333  0.90496  0.74637  Biso   1.000  C
  H40      1.0000 0.03122  0.89493  0.67840  Biso   1.000  H
  C33      1.0000 0.37511  0.86958  0.89699  Biso   1.000  C
  H41      1.0000 0.40599  0.87626  0.80757  Biso   1.000  H
  H42      1.0000 0.49302  0.83625  0.84309  Biso   1.000  H
  C34      1.0000 0.17318  0.25690  0.03430  Biso   1.000  C
  H43      1.0000 0.29857  0.32091  0.98547  Biso   1.000  H
  N6       1.0000 0.95432  0.98298  0.79397  Biso   1.000  N
  O5       1.0000 0.86848  0.82306  0.75139  Biso   1.000  O
  N7       1.0000 0.36006  0.94924  0.93209  Biso   1.000  N
  O6       1.0000 0.32330  0.78730  0.90339  Biso   1.000  O
  C35      1.0000 0.14801  0.15560  0.99399  Biso   1.000  C
  H44      1.0000 0.21826  0.26289  0.07470  Biso   1.000  H
  H45      1.0000 0.09942  0.26760  0.04250  Biso   1.000  H
  C36      1.0000 0.92203  0.97880  0.85739  Biso   1.000  C
  H46      1.0000 0.99488  0.03801  0.78711  Biso   1.000  H
  C37      1.0000 0.27857  0.94867  0.97737  Biso   1.000  C
  H47      1.0000 0.40271  0.00479  0.92697  Biso   1.000  H
  C38      1.0000 0.04981  0.11620  0.94578  Biso   1.000  C
  C39      1.0000 0.22337  0.10221  0.00299  Biso   1.000  C
  C40      1.0000 0.02829  0.02211  0.90836  Biso   1.000  C
  H48      1.0000 0.88333  0.91179  0.85877  Biso   1.000  H
  H49      1.0000 0.86643  0.01379  0.86568  Biso   1.000  H
  C41      1.0000 0.19994  0.00775  0.96657  Biso   1.000  C
  H50      1.0000 0.23011  0.88224  0.97500  Biso   1.000  H
  H51      1.0000 0.32263  0.97434  0.01971  Biso   1.000  H
  C42      1.0000 0.97292  0.17603  0.93469  Biso   1.000  C
  C43      1.0000 0.33210  0.14619  0.05239  Biso   1.000  C
  C44      1.0000 0.10186  0.96764  0.91878  Biso   1.000  C
  H52      1.0000 0.01060  0.24170  0.95776  Biso   1.000  H
  H53      1.0000 0.89843  0.15001  0.94890  Biso   1.000  H
  H54      1.0000 0.96037  0.17462  0.89027  Biso   1.000  H
  H55      1.0000 0.38862  0.11367  0.04221  Biso   1.000  H
  H56      1.0000 0.36599  0.21387  0.05301  Biso   1.000  H
  H57      1.0000 0.31049  0.13870  0.09332  Biso   1.000  H
  C45      1.0000 0.07843  0.86886  0.87880  Biso   1.000  C
  H58      1.0000 0.14174  0.86868  0.85427  Biso   1.000  H
  H59      1.0000 0.07236  0.82323  0.90547  Biso   1.000  H
  H60      1.0000 0.00581  0.85073  0.85076  Biso   1.000  H
  C46      1.0000 0.39462  0.57673  0.37769  Biso   1.000  C
  C47      1.0000 0.38024  0.53677  0.30759  Biso   1.000  C
  N8       1.0000 0.37119  0.67025  0.39128  Biso   1.000  N
  H61      1.0000 0.34057  0.53063  0.39692  Biso   1.000  H
  H62      1.0000 0.47427  0.58608  0.39630  Biso   1.000  H
  N9       1.0000 0.37854  0.43876  0.29219  Biso   1.000  N
  H63      1.0000 0.30741  0.54088  0.28798  Biso   1.000  H
  H64      1.0000 0.44460  0.57651  0.29001  Biso   1.000  H
  C48      1.0000 0.43747  0.73067  0.45247  Biso   1.000  C
  C49      1.0000 0.24528  0.65358  0.38948  Biso   1.000  C
  C50      1.0000 0.32609  0.38895  0.22309  Biso   1.000  C
  H65      1.0000 0.33644  0.40595  0.31767  Biso   1.000  H
  H66      1.0000 0.45190  0.43727  0.29887  Biso   1.000  H
  C51      1.0000 0.56717  0.76285  0.45101  Biso   1.000  C
  H67      1.0000 0.41967  0.69402  0.48520  Biso   1.000  H
  H68      1.0000 0.41225  0.78727  0.46337  Biso   1.000  H
  C52      1.0000 0.20849  0.74151  0.38327  Biso   1.000  C
  H69      1.0000 0.22114  0.63396  0.42799  Biso   1.000  H
  H70      1.0000 0.20372  0.60035  0.35410  Biso   1.000  H
  C53      1.0000 0.40695  0.42757  0.17928  Biso   1.000  C
  H71      1.0000 0.31141  0.31977  0.21721  Biso   1.000  H
  H72      1.0000 0.25148  0.39935  0.21371  Biso   1.000  H
  H73      1.0000 0.59537  0.70784  0.44878  Biso   1.000  H
  H74      1.0000 0.58403  0.78847  0.41349  Biso   1.000  H
  N10      1.0000 0.62907  0.83835  0.50808  Biso   1.000  N
  H75      1.0000 0.12324  0.72338  0.37797  Biso   1.000  H
  H76      1.0000 0.23934  0.79174  0.42169  Biso   1.000  H
  N11      1.0000 0.25329  0.77987  0.32847  Biso   1.000  N
  C54      1.0000 0.38762  0.50199  0.15261  Biso   1.000  C
  C55      1.0000 0.49680  0.39655  0.16080  Biso   1.000  C
  C56      1.0000 0.76165  0.85932  0.51860  Biso   1.000  C
  H77      1.0000 0.59932  0.81987  0.54180  Biso   1.000  H
  H78      1.0000 0.61477  0.89293  0.50529  Biso   1.000  H
  C57      1.0000 0.19938  0.85289  0.31227  Biso   1.000  C
  H79      1.0000 0.23806  0.73075  0.29499  Biso   1.000  H
  H80      1.0000 0.33116  0.80734  0.33709  Biso   1.000  H
  H81      1.0000 0.32575  0.52446  0.16341  Biso   1.000  H
  C58      1.0000 0.45910  0.54309  0.11008  Biso   1.000  C
  C59      1.0000 0.56749  0.43435  0.11979  Biso   1.000  C
  H82      1.0000 0.51071  0.34666  0.17700  Biso   1.000  H
  C60      1.0000 0.82313  0.89405  0.46687  Biso   1.000  C
  H83      1.0000 0.79428  0.90786  0.55767  Biso   1.000  H
  H84      1.0000 0.77732  0.80064  0.52390  Biso   1.000  H
  C61      1.0000 0.26110  0.90159  0.26439  Biso   1.000  C
  H85      1.0000 0.11674  0.82065  0.29560  Biso   1.000  H
  H86      1.0000 0.20438  0.90108  0.35031  Biso   1.000  H
  C62      1.0000 0.55063  0.50871  0.09501  Biso   1.000  C
  H87      1.0000 0.44533  0.59202  0.09269  Biso   1.000  H
  H88      1.0000 0.62773  0.41012  0.10861  Biso   1.000  H
  C63      1.0000 0.84975  0.82963  0.41828  Biso   1.000  C
  C64      1.0000 0.86141  0.99033  0.46441  Biso   1.000  C
  C65      1.0000 0.33104  0.99835  0.28111  Biso   1.000  C
  C66      1.0000 0.25651  0.85068  0.20310  Biso   1.000  C
  O7       1.0000 0.61832  0.55403  0.05532  Biso   1.000  O
  H89      1.0000 0.82598  0.76375  0.41799  Biso   1.000  H
  C67      1.0000 0.90967  0.86228  0.37191  Biso   1.000  C
  C68      1.0000 0.92122  0.02445  0.41818  Biso   1.000  C
  H90      1.0000 0.84575  0.03470  0.49600  Biso   1.000  H
  H91      1.0000 0.33374  0.03472  0.32142  Biso   1.000  H
  C69      1.0000 0.39758  0.04224  0.23801  Biso   1.000  C
  C70      1.0000 0.32252  0.89256  0.16161  Biso   1.000  C
  H92      1.0000 0.20716  0.78669  0.19022  Biso   1.000  H
  C71      1.0000 0.71821  0.52499  0.04059  Biso   1.000  C
  C72      1.0000 0.94413  0.95926  0.37068  Biso   1.000  C
  H93      1.0000 0.92760  0.81878  0.34060  Biso   1.000  H
  H94      1.0000 0.94616  0.09051  0.41861  Biso   1.000  H
  C73      1.0000 0.39522  0.98791  0.17999  Biso   1.000  C
  H95      1.0000 0.44268  0.10753  0.24909  Biso   1.000  H
  H96      1.0000 0.31885  0.85715  0.12078  Biso   1.000  H
  C74      1.0000 0.78921  0.59278  0.00251  Biso   1.000  C
  H97      1.0000 0.69239  0.45858  0.01620  Biso   1.000  H
  H98      1.0000 0.76646  0.52848  0.07929  Biso   1.000  H
  O8       1.0000 0.00244  0.98465  0.32080  Biso   1.000  O
  O9       1.0000 0.46381  0.02184  0.13527  Biso   1.000  O
  N12      1.0000 0.76106  0.67060  0.99777  Biso   1.000  N
  O10      1.0000 0.87279  0.57353  0.98077  Biso   1.000  O
  C75      1.0000 0.03536  0.08171  0.31649  Biso   1.000  C
  C76      1.0000 0.54719  0.11560  0.15209  Biso   1.000  C
  H99      1.0000 0.70129  0.67903  0.01449  Biso   1.000  H
  C77      1.0000 0.82665  0.74296  0.96566  Biso   1.000  C
  C78      1.0000 0.07658  0.09491  0.25359  Biso   1.000  C
  H100     1.0000 0.96865  0.10502  0.32161  Biso   1.000  H
  H101     1.0000 0.09825  0.12019  0.35050  Biso   1.000  H
  C79      1.0000 0.62473  0.13029  0.10302  Biso   1.000  C
  H102     1.0000 0.59384  0.12360  0.19240  Biso   1.000  H
  H103     1.0000 0.50691  0.16363  0.15692  Biso   1.000  H
  C80      1.0000 0.85192  0.84427  0.00602  Biso   1.000  C
  H104     1.0000 0.78157  0.73698  0.92526  Biso   1.000  H
  H105     1.0000 0.90053  0.73233  0.95747  Biso   1.000  H
  N13      1.0000 0.04552  0.01688  0.20599  Biso   1.000  N
  O11      1.0000 0.13136  0.17682  0.24862  Biso   1.000  O
  N14      1.0000 0.63978  0.05064  0.06792  Biso   1.000  N
  O12      1.0000 0.67656  0.21263  0.09658  Biso   1.000  O
  C81      1.0000 0.95011  0.88366  0.05419  Biso   1.000  C
  C82      1.0000 0.77648  0.89772  0.99697  Biso   1.000  C
  C83      1.0000 0.07784  0.02114  0.14261  Biso   1.000  C
  H106     1.0000 0.00497  0.96187  0.21290  Biso   1.000  H
  C84      1.0000 0.72129  0.05126  0.02259  Biso   1.000  C
  H107     1.0000 0.59720  0.99507  0.07299  Biso   1.000  H
  C85      1.0000 0.97165  0.97782  0.09160  Biso   1.000  C
  C86      1.0000 0.02704  0.82392  0.06532  Biso   1.000  C
  C87      1.0000 0.79989  0.99211  0.03339  Biso   1.000  C
  C88      1.0000 0.66773  0.85367  0.94757  Biso   1.000  C
  H108     1.0000 0.13349  0.98607  0.13428  Biso   1.000  H
  H109     1.0000 0.11653  0.08814  0.14119  Biso   1.000  H
  H110     1.0000 0.67721  0.02552  0.98025  Biso   1.000  H
  H111     1.0000 0.76982  0.11764  0.02501  Biso   1.000  H
  C89      1.0000 0.89797  0.03222  0.08118  Biso   1.000  C
  H112     1.0000 0.98935  0.75823  0.04220  Biso   1.000  H
  H113     1.0000 0.10150  0.84987  0.05111  Biso   1.000  H
  H114     1.0000 0.03949  0.82531  0.10970  Biso   1.000  H
  H115     1.0000 0.61130  0.88619  0.95775  Biso   1.000  H
  H116     1.0000 0.63384  0.78599  0.94695  Biso   1.000  H
  H117     1.0000 0.68938  0.86125  0.90669  Biso   1.000  H
  C90      1.0000 0.92150  0.13101  0.12121  Biso   1.000  C
  H118     1.0000 0.85817  0.13118  0.14569  Biso   1.000  H
  H119     1.0000 0.92748  0.17663  0.09449  Biso   1.000  H
  H120     1.0000 0.99411  0.14913  0.14920  Biso   1.000  H
