data_image0
_cell_length_a       11.803
_cell_length_b       20.726
_cell_length_c       24.302
_cell_angle_alpha    90
_cell_angle_beta     99.23
_cell_angle_gamma    90

_symmetry_space_group_name_H-M    "P 1"
_symmetry_int_tables_number       1

loop_
  _symmetry_equiv_pos_as_xyz
  'x, y, z'

loop_
  _atom_site_label
  _atom_site_occupancy
  _atom_site_fract_x
  _atom_site_fract_y
  _atom_site_fract_z
  _atom_site_thermal_displace_type
  _atom_site_B_iso_or_equiv
  _atom_site_type_symbol
  C1       1.0000 0.77923  0.44688  0.50110  Biso   1.000  C
  C2       1.0000 0.79523  0.38309  0.48951  Biso   1.000  C
  H1       1.0000 0.71404  0.46859  0.48380  Biso   1.000  H
  C3       1.0000 0.86074  0.47911  0.53883  Biso   1.000  C
  O1       1.0000 0.71923  0.34498  0.45511  Biso   1.000  O
  C4       1.0000 0.89394  0.35159  0.51390  Biso   1.000  C
  H2       1.0000 0.84841  0.52200  0.54741  Biso   1.000  H
  C5       1.0000 0.95969  0.44881  0.56392  Biso   1.000  C
  C6       1.0000 0.61490  0.37219  0.42681  Biso   1.000  C
  C7       1.0000 0.97617  0.38478  0.55021  Biso   1.000  C
  H3       1.0000 0.90492  0.30831  0.50610  Biso   1.000  H
  C8       1.0000 0.04680  0.48480  0.60503  Biso   1.000  C
  C9       1.0000 0.53623  0.31719  0.40459  Biso   1.000  C
  H4       1.0000 0.57902  0.39839  0.45232  Biso   1.000  H
  H5       1.0000 0.63037  0.39940  0.39642  Biso   1.000  H
  H6       1.0000 0.04362  0.36399  0.56563  Biso   1.000  H
  H7       1.0000 0.01470  0.52610  0.61353  Biso   1.000  H
  H8       1.0000 0.11462  0.49320  0.58823  Biso   1.000  H
  N1       1.0000 0.08058  0.44780  0.65806  Biso   1.000  N
  O2       1.0000 0.45447  0.32732  0.36611  Biso   1.000  O
  N2       1.0000 0.55696  0.26078  0.42939  Biso   1.000  N
  C10      1.0000 0.14582  0.48779  0.70295  Biso   1.000  C
  H9       1.0000 0.12389  0.41378  0.65143  Biso   1.000  H
  H10      1.0000 0.01695  0.43260  0.66960  Biso   1.000  H
  C11      1.0000 0.48466  0.20409  0.41443  Biso   1.000  C
  H11      1.0000 0.61537  0.25721  0.45541  Biso   1.000  H
  C12      1.0000 0.14902  0.46010  0.76140  Biso   1.000  C
  H12      1.0000 0.22398  0.49252  0.69591  Biso   1.000  H
  H13      1.0000 0.11183  0.53049  0.70162  Biso   1.000  H
  C13      1.0000 0.51812  0.15092  0.45674  Biso   1.000  C
  H14      1.0000 0.40466  0.21538  0.41359  Biso   1.000  H
  H15      1.0000 0.49394  0.18909  0.37762  Biso   1.000  H
  H16      1.0000 0.07133  0.45971  0.76961  Biso   1.000  H
  H17      1.0000 0.19351  0.48919  0.78783  Biso   1.000  H
  N3       1.0000 0.19712  0.39496  0.77082  Biso   1.000  N
  C14      1.0000 0.60109  0.10518  0.44732  Biso   1.000  C
  C15      1.0000 0.46952  0.14952  0.50585  Biso   1.000  C
  C16      1.0000 0.18327  0.37320  0.82660  Biso   1.000  C
  C17      1.0000 0.31999  0.39289  0.76524  Biso   1.000  C
  C18      1.0000 0.63465  0.05742  0.48763  Biso   1.000  C
  C19      1.0000 0.65562  0.10972  0.39542  Biso   1.000  C
  C20      1.0000 0.50285  0.10060  0.54545  Biso   1.000  C
  C21      1.0000 0.38388  0.20062  0.51640  Biso   1.000  C
  H18      1.0000 0.23572  0.33769  0.83740  Biso   1.000  H
  H19      1.0000 0.20430  0.40809  0.85282  Biso   1.000  H
  C22      1.0000 0.06232  0.35149  0.83056  Biso   1.000  C
  C23      1.0000 0.36227  0.32462  0.76190  Biso   1.000  C
  H20      1.0000 0.33119  0.41619  0.73193  Biso   1.000  H
  H21      1.0000 0.36463  0.41441  0.79700  Biso   1.000  H
  C24      1.0000 0.58693  0.05558  0.53682  Biso   1.000  C
  C25      1.0000 0.72576  0.00859  0.47925  Biso   1.000  C
  H22      1.0000 0.61246  0.08419  0.36632  Biso   1.000  H
  H23      1.0000 0.65622  0.15382  0.38362  Biso   1.000  H
  H24      1.0000 0.73293  0.09380  0.40321  Biso   1.000  H
  C26      1.0000 0.44658  0.09592  0.59748  Biso   1.000  C
  H25      1.0000 0.30744  0.18378  0.50710  Biso   1.000  H
  H26      1.0000 0.39773  0.21268  0.55500  Biso   1.000  H
  H27      1.0000 0.39192  0.23782  0.49380  Biso   1.000  H
  H28      1.0000 0.03554  0.32129  0.80080  Biso   1.000  H
  H29      1.0000 0.01105  0.38840  0.82694  Biso   1.000  H
  N4       1.0000 0.06325  0.31984  0.88597  Biso   1.000  N
  H30      1.0000 0.36189  0.30319  0.79742  Biso   1.000  H
  H31      1.0000 0.44077  0.32520  0.75461  Biso   1.000  H
  N5       1.0000 0.28932  0.28766  0.71700  Biso   1.000  N
  C27      1.0000 0.62819  0.00531  0.58068  Biso   1.000  C
  H32      1.0000 0.73527  0.00820  0.44032  Biso   1.000  H
  N6       1.0000 0.83490  0.02417  0.51369  Biso   1.000  N
  H33      1.0000 0.70146  0.96598  0.48880  Biso   1.000  H
  H34      1.0000 0.42264  0.05158  0.60169  Biso   1.000  H
  H35      1.0000 0.37808  0.12260  0.59223  Biso   1.000  H
  N7       1.0000 0.52008  0.11580  0.64868  Biso   1.000  N
  C28      1.0000 0.94799  0.30411  0.90022  Biso   1.000  C
  H36      1.0000 0.09992  0.34599  0.91261  Biso   1.000  H
  H37      1.0000 0.10399  0.28312  0.88672  Biso   1.000  H
  C29      1.0000 0.34071  0.22329  0.70791  Biso   1.000  C
  H38      1.0000 0.21919  0.28201  0.72630  Biso   1.000  H
  H39      1.0000 0.28108  0.31048  0.68511  Biso   1.000  H
  H40      1.0000 0.69389  0.02152  0.60519  Biso   1.000  H
  H41      1.0000 0.56794  0.99580  0.60169  Biso   1.000  H
  H42      1.0000 0.64893  0.96671  0.56292  Biso   1.000  H
  H43      1.0000 0.86144  0.06282  0.51323  Biso   1.000  H
  C30      1.0000 0.89473  0.97993  0.54579  Biso   1.000  C
  C31      1.0000 0.53878  0.07729  0.69374  Biso   1.000  C
  H44      1.0000 0.55241  0.15309  0.65009  Biso   1.000  H
  C32      1.0000 0.86999  0.26638  0.85620  Biso   1.000  C
  H45      1.0000 0.95867  0.27950  0.93462  Biso   1.000  H
  H46      1.0000 0.90993  0.34411  0.90710  Biso   1.000  H
  C33      1.0000 0.25916  0.18098  0.66981  Biso   1.000  C
  H47      1.0000 0.41015  0.22952  0.69191  Biso   1.000  H
  H48      1.0000 0.36165  0.20182  0.74360  Biso   1.000  H
  C34      1.0000 0.99911  0.00338  0.58452  Biso   1.000  C
  O3       1.0000 0.86537  0.92251  0.54746  Biso   1.000  O
  C35      1.0000 0.61887  0.10209  0.74385  Biso   1.000  C
  O4       1.0000 0.49940  0.02229  0.69507  Biso   1.000  O
  C36      1.0000 0.86069  0.20071  0.86062  Biso   1.000  C
  C37      1.0000 0.80146  0.29808  0.81264  Biso   1.000  C
  C38      1.0000 0.24168  0.11802  0.68536  Biso   1.000  C
  C39      1.0000 0.20180  0.20298  0.61849  Biso   1.000  C
  H49      1.0000 0.98196  0.00729  0.62212  Biso   1.000  H
  H50      1.0000 0.06157  0.97279  0.58510  Biso   1.000  H
  O5       1.0000 0.03172  0.06412  0.56551  Biso   1.000  O
  H51      1.0000 0.69199  0.07990  0.74694  Biso   1.000  H
  H52      1.0000 0.58666  0.09331  0.77741  Biso   1.000  H
  O6       1.0000 0.63601  0.16901  0.73906  Biso   1.000  O
  C40      1.0000 0.78266  0.16588  0.82214  Biso   1.000  C
  H53      1.0000 0.90663  0.17900  0.88943  Biso   1.000  H
  C41      1.0000 0.72521  0.26421  0.77391  Biso   1.000  C
  H54      1.0000 0.80693  0.34271  0.80943  Biso   1.000  H
  C42      1.0000 0.16816  0.07681  0.65130  Biso   1.000  C
  H55      1.0000 0.28000  0.10282  0.71930  Biso   1.000  H
  C43      1.0000 0.12690  0.16298  0.58460  Biso   1.000  C
  H56      1.0000 0.21394  0.24491  0.60703  Biso   1.000  H
  C44      1.0000 0.11030  0.10021  0.60157  Biso   1.000  C
  C45      1.0000 0.71605  0.19849  0.77924  Biso   1.000  C
  H57      1.0000 0.77598  0.12149  0.82552  Biso   1.000  H
  H58      1.0000 0.68037  0.28568  0.74460  Biso   1.000  H
  H59      1.0000 0.15837  0.03430  0.66193  Biso   1.000  H
  H60      1.0000 0.08800  0.17799  0.55071  Biso   1.000  H
  C46      1.0000 0.22086  0.55312  0.49893  Biso   1.000  C
  C47      1.0000 0.13935  0.52089  0.46120  Biso   1.000  C
  C48      1.0000 0.20486  0.61691  0.51052  Biso   1.000  C
  H61      1.0000 0.28605  0.53141  0.51623  Biso   1.000  H
  H62      1.0000 0.15168  0.47800  0.45261  Biso   1.000  H
  C49      1.0000 0.04049  0.55119  0.43610  Biso   1.000  C
  C50      1.0000 0.10614  0.64841  0.48609  Biso   1.000  C
  O7       1.0000 0.28087  0.65502  0.54491  Biso   1.000  O
  C51      1.0000 0.02401  0.61522  0.44982  Biso   1.000  C
  C52      1.0000 0.95329  0.51520  0.39500  Biso   1.000  C
  H63      1.0000 0.09517  0.69169  0.49393  Biso   1.000  H
  C53      1.0000 0.38519  0.62781  0.57322  Biso   1.000  C
  H64      1.0000 0.95656  0.63601  0.43440  Biso   1.000  H
  H65      1.0000 0.98539  0.47390  0.38650  Biso   1.000  H
  H66      1.0000 0.88555  0.50680  0.41180  Biso   1.000  H
  N8       1.0000 0.91951  0.55220  0.34197  Biso   1.000  N
  C54      1.0000 0.46385  0.68281  0.59540  Biso   1.000  C
  H67      1.0000 0.42108  0.60161  0.54771  Biso   1.000  H
  H68      1.0000 0.36981  0.60060  0.60361  Biso   1.000  H
  C55      1.0000 0.85434  0.51221  0.29703  Biso   1.000  C
  H69      1.0000 0.87620  0.58622  0.34860  Biso   1.000  H
  H70      1.0000 0.98314  0.56740  0.33042  Biso   1.000  H
  N9       1.0000 0.44312  0.73922  0.57059  Biso   1.000  N
  O8       1.0000 0.54571  0.67268  0.63392  Biso   1.000  O
  C56      1.0000 0.85105  0.53990  0.23858  Biso   1.000  C
  H71      1.0000 0.77611  0.50748  0.30412  Biso   1.000  H
  H72      1.0000 0.88826  0.46951  0.29841  Biso   1.000  H
  C57      1.0000 0.51543  0.79591  0.58560  Biso   1.000  C
  H73      1.0000 0.38473  0.74279  0.54462  Biso   1.000  H
  H74      1.0000 0.92876  0.54029  0.23041  Biso   1.000  H
  H75      1.0000 0.80659  0.51081  0.21220  Biso   1.000  H
  N10      1.0000 0.80297  0.60504  0.22920  Biso   1.000  N
  C58      1.0000 0.48197  0.84913  0.54329  Biso   1.000  C
  H76      1.0000 0.59542  0.78462  0.58639  Biso   1.000  H
  H77      1.0000 0.50616  0.81091  0.62241  Biso   1.000  H
  C59      1.0000 0.81681  0.62680  0.17338  Biso   1.000  C
  C60      1.0000 0.68010  0.60711  0.23479  Biso   1.000  C
  C61      1.0000 0.39909  0.89482  0.55271  Biso   1.000  C
  C62      1.0000 0.53057  0.85053  0.49418  Biso   1.000  C
  H78      1.0000 0.76436  0.66231  0.16259  Biso   1.000  H
  H79      1.0000 0.79580  0.59191  0.14720  Biso   1.000  H
  C63      1.0000 0.93776  0.64851  0.16942  Biso   1.000  C
  C64      1.0000 0.63782  0.67538  0.23813  Biso   1.000  C
  H80      1.0000 0.66890  0.58381  0.26810  Biso   1.000  H
  H81      1.0000 0.63555  0.58559  0.20302  Biso   1.000  H
  C65      1.0000 0.36544  0.94258  0.51240  Biso   1.000  C
  C66      1.0000 0.34447  0.89028  0.60461  Biso   1.000  C
  C67      1.0000 0.49724  0.89940  0.45457  Biso   1.000  C
  C68      1.0000 0.61622  0.79938  0.48363  Biso   1.000  C
  H82      1.0000 0.96462  0.67871  0.19919  Biso   1.000  H
  H83      1.0000 0.98905  0.61160  0.17309  Biso   1.000  H
  N11      1.0000 0.93685  0.68016  0.11406  Biso   1.000  N
  H84      1.0000 0.63821  0.69681  0.20261  Biso   1.000  H
  H85      1.0000 0.55932  0.67480  0.24542  Biso   1.000  H
  N12      1.0000 0.71086  0.71234  0.28302  Biso   1.000  N
  C69      1.0000 0.41315  0.94442  0.46316  Biso   1.000  C
  C70      1.0000 0.27433  0.99141  0.52077  Biso   1.000  C
  H86      1.0000 0.38771  0.91581  0.63371  Biso   1.000  H
  H87      1.0000 0.34387  0.84618  0.61641  Biso   1.000  H
  H88      1.0000 0.26717  0.90620  0.59681  Biso   1.000  H
  C71      1.0000 0.55351  0.90408  0.40255  Biso   1.000  C
  H89      1.0000 0.69266  0.81622  0.49293  Biso   1.000  H
  H90      1.0000 0.60236  0.78732  0.44503  Biso   1.000  H
  H91      1.0000 0.60817  0.76218  0.50623  Biso   1.000  H
  C72      1.0000 0.05211  0.69589  0.09980  Biso   1.000  C
  H92      1.0000 0.90018  0.65401  0.08742  Biso   1.000  H
  H93      1.0000 0.89610  0.71693  0.11331  Biso   1.000  H
  C73      1.0000 0.65938  0.77671  0.29211  Biso   1.000  C
  H94      1.0000 0.78089  0.71799  0.27369  Biso   1.000  H
  H95      1.0000 0.71902  0.68952  0.31492  Biso   1.000  H
  C74      1.0000 0.37191  0.99469  0.41935  Biso   1.000  C
  H96      1.0000 0.26491  0.99180  0.55971  Biso   1.000  H
  N13      1.0000 0.16519  0.97583  0.48634  Biso   1.000  N
  H97      1.0000 0.29863  0.03402  0.51123  Biso   1.000  H
  H98      1.0000 0.57744  0.94842  0.39829  Biso   1.000  H
  H99      1.0000 0.62201  0.87740  0.40780  Biso   1.000  H
  N14      1.0000 0.48000  0.88420  0.35131  Biso   1.000  N
  H100     1.0000 0.04143  0.72050  0.06541  Biso   1.000  H
  H101     1.0000 0.09024  0.65589  0.09288  Biso   1.000  H
  C75      1.0000 0.13009  0.73362  0.14378  Biso   1.000  C
  C76      1.0000 0.74093  0.81902  0.33022  Biso   1.000  C
  H102     1.0000 0.58994  0.77048  0.30812  Biso   1.000  H
  H103     1.0000 0.63843  0.79822  0.25639  Biso   1.000  H
  H104     1.0000 0.30627  0.97848  0.39479  Biso   1.000  H
  H105     1.0000 0.43214  0.00420  0.39829  Biso   1.000  H
  H106     1.0000 0.35117  0.03329  0.43711  Biso   1.000  H
  H107     1.0000 0.13865  0.93723  0.48680  Biso   1.000  H
  C77      1.0000 0.10536  0.02012  0.45424  Biso   1.000  C
  C78      1.0000 0.46132  0.92271  0.30629  Biso   1.000  C
  H108     1.0000 0.44776  0.84691  0.34989  Biso   1.000  H
  C79      1.0000 0.19863  0.70192  0.18739  Biso   1.000  C
  C80      1.0000 0.13941  0.79929  0.13941  Biso   1.000  C
  C81      1.0000 0.79828  0.79702  0.38149  Biso   1.000  C
  C82      1.0000 0.75841  0.88198  0.31467  Biso   1.000  C
  C83      1.0000 0.00099  0.99662  0.41551  Biso   1.000  C
  O9       1.0000 0.13472  0.07749  0.45257  Biso   1.000  O
  C84      1.0000 0.38122  0.89791  0.25618  Biso   1.000  C
  O10      1.0000 0.50069  0.97771  0.30495  Biso   1.000  O
  H109     1.0000 0.19325  0.65729  0.19060  Biso   1.000  H
  C85      1.0000 0.27496  0.73579  0.22612  Biso   1.000  C
  H110     1.0000 0.09355  0.82100  0.11060  Biso   1.000  H
  C86      1.0000 0.21744  0.83412  0.17789  Biso   1.000  C
  H111     1.0000 0.78615  0.75509  0.39300  Biso   1.000  H
  C87      1.0000 0.87320  0.83702  0.41543  Biso   1.000  C
  H112     1.0000 0.72008  0.89718  0.28069  Biso   1.000  H
  C88      1.0000 0.83194  0.92319  0.34873  Biso   1.000  C
  H113     1.0000 0.01814  0.99271  0.37791  Biso   1.000  H
  O11      1.0000 0.96838  0.93588  0.43452  Biso   1.000  O
  H114     1.0000 0.93852  0.02721  0.41493  Biso   1.000  H
  H115     1.0000 0.30810  0.92010  0.25309  Biso   1.000  H
  H116     1.0000 0.41343  0.90669  0.22262  Biso   1.000  H
  O12      1.0000 0.36408  0.83099  0.26097  Biso   1.000  O
  C89      1.0000 0.28405  0.80151  0.22078  Biso   1.000  C
  H117     1.0000 0.31971  0.71432  0.25538  Biso   1.000  H
  H118     1.0000 0.22412  0.87851  0.17451  Biso   1.000  H
  C90      1.0000 0.88978  0.89979  0.39842  Biso   1.000  C
  H119     1.0000 0.91209  0.82201  0.44932  Biso   1.000  H
  H120     1.0000 0.84173  0.96570  0.33809  Biso   1.000  H
  C91      1.0000 0.78265  0.33412  0.32213  Biso   1.000  C
  C92      1.0000 0.71604  0.30151  0.27923  Biso   1.000  C
  C93      1.0000 0.86060  0.29929  0.36061  Biso   1.000  C
  H121     1.0000 0.77589  0.37851  0.32550  Biso   1.000  H
  O13      1.0000 0.63592  0.33099  0.23904  Biso   1.000  O
  C94      1.0000 0.72512  0.23579  0.27389  Biso   1.000  C
  H122     1.0000 0.90654  0.32100  0.38941  Biso   1.000  H
  C95      1.0000 0.86990  0.23362  0.35619  Biso   1.000  C
  C96      1.0000 0.61878  0.39791  0.24384  Biso   1.000  C
  C97      1.0000 0.80146  0.20192  0.31262  Biso   1.000  C
  H123     1.0000 0.68028  0.21432  0.24459  Biso   1.000  H
  C98      1.0000 0.94790  0.19589  0.40021  Biso   1.000  C
  C99      1.0000 0.53869  0.42271  0.19373  Biso   1.000  C
  H124     1.0000 0.69190  0.42010  0.24692  Biso   1.000  H
  H125     1.0000 0.58657  0.40669  0.27740  Biso   1.000  H
  H126     1.0000 0.80684  0.15729  0.30941  Biso   1.000  H
  H127     1.0000 0.95866  0.22050  0.43460  Biso   1.000  H
  H128     1.0000 0.90984  0.15589  0.40709  Biso   1.000  H
  N15      1.0000 0.06316  0.18016  0.38595  Biso   1.000  N
  N16      1.0000 0.52001  0.38420  0.14870  Biso   1.000  N
  O14      1.0000 0.49931  0.47771  0.19506  Biso   1.000  O
  C100     1.0000 0.06223  0.14851  0.33055  Biso   1.000  C
  H129     1.0000 0.09983  0.15401  0.41259  Biso   1.000  H
  H130     1.0000 0.10399  0.21688  0.38670  Biso   1.000  H
  C101     1.0000 0.44649  0.40408  0.09747  Biso   1.000  C
  H131     1.0000 0.55233  0.34691  0.15012  Biso   1.000  H
  C102     1.0000 0.18326  0.12680  0.32659  Biso   1.000  C
  H132     1.0000 0.03547  0.17871  0.30083  Biso   1.000  H
  H133     1.0000 0.01096  0.11160  0.32692  Biso   1.000  H
  H134     1.0000 0.42256  0.44842  0.10172  Biso   1.000  H
  H135     1.0000 0.37799  0.37740  0.09222  Biso   1.000  H
  C103     1.0000 0.50276  0.39940  0.04544  Biso   1.000  C
  H136     1.0000 0.23563  0.16231  0.33739  Biso   1.000  H
  H137     1.0000 0.20421  0.09191  0.35281  Biso   1.000  H
  N17      1.0000 0.19704  0.10504  0.27081  Biso   1.000  N
  C104     1.0000 0.58684  0.44442  0.03681  Biso   1.000  C
  C105     1.0000 0.46944  0.35048  0.00584  Biso   1.000  C
  C106     1.0000 0.14894  0.03990  0.26139  Biso   1.000  C
  C107     1.0000 0.31990  0.10711  0.26522  Biso   1.000  C
  C108     1.0000 0.62810  0.49469  0.08067  Biso   1.000  C
  C109     1.0000 0.63474  0.44258  0.98765  Biso   1.000  C
  C110     1.0000 0.38379  0.29938  0.01638  Biso   1.000  C
  C111     1.0000 0.51821  0.34908  0.95675  Biso   1.000  C
  H138     1.0000 0.07124  0.04029  0.26960  Biso   1.000  H
  H139     1.0000 0.19342  0.01081  0.28782  Biso   1.000  H
  C112     1.0000 0.14574  0.01221  0.20298  Biso   1.000  C
  C113     1.0000 0.36218  0.17538  0.26189  Biso   1.000  C
  H140     1.0000 0.33110  0.08381  0.23191  Biso   1.000  H
  H141     1.0000 0.36454  0.08559  0.29699  Biso   1.000  H
  H142     1.0000 0.56786  0.50420  0.10172  Biso   1.000  H
  H143     1.0000 0.64892  0.53329  0.06291  Biso   1.000  H
  H144     1.0000 0.69382  0.47848  0.10522  Biso   1.000  H
  C114     1.0000 0.60108  0.39482  0.94729  Biso   1.000  C
  C115     1.0000 0.72585  0.49141  0.97927  Biso   1.000  C
  H145     1.0000 0.30735  0.31622  0.00709  Biso   1.000  H
  H146     1.0000 0.39772  0.28732  0.05499  Biso   1.000  H
  H147     1.0000 0.39201  0.26218  0.99382  Biso   1.000  H
  C116     1.0000 0.48473  0.29591  0.91440  Biso   1.000  C
  H148     1.0000 0.11174  0.96951  0.20161  Biso   1.000  H
  H149     1.0000 0.22389  0.00748  0.19589  Biso   1.000  H
  N18      1.0000 0.08049  0.05220  0.15804  Biso   1.000  N
  H150     1.0000 0.36180  0.19681  0.29741  Biso   1.000  H
  H151     1.0000 0.44068  0.17480  0.25459  Biso   1.000  H
  N19      1.0000 0.28923  0.21234  0.21699  Biso   1.000  N
  C117     1.0000 0.65571  0.39028  0.89543  Biso   1.000  C
  N20      1.0000 0.83490  0.47583  0.01367  Biso   1.000  N
  H152     1.0000 0.73527  0.49180  0.94033  Biso   1.000  H
  H153     1.0000 0.70155  0.53402  0.98881  Biso   1.000  H
  H154     1.0000 0.40475  0.28462  0.91361  Biso   1.000  H
  H155     1.0000 0.49403  0.31091  0.87763  Biso   1.000  H
  N21      1.0000 0.55705  0.23922  0.92941  Biso   1.000  N
  C118     1.0000 0.04671  0.01520  0.10501  Biso   1.000  C
  H156     1.0000 0.12380  0.08622  0.15141  Biso   1.000  H
  H157     1.0000 0.01695  0.06740  0.16959  Biso   1.000  H
  C119     1.0000 0.34063  0.27671  0.20790  Biso   1.000  C
  H158     1.0000 0.21910  0.21799  0.22629  Biso   1.000  H
  H159     1.0000 0.28099  0.18952  0.18510  Biso   1.000  H
  H160     1.0000 0.61247  0.41581  0.86633  Biso   1.000  H
  H161     1.0000 0.65631  0.34618  0.88363  Biso   1.000  H
  H162     1.0000 0.73301  0.40620  0.90323  Biso   1.000  H
  C120     1.0000 0.89464  0.52012  0.04577  Biso   1.000  C
  H163     1.0000 0.86135  0.43718  0.01322  Biso   1.000  H
  C121     1.0000 0.53632  0.18281  0.90460  Biso   1.000  C
  H164     1.0000 0.61546  0.24279  0.95542  Biso   1.000  H
  C122     1.0000 0.95960  0.05119  0.06391  Biso   1.000  C
  H165     1.0000 0.01461  0.97390  0.11352  Biso   1.000  H
  H166     1.0000 0.11453  0.00680  0.08821  Biso   1.000  H
  C123     1.0000 0.25908  0.31902  0.16980  Biso   1.000  C
  H167     1.0000 0.41006  0.27048  0.19189  Biso   1.000  H
  H168     1.0000 0.36165  0.29822  0.24359  Biso   1.000  H
  C124     1.0000 0.99910  0.49662  0.08450  Biso   1.000  C
  O15      1.0000 0.86528  0.57749  0.04744  Biso   1.000  O
  C125     1.0000 0.61499  0.12781  0.92682  Biso   1.000  C
  O16      1.0000 0.45447  0.17268  0.86612  Biso   1.000  O
  C126     1.0000 0.97608  0.11522  0.05019  Biso   1.000  C
  C127     1.0000 0.86065  0.02089  0.03881  Biso   1.000  C
  C128     1.0000 0.20173  0.29702  0.11852  Biso   1.000  C
  C129     1.0000 0.24159  0.38198  0.18535  Biso   1.000  C
  H169     1.0000 0.98187  0.49271  0.12211  Biso   1.000  H
  H170     1.0000 0.06148  0.52721  0.08509  Biso   1.000  H
  O17      1.0000 0.03163  0.43588  0.06549  Biso   1.000  O
  H171     1.0000 0.57911  0.10161  0.95234  Biso   1.000  H
  H172     1.0000 0.63037  0.10060  0.89643  Biso   1.000  H
  O18      1.0000 0.71932  0.15502  0.95513  Biso   1.000  O
  C130     1.0000 0.89385  0.14841  0.01388  Biso   1.000  C
  H173     1.0000 0.04353  0.13601  0.06562  Biso   1.000  H
  C131     1.0000 0.77914  0.05312  0.00108  Biso   1.000  C
  H174     1.0000 0.84841  0.97800  0.04740  Biso   1.000  H
  C132     1.0000 0.12681  0.33702  0.08459  Biso   1.000  C
  H175     1.0000 0.21394  0.25509  0.10701  Biso   1.000  H
  C133     1.0000 0.16815  0.42319  0.15129  Biso   1.000  C
  H176     1.0000 0.27992  0.39718  0.21932  Biso   1.000  H
  C134     1.0000 0.11021  0.39979  0.10155  Biso   1.000  C
  C135     1.0000 0.79532  0.11691  0.98952  Biso   1.000  C
  H177     1.0000 0.90483  0.19169  0.00609  Biso   1.000  H
  H178     1.0000 0.71413  0.03141  0.98381  Biso   1.000  H
  H179     1.0000 0.08791  0.32201  0.05069  Biso   1.000  H
  H180     1.0000 0.15836  0.46570  0.16192  Biso   1.000  H
  C136     1.0000 0.21752  0.66593  0.67790  Biso   1.000  C
  C137     1.0000 0.13949  0.70071  0.63942  Biso   1.000  C
  C138     1.0000 0.28414  0.69849  0.72080  Biso   1.000  C
  H181     1.0000 0.22420  0.62149  0.67452  Biso   1.000  H
  H182     1.0000 0.09355  0.67900  0.61061  Biso   1.000  H
  C139     1.0000 0.13018  0.76638  0.64380  Biso   1.000  C
  C140     1.0000 0.27497  0.76421  0.72613  Biso   1.000  C
  O19      1.0000 0.36417  0.66901  0.76098  Biso   1.000  O
  C141     1.0000 0.19872  0.79813  0.68740  Biso   1.000  C
  C142     1.0000 0.05220  0.80411  0.59982  Biso   1.000  C
  H183     1.0000 0.31979  0.78568  0.75540  Biso   1.000  H
  C143     1.0000 0.38131  0.60209  0.75619  Biso   1.000  C
  H184     1.0000 0.19326  0.84271  0.69061  Biso   1.000  H
  H185     1.0000 0.04152  0.77950  0.56542  Biso   1.000  H
  H186     1.0000 0.09024  0.84411  0.59290  Biso   1.000  H
  N22      1.0000 0.93694  0.81984  0.61407  Biso   1.000  N
  C144     1.0000 0.46140  0.57729  0.80630  Biso   1.000  C
  H187     1.0000 0.30819  0.57990  0.75311  Biso   1.000  H
  H188     1.0000 0.41352  0.59331  0.72263  Biso   1.000  H
  C145     1.0000 0.93785  0.85149  0.66944  Biso   1.000  C
  H189     1.0000 0.90025  0.84599  0.58739  Biso   1.000  H
  H190     1.0000 0.89619  0.78312  0.61332  Biso   1.000  H
  N23      1.0000 0.48009  0.61580  0.85132  Biso   1.000  N
  O20      1.0000 0.50078  0.52229  0.80497  Biso   1.000  O
  C146     1.0000 0.81682  0.87320  0.67340  Biso   1.000  C
  H191     1.0000 0.96463  0.82129  0.69920  Biso   1.000  H
  H192     1.0000 0.98913  0.88840  0.67310  Biso   1.000  H
  C147     1.0000 0.55360  0.59592  0.90256  Biso   1.000  C
  H193     1.0000 0.44776  0.65309  0.84991  Biso   1.000  H
  H194     1.0000 0.76445  0.83769  0.66260  Biso   1.000  H
  H195     1.0000 0.79589  0.90809  0.64722  Biso   1.000  H
  N24      1.0000 0.80306  0.89496  0.72922  Biso   1.000  N
  H196     1.0000 0.57753  0.55163  0.89831  Biso   1.000  H
  H197     1.0000 0.62210  0.62260  0.90781  Biso   1.000  H
  C148     1.0000 0.49733  0.60060  0.95459  Biso   1.000  C
  C149     1.0000 0.85114  0.96010  0.73860  Biso   1.000  C
  C150     1.0000 0.68019  0.89289  0.73480  Biso   1.000  C
  C151     1.0000 0.41324  0.55558  0.96317  Biso   1.000  C
  C152     1.0000 0.53064  0.64952  0.99415  Biso   1.000  C
  H198     1.0000 0.92885  0.95971  0.73043  Biso   1.000  H
  H199     1.0000 0.80667  0.98919  0.71221  Biso   1.000  H
  C153     1.0000 0.85435  0.98779  0.79705  Biso   1.000  C
  C154     1.0000 0.63791  0.82462  0.73814  Biso   1.000  C
  H200     1.0000 0.66899  0.91619  0.76811  Biso   1.000  H
  H201     1.0000 0.63554  0.91441  0.70300  Biso   1.000  H
  C155     1.0000 0.37200  0.50531  0.91936  Biso   1.000  C
  C156     1.0000 0.36535  0.55742  0.01238  Biso   1.000  C
  C157     1.0000 0.61629  0.70062  0.98360  Biso   1.000  C
  C158     1.0000 0.48188  0.65092  0.04327  Biso   1.000  C
  H202     1.0000 0.77620  0.99252  0.80413  Biso   1.000  H
  N25      1.0000 0.91960  0.94780  0.84199  Biso   1.000  N
  H203     1.0000 0.88835  0.03049  0.79842  Biso   1.000  H
  H204     1.0000 0.63830  0.80319  0.70262  Biso   1.000  H
  H205     1.0000 0.55941  0.82520  0.74543  Biso   1.000  H
  N26      1.0000 0.71085  0.78766  0.78300  Biso   1.000  N
  H206     1.0000 0.43223  0.49580  0.89831  Biso   1.000  H
  H207     1.0000 0.35126  0.46671  0.93712  Biso   1.000  H
  H208     1.0000 0.30627  0.52152  0.89481  Biso   1.000  H
  C159     1.0000 0.39900  0.60518  0.05269  Biso   1.000  C
  C160     1.0000 0.27433  0.50859  0.02076  Biso   1.000  C
  H209     1.0000 0.69275  0.68383  0.99294  Biso   1.000  H
  H210     1.0000 0.60244  0.71268  0.94500  Biso   1.000  H
  H211     1.0000 0.60808  0.73782  0.00621  Biso   1.000  H
  C161     1.0000 0.51534  0.70409  0.08559  Biso   1.000  C
  C162     1.0000 0.95338  0.98480  0.89501  Biso   1.000  C
  H212     1.0000 0.87629  0.91383  0.84861  Biso   1.000  H
  H213     1.0000 0.98321  0.93260  0.83040  Biso   1.000  H
  C163     1.0000 0.65947  0.72329  0.79213  Biso   1.000  C
  H214     1.0000 0.78098  0.78201  0.77370  Biso   1.000  H
  H215     1.0000 0.71910  0.81053  0.81493  Biso   1.000  H
  C164     1.0000 0.34438  0.60972  0.10460  Biso   1.000  C
  N27      1.0000 0.16528  0.52417  0.98635  Biso   1.000  N
  H216     1.0000 0.26482  0.50820  0.05970  Biso   1.000  H
  H217     1.0000 0.29863  0.46598  0.01121  Biso   1.000  H
  H218     1.0000 0.59543  0.71538  0.08642  Biso   1.000  H
  H219     1.0000 0.50607  0.68909  0.12240  Biso   1.000  H
  N28      1.0000 0.44313  0.76078  0.07062  Biso   1.000  N
  C165     1.0000 0.04050  0.94881  0.93612  Biso   1.000  C
  H220     1.0000 0.88556  0.99320  0.91181  Biso   1.000  H
  H221     1.0000 0.98548  0.02610  0.88651  Biso   1.000  H
  C166     1.0000 0.74102  0.68098  0.83023  Biso   1.000  C
  H222     1.0000 0.59003  0.72952  0.80813  Biso   1.000  H
  H223     1.0000 0.63852  0.70182  0.75640  Biso   1.000  H
  H224     1.0000 0.38763  0.58419  0.13370  Biso   1.000  H
  H225     1.0000 0.34379  0.65382  0.11639  Biso   1.000  H
  H226     1.0000 0.26708  0.59380  0.09680  Biso   1.000  H
  C167     1.0000 0.10544  0.47988  0.95421  Biso   1.000  C
  H227     1.0000 0.13874  0.56282  0.98681  Biso   1.000  H
  C168     1.0000 0.46376  0.81719  0.09538  Biso   1.000  C
  H228     1.0000 0.38472  0.75721  0.04461  Biso   1.000  H
  C169     1.0000 0.02401  0.88478  0.94983  Biso   1.000  C
  C170     1.0000 0.13944  0.97911  0.96122  Biso   1.000  C
  C171     1.0000 0.79837  0.70298  0.88151  Biso   1.000  C
  C172     1.0000 0.75849  0.61802  0.81464  Biso   1.000  C
  C173     1.0000 0.00099  0.50343  0.91552  Biso   1.000  C
  O21      1.0000 0.13481  0.42251  0.95259  Biso   1.000  O
  C174     1.0000 0.38510  0.87219  0.07321  Biso   1.000  C
  O22      1.0000 0.54562  0.82732  0.13390  Biso   1.000  O
  C175     1.0000 0.10623  0.85159  0.98610  Biso   1.000  C
  H229     1.0000 0.95656  0.86399  0.93441  Biso   1.000  H
  C176     1.0000 0.22094  0.94693  0.99890  Biso   1.000  C
  H230     1.0000 0.15177  0.02200  0.95263  Biso   1.000  H
  H231     1.0000 0.78624  0.74491  0.89301  Biso   1.000  H
  C177     1.0000 0.87327  0.66298  0.91540  Biso   1.000  C
  H232     1.0000 0.72017  0.60282  0.78070  Biso   1.000  H
  C178     1.0000 0.83202  0.57681  0.84874  Biso   1.000  C
  H233     1.0000 0.01823  0.50729  0.87792  Biso   1.000  H
  H234     1.0000 0.93860  0.47279  0.91490  Biso   1.000  H
  O23      1.0000 0.96847  0.56412  0.93453  Biso   1.000  O
  H235     1.0000 0.42099  0.89839  0.04769  Biso   1.000  H
  H236     1.0000 0.36972  0.89940  0.10360  Biso   1.000  H
  O24      1.0000 0.28078  0.84498  0.04490  Biso   1.000  O
  H237     1.0000 0.09525  0.80831  0.99390  Biso   1.000  H
  C179     1.0000 0.20477  0.88309  0.01051  Biso   1.000  C
  H238     1.0000 0.28596  0.96859  0.01622  Biso   1.000  H
  C180     1.0000 0.88987  0.60021  0.89843  Biso   1.000  C
  H239     1.0000 0.91218  0.67799  0.94933  Biso   1.000  H
  H240     1.0000 0.84181  0.53430  0.83811  Biso   1.000  H
  Ne1      1.0000 0.85086  0.22340  0.62302  Biso   1.000  Ne
  He1      1.0000 0.99118  0.20130  0.72677  Biso   1.000  He
  He2      1.0000 0.71867  0.26594  0.61415  Biso   1.000  He
  He3      1.0000 0.84461  0.18642  0.48462  Biso   1.000  He
  Ar1      1.0000 0.82172  0.21363  0.62738  Biso   1.000  Ar
  Ne2      1.0000 0.14924  0.77661  0.37699  Biso   1.000  Ne
  He4      1.0000 0.18339  0.81018  0.48595  Biso   1.000  He
  He5      1.0000 0.26918  0.74044  0.38465  Biso   1.000  He
  He6      1.0000 0.05221  0.95381  0.25765  Biso   1.000  He
  Ar2      1.0000 0.16388  0.77439  0.36948  Biso   1.000  Ar
  Ne3      1.0000 0.85082  0.27660  0.12302  Biso   1.000  Ne
  He7      1.0000 0.93288  0.41703  0.22702  Biso   1.000  He
  He8      1.0000 0.71996  0.23479  0.11427  Biso   1.000  He
  He9      1.0000 0.84687  0.31377  0.98373  Biso   1.000  He
  Ar3      1.0000 0.81933  0.28546  0.12584  Biso   1.000  Ar
  Ne4      1.0000 0.14928  0.72340  0.87700  Biso   1.000  Ne
  He10     1.0000 0.17618  0.68880  0.99632  Biso   1.000  He
  He11     1.0000 0.28553  0.76795  0.88629  Biso   1.000  He
  He12     1.0000 0.06909  0.58680  0.77516  Biso   1.000  He
  Ar4      1.0000 0.18768  0.70974  0.87864  Biso   1.000  Ar
