data_image0
_cell_length_a       14.064
_cell_length_b       16.224
_cell_length_c       21.93
_cell_angle_alpha    92.64
_cell_angle_beta     106.7
_cell_angle_gamma    113.78

_symmetry_space_group_name_H-M    "P 1"
_symmetry_int_tables_number       1

loop_
  _symmetry_equiv_pos_as_xyz
  'x, y, z'

loop_
  _atom_site_label
  _atom_site_occupancy
  _atom_site_fract_x
  _atom_site_fract_y
  _atom_site_fract_z
  _atom_site_thermal_displace_type
  _atom_site_B_iso_or_equiv
  _atom_site_type_symbol
  N1       1.0000 0.52504  0.54715  0.39049  Biso   1.000  N
  C1       1.0000 0.46588  0.46558  0.35774  Biso   1.000  C
  C2       1.0000 0.51031  0.62585  0.36636  Biso   1.000  C
  C3       1.0000 0.48578  0.39050  0.38773  Biso   1.000  C
  C4       1.0000 0.37778  0.43497  0.29191  Biso   1.000  C
  C5       1.0000 0.60208  0.67645  0.33885  Biso   1.000  C
  C6       1.0000 0.51475  0.68783  0.42285  Biso   1.000  C
  H1       1.0000 0.43708  0.60367  0.33148  Biso   1.000  H
  C7       1.0000 0.39774  0.30524  0.37925  Biso   1.000  C
  C8       1.0000 0.59217  0.40447  0.42469  Biso   1.000  C
  H2       1.0000 0.30497  0.40497  0.29670  Biso   1.000  H
  H3       1.0000 0.38812  0.39177  0.26478  Biso   1.000  H
  H4       1.0000 0.38297  0.48835  0.27142  Biso   1.000  H
  N2       1.0000 0.57969  0.61735  0.27897  Biso   1.000  N
  H5       1.0000 0.67545  0.68846  0.37063  Biso   1.000  H
  C9       1.0000 0.60086  0.76628  0.32175  Biso   1.000  C
  C10      1.0000 0.51083  0.77577  0.40342  Biso   1.000  C
  H6       1.0000 0.45177  0.65438  0.43762  Biso   1.000  H
  H7       1.0000 0.58355  0.70345  0.45942  Biso   1.000  H
  C11      1.0000 0.41397  0.23470  0.40730  Biso   1.000  C
  H8       1.0000 0.32547  0.29518  0.35391  Biso   1.000  H
  C12      1.0000 0.61035  0.33416  0.45177  Biso   1.000  C
  H9       1.0000 0.65243  0.46265  0.43132  Biso   1.000  H
  C13      1.0000 0.65237  0.60354  0.26478  Biso   1.000  C
  H10      1.0000 0.53280  0.75259  0.28513  Biso   1.000  H
  H11      1.0000 0.66467  0.79983  0.30760  Biso   1.000  H
  C14      1.0000 0.60589  0.82717  0.37925  Biso   1.000  C
  H12      1.0000 0.43998  0.76068  0.36888  Biso   1.000  H
  H13      1.0000 0.51576  0.81508  0.44120  Biso   1.000  H
  C15      1.0000 0.31492  0.14615  0.39988  Biso   1.000  C
  C16      1.0000 0.52036  0.24879  0.44237  Biso   1.000  C
  C17      1.0000 0.72308  0.34669  0.49197  Biso   1.000  C
  C18      1.0000 0.61900  0.53727  0.20452  Biso   1.000  C
  C19      1.0000 0.77463  0.66156  0.29888  Biso   1.000  C
  C20      1.0000 0.75403  0.59946  0.32262  Biso   1.000  C
  H14      1.0000 0.67675  0.84578  0.41461  Biso   1.000  H
  H15      1.0000 0.60157  0.88337  0.36568  Biso   1.000  H
  N3       1.0000 0.22600  0.15259  0.39388  Biso   1.000  N
  C21      1.0000 0.33098  0.05941  0.39993  Biso   1.000  C
  H16      1.0000 0.53246  0.20017  0.46019  Biso   1.000  H
  N4       1.0000 0.72486  0.29295  0.53300  Biso   1.000  N
  C22      1.0000 0.82004  0.41888  0.47981  Biso   1.000  C
  C23      1.0000 0.50756  0.49390  0.16538  Biso   1.000  C
  C24      1.0000 0.69337  0.51396  0.18776  Biso   1.000  C
  H17      1.0000 0.78573  0.71378  0.32911  Biso   1.000  H
  H18      1.0000 0.81035  0.68409  0.26682  Biso   1.000  H
  H19      1.0000 0.80700  0.62439  0.32291  Biso   1.000  H
  H20      1.0000 0.82355  0.63263  0.31448  Biso   1.000  H
  H21      1.0000 0.74055  0.53534  0.32340  Biso   1.000  H
  H22      1.0000 0.75864  0.62786  0.36452  Biso   1.000  H
  C25      1.0000 0.12077  0.07199  0.38157  Biso   1.000  C
  H23      1.0000 0.35424  0.04986  0.44460  Biso   1.000  H
  H24      1.0000 0.38765  0.06509  0.38070  Biso   1.000  H
  H25      1.0000 0.26135  0.00719  0.37460  Biso   1.000  H
  C26      1.0000 0.82711  0.29436  0.57393  Biso   1.000  C
  H26      1.0000 0.83739  0.47899  0.50311  Biso   1.000  H
  H27      1.0000 0.80216  0.41959  0.43331  Biso   1.000  H
  H28      1.0000 0.88388  0.40540  0.49522  Biso   1.000  H
  C27      1.0000 0.47199  0.42796  0.11049  Biso   1.000  C
  H29      1.0000 0.45567  0.50959  0.17642  Biso   1.000  H
  C28      1.0000 0.66046  0.44786  0.13326  Biso   1.000  C
  H30      1.0000 0.76898  0.54370  0.21392  Biso   1.000  H
  C29      1.0000 0.04936  0.06116  0.31104  Biso   1.000  C
  C30      1.0000 0.06465  0.08791  0.42832  Biso   1.000  C
  H31      1.0000 0.13370  0.01621  0.38773  Biso   1.000  H
  H32      1.0000 0.89125  0.35037  0.57229  Biso   1.000  H
  C31      1.0000 0.82550  0.29435  0.64350  Biso   1.000  C
  C32      1.0000 0.83411  0.20755  0.54875  Biso   1.000  C
  C33      1.0000 0.35254  0.37945  0.06947  Biso   1.000  C
  C34      1.0000 0.55006  0.40660  0.09475  Biso   1.000  C
  C35      1.0000 0.74499  0.42341  0.11960  Biso   1.000  C
  N5       1.0000 0.10367  0.04088  0.26875  Biso   1.000  N
  H33      1.0000 0.04363  0.11970  0.30412  Biso   1.000  H
  C36      1.0000 0.93477  0.98375  0.29641  Biso   1.000  C
  H34      1.0000 0.11000  0.09206  0.47332  Biso   1.000  H
  H35      1.0000 0.05966  0.14675  0.42512  Biso   1.000  H
  C37      1.0000 0.94937  0.01077  0.41330  Biso   1.000  C
  H36      1.0000 0.82262  0.35104  0.65963  Biso   1.000  H
  H37      1.0000 0.75856  0.24149  0.64403  Biso   1.000  H
  C38      1.0000 0.92776  0.28889  0.68855  Biso   1.000  C
  N6       1.0000 0.83975  0.21233  0.48354  Biso   1.000  N
  C39      1.0000 0.93814  0.20409  0.59346  Biso   1.000  C
  H38      1.0000 0.76723  0.15188  0.54758  Biso   1.000  H
  N7       1.0000 0.32999  0.33118  0.01545  Biso   1.000  N
  C40      1.0000 0.26860  0.37715  0.10241  Biso   1.000  C
  C41      1.0000 0.27246  0.40418  0.08962  Biso   1.000  C
  H39      1.0000 0.52700  0.36290  0.05692  Biso   1.000  H
  N8       1.0000 0.84313  0.46743  0.15661  Biso   1.000  N
  C42      1.0000 0.70600  0.34706  0.06201  Biso   1.000  C
  C43      1.0000 0.69550  0.32141  0.08138  Biso   1.000  C
  C44      1.0000 0.71680  0.37682  0.05062  Biso   1.000  C
  C45      1.0000 0.11958  0.08346  0.22293  Biso   1.000  C
  H40      1.0000 0.94008  0.92507  0.30000  Biso   1.000  H
  H41      1.0000 0.88895  0.97895  0.25151  Biso   1.000  H
  C46      1.0000 0.87996  0.00060  0.34321  Biso   1.000  C
  H42      1.0000 0.95438  0.95255  0.42033  Biso   1.000  H
  H43      1.0000 0.91386  0.02447  0.44280  Biso   1.000  H
  H44      1.0000 0.99440  0.34497  0.69179  Biso   1.000  H
  H45      1.0000 0.92221  0.28533  0.73239  Biso   1.000  H
  C47      1.0000 0.93833  0.20548  0.66321  Biso   1.000  C
  C48      1.0000 0.75981  0.15654  0.43399  Biso   1.000  C
  H46      1.0000 0.94189  0.14759  0.57781  Biso   1.000  H
  H47      1.0000 0.00430  0.25728  0.59210  Biso   1.000  H
  C49      1.0000 0.21707  0.28267  0.97014  Biso   1.000  C
  H48      1.0000 0.25338  0.43061  0.09640  Biso   1.000  H
  H49      1.0000 0.29899  0.37826  0.14891  Biso   1.000  H
  H50      1.0000 0.20004  0.32098  0.08308  Biso   1.000  H
  H51      1.0000 0.26728  0.38350  0.13031  Biso   1.000  H
  H52      1.0000 0.19979  0.37429  0.05590  Biso   1.000  H
  H53      1.0000 0.29819  0.47080  0.09582  Biso   1.000  H
  C50      1.0000 0.93478  0.45160  0.14939  Biso   1.000  C
  H54      1.0000 0.76990  0.34141  0.05639  Biso   1.000  H
  H55      1.0000 0.66682  0.36211  0.02272  Biso   1.000  H
  H56      1.0000 0.65630  0.28907  0.07000  Biso   1.000  H
  H57      1.0000 0.75581  0.30739  0.07852  Biso   1.000  H
  H58      1.0000 0.64667  0.31548  0.03759  Biso   1.000  H
  H59      1.0000 0.78360  0.37820  0.04432  Biso   1.000  H
  H60      1.0000 0.66201  0.31300  0.04331  Biso   1.000  H
  H61      1.0000 0.65355  0.27845  0.10439  Biso   1.000  H
  H62      1.0000 0.68661  0.40920  0.01991  Biso   1.000  H
  C51      1.0000 0.11246  0.17650  0.21581  Biso   1.000  C
  C52      1.0000 0.17803  0.05775  0.18359  Biso   1.000  C
  C53      1.0000 0.06498  0.14399  0.19628  Biso   1.000  C
  H63      1.0000 0.80625  0.94863  0.33342  Biso   1.000  H
  H64      1.0000 0.86976  0.05698  0.33730  Biso   1.000  H
  H65      1.0000 0.87625  0.14929  0.66520  Biso   1.000  H
  H66      1.0000 0.00772  0.20586  0.69121  Biso   1.000  H
  C54      1.0000 0.77005  0.17046  0.36893  Biso   1.000  C
  C55      1.0000 0.65374  0.08081  0.43568  Biso   1.000  C
  C56      1.0000 0.19621  0.18342  0.94965  Biso   1.000  C
  H67      1.0000 0.16354  0.28368  0.99150  Biso   1.000  H
  C57      1.0000 0.20831  0.33147  0.91201  Biso   1.000  C
  C58      1.0000 0.00463  0.45031  0.21711  Biso   1.000  C
  H68      1.0000 0.90555  0.39118  0.12052  Biso   1.000  H
  C59      1.0000 0.00039  0.52794  0.11960  Biso   1.000  C
  H69      1.0000 0.12156  0.20411  0.19619  Biso   1.000  H
  H70      1.0000 0.02381  0.15160  0.22361  Biso   1.000  H
  H71      1.0000 0.06378  0.17117  0.17221  Biso   1.000  H
  H72      1.0000 0.18631  0.22521  0.22278  Biso   1.000  H
  H73      1.0000 0.08289  0.19130  0.24792  Biso   1.000  H
  C60      1.0000 0.19324  0.09658  0.13011  Biso   1.000  C
  C61      1.0000 0.22071  0.99449  0.20171  Biso   1.000  C
  H74      1.0000 0.01440  0.11551  0.15201  Biso   1.000  H
  C62      1.0000 0.70471  0.10190  0.31409  Biso   1.000  C
  C63      1.0000 0.84555  0.25537  0.36215  Biso   1.000  C
  H75      1.0000 0.66178  0.02357  0.43781  Biso   1.000  H
  H76      1.0000 0.59316  0.07238  0.39649  Biso   1.000  H
  H77      1.0000 0.63784  0.09740  0.47390  Biso   1.000  H
  N9       1.0000 0.19010  0.13795  0.00543  Biso   1.000  N
  C64      1.0000 0.08729  0.13130  0.89350  Biso   1.000  C
  H78      1.0000 0.25867  0.18316  0.93652  Biso   1.000  H
  H79      1.0000 0.21607  0.39336  0.92615  Biso   1.000  H
  H80      1.0000 0.26944  0.33883  0.89559  Biso   1.000  H
  C65      1.0000 0.09823  0.27823  0.85727  Biso   1.000  C
  N10      1.0000 0.94091  0.36631  0.23669  Biso   1.000  N
  H81      1.0000 0.01935  0.50458  0.24821  Biso   1.000  H
  C66      1.0000 0.11395  0.45115  0.21774  Biso   1.000  C
  H82      1.0000 0.95479  0.52289  0.07450  Biso   1.000  H
  C67      1.0000 0.10697  0.52391  0.11965  Biso   1.000  C
  H83      1.0000 0.01838  0.58797  0.14440  Biso   1.000  H
  C68      1.0000 0.25065  0.07407  0.09451  Biso   1.000  C
  H84      1.0000 0.16431  0.13918  0.11733  Biso   1.000  H
  C69      1.0000 0.27940  0.97236  0.16780  Biso   1.000  C
  H85      1.0000 0.20914  0.96622  0.23761  Biso   1.000  H
  C70      1.0000 0.71260  0.11689  0.25316  Biso   1.000  C
  H86      1.0000 0.65387  0.04420  0.31831  Biso   1.000  H
  C71      1.0000 0.85337  0.27228  0.30160  Biso   1.000  C
  H87      1.0000 0.89187  0.30195  0.39940  Biso   1.000  H
  C72      1.0000 0.26625  0.11708  0.03691  Biso   1.000  C
  C73      1.0000 0.08233  0.18118  0.83668  Biso   1.000  C
  H88      1.0000 0.07933  0.06934  0.87912  Biso   1.000  H
  H89      1.0000 0.02500  0.12377  0.90876  Biso   1.000  H
  H90      1.0000 0.03710  0.27577  0.87209  Biso   1.000  H
  H91      1.0000 0.09700  0.31008  0.81987  Biso   1.000  H
  C74      1.0000 0.92606  0.36387  0.29099  Biso   1.000  C
  H92      1.0000 0.15988  0.45749  0.26289  Biso   1.000  H
  H93      1.0000 0.09949  0.39230  0.19309  Biso   1.000  H
  C75      1.0000 0.17708  0.52987  0.18805  Biso   1.000  C
  H94      1.0000 0.08919  0.46580  0.09238  Biso   1.000  H
  H95      1.0000 0.14846  0.57528  0.10100  Biso   1.000  H
  C76      1.0000 0.29458  0.01326  0.11413  Biso   1.000  C
  C77      1.0000 0.33123  0.90846  0.18747  Biso   1.000  C
  C78      1.0000 0.64198  0.04059  0.19522  Biso   1.000  C
  C79      1.0000 0.78596  0.20190  0.24754  Biso   1.000  C
  C80      1.0000 0.37068  0.13342  0.02340  Biso   1.000  C
  H96      1.0000 0.01005  0.14696  0.80214  Biso   1.000  H
  H97      1.0000 0.14056  0.18388  0.81895  Biso   1.000  H
  C81      1.0000 0.97194  0.44464  0.34539  Biso   1.000  C
  H98      1.0000 0.19760  0.58919  0.21479  Biso   1.000  H
  H99      1.0000 0.24578  0.52690  0.18752  Biso   1.000  H
  H100     1.0000 0.33539  0.99906  0.09112  Biso   1.000  H
  N11      1.0000 0.37554  0.88860  0.15065  Biso   1.000  N
  C82      1.0000 0.29916  0.85338  0.23780  Biso   1.000  C
  C83      1.0000 0.35479  0.89708  0.26042  Biso   1.000  C
  N12      1.0000 0.61264  0.95959  0.20607  Biso   1.000  N
  C84      1.0000 0.61082  0.06932  0.13045  Biso   1.000  C
  H101     1.0000 0.79070  0.21270  0.20612  Biso   1.000  H
  H102     1.0000 0.43034  0.14646  0.06428  Biso   1.000  H
  H103     1.0000 0.39043  0.18572  0.00111  Biso   1.000  H
  H104     1.0000 0.35934  0.07863  0.99581  Biso   1.000  H
  H105     1.0000 0.91223  0.45924  0.34868  Biso   1.000  H
  H106     1.0000 0.02806  0.49779  0.33643  Biso   1.000  H
  H107     1.0000 0.00528  0.42920  0.38632  Biso   1.000  H
  C85      1.0000 0.43223  0.82994  0.16383  Biso   1.000  C
  H108     1.0000 0.32463  0.89474  0.27902  Biso   1.000  H
  H109     1.0000 0.33314  0.81078  0.24361  Biso   1.000  H
  H110     1.0000 0.21878  0.81869  0.22361  Biso   1.000  H
  H111     1.0000 0.28508  0.86028  0.26730  Biso   1.000  H
  H112     1.0000 0.39089  0.95759  0.28832  Biso   1.000  H
  H113     1.0000 0.40307  0.86613  0.27113  Biso   1.000  H
  C86      1.0000 0.54374  0.87902  0.15370  Biso   1.000  C
  H114     1.0000 0.66970  0.08149  0.11180  Biso   1.000  H
  H115     1.0000 0.60047  0.12499  0.13651  Biso   1.000  H
  H116     1.0000 0.54208  0.02007  0.10100  Biso   1.000  H
  C87      1.0000 0.36174  0.73895  0.11670  Biso   1.000  C
  H117     1.0000 0.44381  0.81949  0.20941  Biso   1.000  H
  H118     1.0000 0.53248  0.89928  0.11088  Biso   1.000  H
  C88      1.0000 0.60294  0.81778  0.15676  Biso   1.000  C
  C89      1.0000 0.42139  0.67769  0.12251  Biso   1.000  C
  H119     1.0000 0.34335  0.75068  0.07189  Biso   1.000  H
  H120     1.0000 0.29198  0.70690  0.12551  Biso   1.000  H
  H121     1.0000 0.62537  0.80674  0.20161  Biso   1.000  H
  H122     1.0000 0.67069  0.84965  0.14571  Biso   1.000  H
  C90      1.0000 0.53060  0.72589  0.11054  Biso   1.000  C
  H123     1.0000 0.43518  0.66215  0.16640  Biso   1.000  H
  H124     1.0000 0.37428  0.61984  0.09059  Biso   1.000  H
  H125     1.0000 0.51615  0.73595  0.06530  Biso   1.000  H
  H126     1.0000 0.56970  0.68648  0.11670  Biso   1.000  H
  N13      1.0000 0.47485  0.45279  0.60954  Biso   1.000  N
  C91      1.0000 0.48956  0.37408  0.63361  Biso   1.000  C
  C92      1.0000 0.53408  0.53436  0.64229  Biso   1.000  C
  C93      1.0000 0.48516  0.31203  0.57713  Biso   1.000  C
  C94      1.0000 0.39789  0.32349  0.66118  Biso   1.000  C
  H127     1.0000 0.56286  0.39626  0.66849  Biso   1.000  H
  C95      1.0000 0.51412  0.60944  0.61230  Biso   1.000  C
  C96      1.0000 0.62212  0.56497  0.70812  Biso   1.000  C
  C97      1.0000 0.48907  0.22417  0.59661  Biso   1.000  C
  H128     1.0000 0.54813  0.34557  0.56241  Biso   1.000  H
  H129     1.0000 0.41634  0.29649  0.54061  Biso   1.000  H
  C98      1.0000 0.39901  0.23365  0.67823  Biso   1.000  C
  N14      1.0000 0.42028  0.38259  0.72105  Biso   1.000  N
  H130     1.0000 0.32445  0.31148  0.62940  Biso   1.000  H
  C99      1.0000 0.60210  0.69463  0.62073  Biso   1.000  C
  C100     1.0000 0.40779  0.59547  0.57534  Biso   1.000  C
  H131     1.0000 0.69493  0.59497  0.70332  Biso   1.000  H
  H132     1.0000 0.61174  0.60815  0.73520  Biso   1.000  H
  H133     1.0000 0.61689  0.51153  0.72861  Biso   1.000  H
  C101     1.0000 0.39407  0.17277  0.62078  Biso   1.000  C
  H134     1.0000 0.55995  0.23925  0.63110  Biso   1.000  H
  H135     1.0000 0.48414  0.18486  0.55882  Biso   1.000  H
  H136     1.0000 0.46710  0.24735  0.71490  Biso   1.000  H
  H137     1.0000 0.33527  0.20005  0.69242  Biso   1.000  H
  C102     1.0000 0.34757  0.39633  0.73524  Biso   1.000  C
  C103     1.0000 0.58592  0.76524  0.59273  Biso   1.000  C
  H138     1.0000 0.67443  0.70476  0.64611  Biso   1.000  H
  H139     1.0000 0.34744  0.53722  0.56870  Biso   1.000  H
  C104     1.0000 0.38952  0.66577  0.54821  Biso   1.000  C
  H140     1.0000 0.32314  0.15416  0.58542  Biso   1.000  H
  H141     1.0000 0.39837  0.11656  0.63429  Biso   1.000  H
  C105     1.0000 0.38096  0.46267  0.79551  Biso   1.000  C
  C106     1.0000 0.22524  0.33837  0.70109  Biso   1.000  C
  C107     1.0000 0.24586  0.40048  0.67741  Biso   1.000  C
  C108     1.0000 0.47954  0.75115  0.55766  Biso   1.000  C
  C109     1.0000 0.68494  0.85373  0.60014  Biso   1.000  C
  C110     1.0000 0.27682  0.65325  0.50805  Biso   1.000  C
  C111     1.0000 0.49234  0.50604  0.83465  Biso   1.000  C
  C112     1.0000 0.30650  0.48596  0.81222  Biso   1.000  C
  H142     1.0000 0.21417  0.28616  0.67091  Biso   1.000  H
  H143     1.0000 0.18955  0.31585  0.73321  Biso   1.000  H
  H144     1.0000 0.19297  0.37555  0.67711  Biso   1.000  H
  H145     1.0000 0.17636  0.36723  0.68550  Biso   1.000  H
  H146     1.0000 0.25931  0.46453  0.67663  Biso   1.000  H
  H147     1.0000 0.24125  0.37208  0.63550  Biso   1.000  H
  H148     1.0000 0.46741  0.79976  0.53978  Biso   1.000  H
  N15      1.0000 0.77390  0.84735  0.60615  Biso   1.000  N
  C113     1.0000 0.66891  0.94053  0.60009  Biso   1.000  C
  N16      1.0000 0.27501  0.70697  0.46698  Biso   1.000  N
  C114     1.0000 0.17983  0.58105  0.52016  Biso   1.000  C
  H149     1.0000 0.54423  0.49035  0.82360  Biso   1.000  H
  C115     1.0000 0.52795  0.57191  0.88953  Biso   1.000  C
  C116     1.0000 0.33941  0.55202  0.86676  Biso   1.000  C
  H150     1.0000 0.23092  0.45624  0.78611  Biso   1.000  H
  C117     1.0000 0.87910  0.92794  0.61840  Biso   1.000  C
  H151     1.0000 0.64563  0.95007  0.55538  Biso   1.000  H
  H152     1.0000 0.61224  0.93485  0.61932  Biso   1.000  H
  H153     1.0000 0.73854  0.99276  0.62543  Biso   1.000  H
  C118     1.0000 0.17278  0.70558  0.42609  Biso   1.000  C
  H154     1.0000 0.16258  0.52095  0.49691  Biso   1.000  H
  H155     1.0000 0.19774  0.58035  0.56672  Biso   1.000  H
  H156     1.0000 0.11602  0.59455  0.50481  Biso   1.000  H
  C119     1.0000 0.44983  0.59334  0.90527  Biso   1.000  C
  C120     1.0000 0.64730  0.62041  0.93051  Biso   1.000  C
  C121     1.0000 0.25490  0.57654  0.88042  Biso   1.000  C
  C122     1.0000 0.95050  0.93871  0.68898  Biso   1.000  C
  C123     1.0000 0.93524  0.91203  0.57171  Biso   1.000  C
  H157     1.0000 0.86619  0.98373  0.61230  Biso   1.000  H
  H158     1.0000 0.10862  0.64956  0.42769  Biso   1.000  H
  C124     1.0000 0.17437  0.70557  0.35648  Biso   1.000  C
  C125     1.0000 0.16576  0.79237  0.45123  Biso   1.000  C
  H159     1.0000 0.47289  0.63704  0.94311  Biso   1.000  H
  N17      1.0000 0.66991  0.66876  0.98457  Biso   1.000  N
  C126     1.0000 0.73133  0.62272  0.89762  Biso   1.000  C
  C127     1.0000 0.72743  0.59576  0.91041  Biso   1.000  C
  N18      1.0000 0.15673  0.53250  0.84337  Biso   1.000  N
  C128     1.0000 0.29394  0.65282  0.93802  Biso   1.000  C
  C129     1.0000 0.30444  0.67852  0.91860  Biso   1.000  C
  C130     1.0000 0.28309  0.62312  0.94940  Biso   1.000  C
  N19      1.0000 0.89619  0.95899  0.73127  Biso   1.000  N
  H160     1.0000 0.95634  0.88024  0.69591  Biso   1.000  H
  C131     1.0000 0.06517  0.01618  0.70356  Biso   1.000  C
  H161     1.0000 0.88994  0.90781  0.52670  Biso   1.000  H
  H162     1.0000 0.94020  0.85312  0.57490  Biso   1.000  H
  C132     1.0000 0.05056  0.98916  0.58667  Biso   1.000  C
  H163     1.0000 0.17724  0.64883  0.34040  Biso   1.000  H
  H164     1.0000 0.24134  0.75846  0.35600  Biso   1.000  H
  C133     1.0000 0.07214  0.71105  0.31148  Biso   1.000  C
  N20      1.0000 0.16014  0.78761  0.51648  Biso   1.000  N
  C134     1.0000 0.06173  0.79584  0.40652  Biso   1.000  C
  H165     1.0000 0.23263  0.84804  0.45239  Biso   1.000  H
  C135     1.0000 0.78290  0.71727  0.02989  Biso   1.000  C
  H166     1.0000 0.74652  0.56933  0.90363  Biso   1.000  H
  H167     1.0000 0.70088  0.62161  0.85112  Biso   1.000  H
  H168     1.0000 0.79983  0.67895  0.91690  Biso   1.000  H
  H169     1.0000 0.73262  0.61644  0.86972  Biso   1.000  H
  H170     1.0000 0.80010  0.62565  0.94412  Biso   1.000  H
  H171     1.0000 0.70170  0.52914  0.90421  Biso   1.000  H
  C136     1.0000 0.06511  0.54834  0.85063  Biso   1.000  C
  H172     1.0000 0.22997  0.65852  0.94359  Biso   1.000  H
  H173     1.0000 0.33308  0.63783  0.97731  Biso   1.000  H
  H174     1.0000 0.34364  0.71081  0.93003  Biso   1.000  H
  H175     1.0000 0.24415  0.69255  0.92150  Biso   1.000  H
  H176     1.0000 0.35320  0.68444  0.96239  Biso   1.000  H
  H177     1.0000 0.21630  0.62174  0.95570  Biso   1.000  H
  H178     1.0000 0.33795  0.68694  0.95672  Biso   1.000  H
  H179     1.0000 0.34629  0.72141  0.89559  Biso   1.000  H
  H180     1.0000 0.31336  0.59074  0.98012  Biso   1.000  H
  C137     1.0000 0.88032  0.91640  0.77705  Biso   1.000  C
  C138     1.0000 0.11994  0.99934  0.65682  Biso   1.000  C
  H181     1.0000 0.05989  0.07487  0.70003  Biso   1.000  H
  H182     1.0000 0.11095  0.02100  0.74852  Biso   1.000  H
  H183     1.0000 0.08603  0.97547  0.55722  Biso   1.000  H
  H184     1.0000 0.04559  0.04739  0.57970  Biso   1.000  H
  H185     1.0000 0.00546  0.65496  0.30818  Biso   1.000  H
  H186     1.0000 0.07763  0.71454  0.26759  Biso   1.000  H
  C139     1.0000 0.06154  0.79445  0.33677  Biso   1.000  C
  C140     1.0000 0.24005  0.84333  0.56604  Biso   1.000  C
  H187     1.0000 0.05807  0.85235  0.42222  Biso   1.000  H
  H188     1.0000 0.99567  0.74266  0.40793  Biso   1.000  H
  H189     1.0000 0.83630  0.71624  0.00843  Biso   1.000  H
  C141     1.0000 0.79158  0.66847  0.08802  Biso   1.000  C
  C142     1.0000 0.80366  0.81645  0.05038  Biso   1.000  C
  H190     1.0000 0.09435  0.60876  0.87950  Biso   1.000  H
  C143     1.0000 0.99534  0.54963  0.78291  Biso   1.000  C
  C144     1.0000 0.99952  0.47192  0.88038  Biso   1.000  C
  C145     1.0000 0.82181  0.94211  0.81638  Biso   1.000  C
  C146     1.0000 0.93489  0.85594  0.80369  Biso   1.000  C
  C147     1.0000 0.88744  0.82344  0.78422  Biso   1.000  C
  H191     1.0000 0.13013  0.94296  0.66273  Biso   1.000  H
  H192     1.0000 0.19362  0.05125  0.66660  Biso   1.000  H
  H193     1.0000 0.12365  0.85066  0.33483  Biso   1.000  H
  H194     1.0000 0.99217  0.79408  0.30881  Biso   1.000  H
  C148     1.0000 0.22978  0.82941  0.63105  Biso   1.000  C
  C149     1.0000 0.34613  0.91912  0.56429  Biso   1.000  C
  H195     1.0000 0.78386  0.60659  0.07392  Biso   1.000  H
  H196     1.0000 0.73047  0.66103  0.10439  Biso   1.000  H
  C150     1.0000 0.90161  0.72163  0.14271  Biso   1.000  C
  N21      1.0000 0.80979  0.86199  0.99460  Biso   1.000  N
  C151     1.0000 0.91261  0.86864  0.10652  Biso   1.000  C
  H197     1.0000 0.74127  0.81677  0.06346  Biso   1.000  H
  N22      1.0000 0.05906  0.63363  0.76334  Biso   1.000  N
  H198     1.0000 0.98055  0.49537  0.75181  Biso   1.000  H
  C152     1.0000 0.88592  0.54873  0.78228  Biso   1.000  C
  H199     1.0000 0.04517  0.47705  0.92552  Biso   1.000  H
  C153     1.0000 0.89293  0.47603  0.88038  Biso   1.000  C
  H200     1.0000 0.98152  0.41197  0.85562  Biso   1.000  H
  C154     1.0000 0.80665  0.90336  0.86991  Biso   1.000  C
  C155     1.0000 0.77926  0.00545  0.79832  Biso   1.000  C
  H201     1.0000 0.98549  0.88443  0.84802  Biso   1.000  H
  H202     1.0000 0.87831  0.79582  0.80379  Biso   1.000  H
  H203     1.0000 0.97616  0.84834  0.77642  Biso   1.000  H
  H204     1.0000 0.93608  0.82870  0.82782  Biso   1.000  H
  H205     1.0000 0.91700  0.80865  0.75210  Biso   1.000  H
  H206     1.0000 0.81363  0.77472  0.77719  Biso   1.000  H
  C156     1.0000 0.15435  0.74457  0.63788  Biso   1.000  C
  C157     1.0000 0.29523  0.89803  0.68588  Biso   1.000  C
  H207     1.0000 0.33812  0.97637  0.56221  Biso   1.000  H
  H208     1.0000 0.40671  0.92755  0.60348  Biso   1.000  H
  H209     1.0000 0.36205  0.90254  0.52612  Biso   1.000  H
  H210     1.0000 0.96274  0.72415  0.12784  Biso   1.000  H
  H211     1.0000 0.90300  0.68988  0.18020  Biso   1.000  H
  C158     1.0000 0.91751  0.81874  0.16325  Biso   1.000  C
  C159     1.0000 0.73362  0.88285  0.96306  Biso   1.000  C
  H212     1.0000 0.92054  0.93053  0.12091  Biso   1.000  H
  H213     1.0000 0.97500  0.87618  0.09131  Biso   1.000  H
  C160     1.0000 0.07380  0.63606  0.70899  Biso   1.000  C
  H214     1.0000 0.83999  0.54244  0.73709  Biso   1.000  H
  H215     1.0000 0.90038  0.60763  0.80689  Biso   1.000  H
  C161     1.0000 0.82282  0.47007  0.81198  Biso   1.000  C
  H216     1.0000 0.91068  0.53413  0.90760  Biso   1.000  H
  H217     1.0000 0.85144  0.42466  0.89903  Biso   1.000  H
  C162     1.0000 0.74918  0.92579  0.90547  Biso   1.000  C
  H218     1.0000 0.83563  0.86070  0.88270  Biso   1.000  H
  C163     1.0000 0.72056  0.02759  0.83222  Biso   1.000  C
  H219     1.0000 0.79073  0.03366  0.76242  Biso   1.000  H
  C164     1.0000 0.14657  0.72765  0.69838  Biso   1.000  C
  H220     1.0000 0.10806  0.69792  0.60063  Biso   1.000  H
  C165     1.0000 0.28737  0.88305  0.74687  Biso   1.000  C
  H221     1.0000 0.34602  0.95574  0.68172  Biso   1.000  H
  H222     1.0000 0.98985  0.85298  0.19788  Biso   1.000  H
  H223     1.0000 0.85936  0.81607  0.18112  Biso   1.000  H
  C166     1.0000 0.62921  0.86652  0.97663  Biso   1.000  C
  C167     1.0000 0.02790  0.55523  0.65459  Biso   1.000  C
  H224     1.0000 0.80234  0.41074  0.78519  Biso   1.000  H
  H225     1.0000 0.75412  0.47304  0.81251  Biso   1.000  H
  C168     1.0000 0.70526  0.98660  0.88585  Biso   1.000  C
  C169     1.0000 0.66863  0.09147  0.81251  Biso   1.000  C
  C170     1.0000 0.21393  0.79804  0.75249  Biso   1.000  C
  C171     1.0000 0.35792  0.95936  0.80481  Biso   1.000  C
  H226     1.0000 0.56950  0.85340  0.93570  Biso   1.000  H
  H227     1.0000 0.60954  0.81422  0.99891  Biso   1.000  H
  H228     1.0000 0.64056  0.92123  0.00417  Biso   1.000  H
  H229     1.0000 0.08761  0.54062  0.65130  Biso   1.000  H
  H230     1.0000 0.97184  0.50215  0.66360  Biso   1.000  H
  H231     1.0000 0.99461  0.57074  0.61371  Biso   1.000  H
  H232     1.0000 0.66457  0.00088  0.90891  Biso   1.000  H
  N23      1.0000 0.62433  0.11128  0.84937  Biso   1.000  N
  C172     1.0000 0.70074  0.14656  0.76223  Biso   1.000  C
  C173     1.0000 0.64511  0.10286  0.73960  Biso   1.000  C
  H233     1.0000 0.20920  0.78724  0.79391  Biso   1.000  H
  C174     1.0000 0.38914  0.93062  0.86957  Biso   1.000  C
  N24      1.0000 0.38722  0.04028  0.79396  Biso   1.000  N
  C175     1.0000 0.56764  0.16994  0.83620  Biso   1.000  C
  H234     1.0000 0.67523  0.10514  0.72100  Biso   1.000  H
  H235     1.0000 0.66675  0.18916  0.75641  Biso   1.000  H
  H236     1.0000 0.78112  0.18125  0.77642  Biso   1.000  H
  H237     1.0000 0.71481  0.13966  0.73273  Biso   1.000  H
  H238     1.0000 0.60901  0.04236  0.71170  Biso   1.000  H
  H239     1.0000 0.59679  0.13374  0.72890  Biso   1.000  H
  H240     1.0000 0.33027  0.91845  0.88822  Biso   1.000  H
  H241     1.0000 0.39943  0.87495  0.86352  Biso   1.000  H
  H242     1.0000 0.45779  0.97981  0.89903  Biso   1.000  H
  C176     1.0000 0.45610  0.12084  0.84627  Biso   1.000  C
  C177     1.0000 0.63812  0.26093  0.88333  Biso   1.000  C
  H243     1.0000 0.55616  0.18045  0.79061  Biso   1.000  H
  H244     1.0000 0.46746  0.10065  0.88909  Biso   1.000  H
  C178     1.0000 0.39693  0.18214  0.84322  Biso   1.000  C
  C179     1.0000 0.57850  0.32225  0.87752  Biso   1.000  C
  H245     1.0000 0.65652  0.24925  0.92809  Biso   1.000  H
  H246     1.0000 0.70791  0.29304  0.87451  Biso   1.000  H
  H247     1.0000 0.37450  0.19313  0.79841  Biso   1.000  H
  H248     1.0000 0.32927  0.15029  0.85431  Biso   1.000  H
  C180     1.0000 0.46937  0.27405  0.88948  Biso   1.000  C
  H249     1.0000 0.56479  0.33779  0.83363  Biso   1.000  H
  H250     1.0000 0.62563  0.38002  0.90939  Biso   1.000  H
  H251     1.0000 0.48375  0.26399  0.93473  Biso   1.000  H
  H252     1.0000 0.43026  0.31346  0.88333  Biso   1.000  H
  Ne1      1.0000 0.52027  0.25499  0.25150  Biso   1.000  Ne
  He1      1.0000 0.85178  0.51014  0.28235  Biso   1.000  He
  He2      1.0000 0.51359  0.02008  0.25127  Biso   1.000  He
  He3      1.0000 0.17414  0.24540  0.13628  Biso   1.000  He
  He4      1.0000 0.69598  0.22456  0.15440  Biso   1.000  He
  Ar1      1.0000 0.52047  0.25088  0.24330  Biso   1.000  Ar
  Ne2      1.0000 0.47962  0.74493  0.74851  Biso   1.000  Ne
  He5      1.0000 0.44402  0.81390  0.90216  Biso   1.000  He
  He6      1.0000 0.55295  0.94265  0.91904  Biso   1.000  He
  He7      1.0000 0.21101  0.70658  0.83060  Biso   1.000  He
  He8      1.0000 0.74213  0.67585  0.79505  Biso   1.000  He
  He9      1.0000 0.20048  0.55655  0.73510  Biso   1.000  He
  He10     1.0000 0.47232  0.99370  0.67682  Biso   1.000  He
  Ar2      1.0000 0.48158  0.74839  0.75717  Biso   1.000  Ar
