data_image0
_cell_length_a       13.913
_cell_length_b       21.809
_cell_length_c       14.026
_cell_angle_alpha    90
_cell_angle_beta     105.48
_cell_angle_gamma    90

_symmetry_space_group_name_H-M    "P 1"
_symmetry_int_tables_number       1

loop_
  _symmetry_equiv_pos_as_xyz
  'x, y, z'

loop_
  _atom_site_label
  _atom_site_occupancy
  _atom_site_fract_x
  _atom_site_fract_y
  _atom_site_fract_z
  _atom_site_thermal_displace_type
  _atom_site_B_iso_or_equiv
  _atom_site_type_symbol
  C1       1.0000 0.32928  0.38081  0.45046  Biso   1.000  C
  C2       1.0000 0.22468  0.38562  0.37929  Biso   1.000  C
  H1       1.0000 0.37977  0.37971  0.41236  Biso   1.000  H
  H2       1.0000 0.34247  0.41712  0.49441  Biso   1.000  H
  C3       1.0000 0.33699  0.32248  0.51275  Biso   1.000  C
  C4       1.0000 0.14288  0.38690  0.43537  Biso   1.000  C
  H3       1.0000 0.21307  0.35022  0.33350  Biso   1.000  H
  H4       1.0000 0.22027  0.42349  0.33942  Biso   1.000  H
  C5       1.0000 0.25448  0.32189  0.56646  Biso   1.000  C
  N1       1.0000 0.43310  0.32138  0.58385  Biso   1.000  N
  H5       1.0000 0.32986  0.28571  0.46888  Biso   1.000  H
  C6       1.0000 0.15106  0.32670  0.49411  Biso   1.000  C
  H6       1.0000 0.15296  0.42249  0.48087  Biso   1.000  H
  H7       1.0000 0.07618  0.39039  0.38810  Biso   1.000  H
  N2       1.0000 0.25935  0.26251  0.61714  Biso   1.000  N
  H8       1.0000 0.26490  0.35609  0.61559  Biso   1.000  H
  C7       1.0000 0.49250  0.27420  0.59465  Biso   1.000  C
  H9       1.0000 0.09950  0.32569  0.53088  Biso   1.000  H
  H10      1.0000 0.13979  0.29139  0.44795  Biso   1.000  H
  C8       1.0000 0.28488  0.25540  0.70828  Biso   1.000  C
  C9       1.0000 0.58982  0.27869  0.67159  Biso   1.000  C
  C10      1.0000 0.46967  0.21459  0.53894  Biso   1.000  C
  C11      1.0000 0.29251  0.19070  0.74705  Biso   1.000  C
  C12      1.0000 0.31295  0.30630  0.78670  Biso   1.000  C
  C13      1.0000 0.67384  0.24582  0.66145  Biso   1.000  C
  C14      1.0000 0.59936  0.31680  0.74897  Biso   1.000  C
  H11      1.0000 0.49807  0.21528  0.48205  Biso   1.000  H
  H12      1.0000 0.39730  0.20909  0.51571  Biso   1.000  H
  H13      1.0000 0.49887  0.18052  0.58281  Biso   1.000  H
  C15      1.0000 0.29695  0.14439  0.68076  Biso   1.000  C
  C16      1.0000 0.29637  0.17598  0.84448  Biso   1.000  C
  H14      1.0000 0.25945  0.31111  0.81948  Biso   1.000  H
  H15      1.0000 0.32230  0.34490  0.75467  Biso   1.000  H
  H16      1.0000 0.37507  0.29520  0.83568  Biso   1.000  H
  C17      1.0000 0.76619  0.24948  0.73166  Biso   1.000  C
  H17      1.0000 0.66736  0.22032  0.60530  Biso   1.000  H
  C18      1.0000 0.69001  0.32280  0.82118  Biso   1.000  C
  H18      1.0000 0.54346  0.34009  0.75467  Biso   1.000  H
  H19      1.0000 0.29088  0.15448  0.61359  Biso   1.000  H
  C19      1.0000 0.31007  0.08290  0.71028  Biso   1.000  C
  C20      1.0000 0.30736  0.11518  0.87385  Biso   1.000  C
  H20      1.0000 0.29149  0.20721  0.89020  Biso   1.000  H
  C21      1.0000 0.77286  0.28878  0.81119  Biso   1.000  C
  C22      1.0000 0.85148  0.21441  0.71420  Biso   1.000  C
  C23      1.0000 0.70139  0.36100  0.91128  Biso   1.000  C
  C24      1.0000 0.31376  0.06892  0.80949  Biso   1.000  C
  C25      1.0000 0.31277  0.03311  0.63778  Biso   1.000  C
  C26      1.0000 0.31210  0.10120  0.98068  Biso   1.000  C
  H21      1.0000 0.83478  0.29281  0.85994  Biso   1.000  H
  N3       1.0000 0.84819  0.20171  0.62639  Biso   1.000  N
  C27      1.0000 0.94038  0.20239  0.80764  Biso   1.000  C
  N4       1.0000 0.79009  0.37842  0.95538  Biso   1.000  N
  C28      1.0000 0.60865  0.37269  0.94458  Biso   1.000  C
  H22      1.0000 0.32048  0.02751  0.83153  Biso   1.000  H
  C29      1.0000 0.33129  0.05140  0.54338  Biso   1.000  C
  N5       1.0000 0.30608  0.97840  0.66449  Biso   1.000  N
  N6       1.0000 0.26459  0.13701  0.02412  Biso   1.000  N
  C30      1.0000 0.37870  0.04810  0.02693  Biso   1.000  C
  C31      1.0000 0.92832  0.16580  0.60175  Biso   1.000  C
  H23      1.0000 0.98371  0.23848  0.82095  Biso   1.000  H
  H24      1.0000 0.97869  0.16681  0.79565  Biso   1.000  H
  H25      1.0000 0.91427  0.19419  0.86475  Biso   1.000  H
  C32      1.0000 0.81142  0.41341  0.04550  Biso   1.000  C
  H26      1.0000 0.57538  0.33358  0.94916  Biso   1.000  H
  H27      1.0000 0.56345  0.39942  0.89656  Biso   1.000  H
  H28      1.0000 0.62693  0.39259  0.00947  Biso   1.000  H
  H29      1.0000 0.34258  0.01481  0.50735  Biso   1.000  H
  H30      1.0000 0.39022  0.07800  0.55618  Biso   1.000  H
  H31      1.0000 0.27321  0.07382  0.50358  Biso   1.000  H
  C33      1.0000 0.31658  0.92650  0.60227  Biso   1.000  C
  C34      1.0000 0.26411  0.12889  0.12732  Biso   1.000  C
  H32      1.0000 0.35628  0.01068  0.98859  Biso   1.000  H
  H33      1.0000 0.37511  0.04209  0.09506  Biso   1.000  H
  H34      1.0000 0.44764  0.05709  0.02671  Biso   1.000  H
  H35      1.0000 0.98520  0.16012  0.66197  Biso   1.000  H
  C35      1.0000 0.96251  0.20042  0.52259  Biso   1.000  C
  C36      1.0000 0.88552  0.10349  0.56077  Biso   1.000  C
  C37      1.0000 0.87110  0.37049  0.12599  Biso   1.000  C
  C38      1.0000 0.87978  0.46930  0.03588  Biso   1.000  C
  H36      1.0000 0.74871  0.42739  0.06059  Biso   1.000  H
  H37      1.0000 0.34126  0.94108  0.54545  Biso   1.000  H
  C39      1.0000 0.21599  0.89628  0.56417  Biso   1.000  C
  C40      1.0000 0.39225  0.88262  0.66656  Biso   1.000  C
  C41      1.0000 0.32579  0.18098  0.18717  Biso   1.000  C
  C42      1.0000 0.15718  0.12921  0.13487  Biso   1.000  C
  H38      1.0000 0.29578  0.08882  0.15203  Biso   1.000  H
  H39      1.0000 0.98912  0.24100  0.54856  Biso   1.000  H
  H40      1.0000 0.90489  0.20721  0.46445  Biso   1.000  H
  C43      1.0000 0.04278  0.16461  0.49130  Biso   1.000  C
  N7       1.0000 0.85070  0.07281  0.63889  Biso   1.000  N
  C44      1.0000 0.96862  0.06649  0.53650  Biso   1.000  C
  H41      1.0000 0.82890  0.10908  0.50018  Biso   1.000  H
  N8       1.0000 0.80210  0.31991  0.13908  Biso   1.000  N
  H42      1.0000 0.93014  0.35339  0.10712  Biso   1.000  H
  C45      1.0000 0.90382  0.40621  0.22327  Biso   1.000  C
  H43      1.0000 0.84208  0.49791  0.98460  Biso   1.000  H
  C46      1.0000 0.91454  0.50268  0.13383  Biso   1.000  C
  H44      1.0000 0.93839  0.45449  0.01517  Biso   1.000  H
  H45      1.0000 0.17010  0.92489  0.51919  Biso   1.000  H
  H46      1.0000 0.18787  0.88729  0.62047  Biso   1.000  H
  C47      1.0000 0.22341  0.83599  0.50817  Biso   1.000  C
  N9       1.0000 0.48996  0.91279  0.69127  Biso   1.000  N
  C48      1.0000 0.39959  0.82250  0.61344  Biso   1.000  C
  H47      1.0000 0.37276  0.87372  0.72878  Biso   1.000  H
  N10      1.0000 0.42969  0.17112  0.19079  Biso   1.000  N
  H48      1.0000 0.30298  0.22142  0.15528  Biso   1.000  H
  C49      1.0000 0.31582  0.18029  0.29118  Biso   1.000  C
  C50      1.0000 0.15273  0.12559  0.24199  Biso   1.000  C
  H49      1.0000 0.12088  0.09391  0.09773  Biso   1.000  H
  H50      1.0000 0.12370  0.16718  0.10446  Biso   1.000  H
  H51      1.0000 0.10351  0.16250  0.54738  Biso   1.000  H
  H52      1.0000 0.06008  0.18630  0.43619  Biso   1.000  H
  C51      1.0000 0.00814  0.09941  0.45845  Biso   1.000  C
  C52      1.0000 0.75660  0.06241  0.62868  Biso   1.000  C
  H53      1.0000 0.94299  0.02559  0.51150  Biso   1.000  H
  H54      1.0000 0.02351  0.06062  0.59731  Biso   1.000  H
  C53      1.0000 0.83319  0.26659  0.16113  Biso   1.000  C
  H55      1.0000 0.84434  0.42221  0.24103  Biso   1.000  H
  H56      1.0000 0.93938  0.37828  0.27691  Biso   1.000  H
  C54      1.0000 0.97242  0.45949  0.21432  Biso   1.000  C
  H57      1.0000 0.85614  0.51928  0.15292  Biso   1.000  H
  H58      1.0000 0.95770  0.53762  0.12673  Biso   1.000  H
  H59      1.0000 0.15678  0.81659  0.48597  Biso   1.000  H
  H60      1.0000 0.24679  0.84511  0.44891  Biso   1.000  H
  C55      1.0000 0.29476  0.79279  0.57460  Biso   1.000  C
  C56      1.0000 0.52847  0.93640  0.77590  Biso   1.000  C
  H61      1.0000 0.44442  0.79398  0.65960  Biso   1.000  H
  H62      1.0000 0.42839  0.83039  0.55729  Biso   1.000  H
  C57      1.0000 0.48139  0.20840  0.15536  Biso   1.000  C
  H63      1.0000 0.35088  0.21638  0.32692  Biso   1.000  H
  H64      1.0000 0.34938  0.14320  0.32507  Biso   1.000  H
  C58      1.0000 0.20849  0.18080  0.29858  Biso   1.000  C
  H65      1.0000 0.18391  0.08698  0.27239  Biso   1.000  H
  H66      1.0000 0.08233  0.12591  0.24480  Biso   1.000  H
  H67      1.0000 0.95512  0.10120  0.39550  Biso   1.000  H
  H68      1.0000 0.06483  0.07589  0.44662  Biso   1.000  H
  C59      1.0000 0.73107  0.03439  0.71598  Biso   1.000  C
  C60      1.0000 0.67257  0.07680  0.54131  Biso   1.000  C
  C61      1.0000 0.76013  0.21908  0.17193  Biso   1.000  C
  C62      1.0000 0.94223  0.24650  0.18680  Biso   1.000  C
  H69      1.0000 0.99440  0.48150  0.27809  Biso   1.000  H
  H70      1.0000 0.03232  0.44381  0.19679  Biso   1.000  H
  H71      1.0000 0.30059  0.75478  0.53776  Biso   1.000  H
  H72      1.0000 0.26870  0.78151  0.63134  Biso   1.000  H
  C63      1.0000 0.62328  0.97139  0.78766  Biso   1.000  C
  C64      1.0000 0.48949  0.93489  0.86475  Biso   1.000  C
  C65      1.0000 0.58910  0.19309  0.16727  Biso   1.000  C
  C66      1.0000 0.44328  0.26980  0.10616  Biso   1.000  C
  H73      1.0000 0.17517  0.21931  0.27010  Biso   1.000  H
  H74      1.0000 0.20757  0.17869  0.36886  Biso   1.000  H
  C67      1.0000 0.64336  0.00151  0.70658  Biso   1.000  C
  C68      1.0000 0.80015  0.03810  0.80764  Biso   1.000  C
  H75      1.0000 0.65689  0.04058  0.49855  Biso   1.000  H
  H76      1.0000 0.69138  0.11078  0.50439  Biso   1.000  H
  H77      1.0000 0.61396  0.08840  0.56336  Biso   1.000  H
  C69      1.0000 0.78523  0.15842  0.18991  Biso   1.000  C
  C70      1.0000 0.65830  0.23499  0.15891  Biso   1.000  C
  H78      1.0000 0.98471  0.28209  0.18547  Biso   1.000  H
  H79      1.0000 0.95116  0.21610  0.13849  Biso   1.000  H
  H80      1.0000 0.96072  0.22830  0.25309  Biso   1.000  H
  C71      1.0000 0.69290  0.97620  0.87518  Biso   1.000  C
  H81      1.0000 0.53320  0.90958  0.91609  Biso   1.000  H
  H82      1.0000 0.42211  0.91751  0.84700  Biso   1.000  H
  H83      1.0000 0.48725  0.97671  0.88983  Biso   1.000  H
  C72      1.0000 0.61784  0.13100  0.18591  Biso   1.000  C
  H84      1.0000 0.37188  0.26650  0.07317  Biso   1.000  H
  H85      1.0000 0.47962  0.28011  0.05741  Biso   1.000  H
  H86      1.0000 0.45401  0.30199  0.15669  Biso   1.000  H
  H87      1.0000 0.59599  0.99940  0.64377  Biso   1.000  H
  H88      1.0000 0.86041  0.06020  0.81415  Biso   1.000  H
  C73      1.0000 0.78221  0.00908  0.89190  Biso   1.000  C
  C74      1.0000 0.71641  0.11321  0.19753  Biso   1.000  C
  H89      1.0000 0.85249  0.14650  0.19760  Biso   1.000  H
  H90      1.0000 0.63821  0.27631  0.14382  Biso   1.000  H
  H91      1.0000 0.68021  0.95539  0.93008  Biso   1.000  H
  H92      1.0000 0.56939  0.10120  0.19042  Biso   1.000  H
  C75      1.0000 0.85536  0.01128  0.99015  Biso   1.000  C
  C76      1.0000 0.74470  0.04649  0.21129  Biso   1.000  C
  N11      1.0000 0.86280  0.96382  0.04143  Biso   1.000  N
  C77      1.0000 0.90837  0.07240  0.01687  Biso   1.000  C
  N12      1.0000 0.83379  0.03352  0.20611  Biso   1.000  N
  C78      1.0000 0.66836  0.00330  0.23237  Biso   1.000  C
  C79      1.0000 0.92904  0.96002  0.13990  Biso   1.000  C
  H93      1.0000 0.94250  0.08350  0.96647  Biso   1.000  H
  H94      1.0000 0.95742  0.06910  0.08138  Biso   1.000  H
  H95      1.0000 0.85945  0.10418  0.01990  Biso   1.000  H
  C80      1.0000 0.86783  0.96868  0.21321  Biso   1.000  C
  H96      1.0000 0.70064  0.96442  0.25752  Biso   1.000  H
  H97      1.0000 0.61591  0.99578  0.17126  Biso   1.000  H
  H98      1.0000 0.63909  0.02160  0.28201  Biso   1.000  H
  H99      1.0000 0.98080  0.99289  0.14929  Biso   1.000  H
  C81      1.0000 0.98010  0.89601  0.15469  Biso   1.000  C
  C82      1.0000 0.92804  0.95809  0.31811  Biso   1.000  C
  H100     1.0000 0.80887  0.94062  0.19656  Biso   1.000  H
  H101     1.0000 0.92823  0.86368  0.13930  Biso   1.000  H
  H102     1.0000 0.02176  0.89151  0.10786  Biso   1.000  H
  C83      1.0000 0.04630  0.88670  0.26211  Biso   1.000  C
  C84      1.0000 0.97768  0.89381  0.33002  Biso   1.000  C
  H103     1.0000 0.88402  0.96148  0.36287  Biso   1.000  H
  H104     1.0000 0.98019  0.99000  0.33720  Biso   1.000  H
  H105     1.0000 0.07699  0.84552  0.26958  Biso   1.000  H
  H106     1.0000 0.10007  0.91779  0.27816  Biso   1.000  H
  H107     1.0000 0.92528  0.86180  0.31397  Biso   1.000  H
  H108     1.0000 0.01666  0.88798  0.39957  Biso   1.000  H
  N13      1.0000 0.51001  0.41281  0.30872  Biso   1.000  N
  C85      1.0000 0.60770  0.38259  0.33335  Biso   1.000  C
  C86      1.0000 0.47149  0.43638  0.22409  Biso   1.000  C
  C87      1.0000 0.60036  0.32248  0.38647  Biso   1.000  C
  C88      1.0000 0.68338  0.42652  0.39772  Biso   1.000  C
  H109     1.0000 0.62720  0.37370  0.27121  Biso   1.000  H
  C89      1.0000 0.37669  0.47141  0.21232  Biso   1.000  C
  C90      1.0000 0.51053  0.43491  0.13516  Biso   1.000  C
  C91      1.0000 0.70520  0.29281  0.42538  Biso   1.000  C
  H110     1.0000 0.55561  0.29401  0.34038  Biso   1.000  H
  H111     1.0000 0.57157  0.33041  0.44270  Biso   1.000  H
  C92      1.0000 0.78398  0.39630  0.43582  Biso   1.000  C
  N14      1.0000 0.69388  0.47838  0.33550  Biso   1.000  N
  H112     1.0000 0.65869  0.44110  0.45446  Biso   1.000  H
  C93      1.0000 0.35660  0.50149  0.29340  Biso   1.000  C
  C94      1.0000 0.30714  0.47618  0.12480  Biso   1.000  C
  H113     1.0000 0.46683  0.40960  0.08389  Biso   1.000  H
  H114     1.0000 0.57793  0.41749  0.15299  Biso   1.000  H
  H115     1.0000 0.51269  0.47668  0.11008  Biso   1.000  H
  C95      1.0000 0.77660  0.33601  0.49174  Biso   1.000  C
  H116     1.0000 0.69935  0.25480  0.46215  Biso   1.000  H
  H117     1.0000 0.73131  0.28149  0.36857  Biso   1.000  H
  H118     1.0000 0.82986  0.42492  0.48080  Biso   1.000  H
  H119     1.0000 0.81210  0.38732  0.37952  Biso   1.000  H
  C96      1.0000 0.68719  0.53308  0.36221  Biso   1.000  C
  H120     1.0000 0.40398  0.49938  0.35621  Biso   1.000  H
  C97      1.0000 0.26890  0.53441  0.28401  Biso   1.000  C
  C98      1.0000 0.21783  0.50910  0.10808  Biso   1.000  C
  H121     1.0000 0.31982  0.45541  0.06991  Biso   1.000  H
  H122     1.0000 0.84319  0.31661  0.51401  Biso   1.000  H
  H123     1.0000 0.75318  0.34509  0.55108  Biso   1.000  H
  C99      1.0000 0.68990  0.58288  0.28971  Biso   1.000  C
  C100     1.0000 0.66868  0.55138  0.45660  Biso   1.000  C
  C101     1.0000 0.19980  0.53808  0.19227  Biso   1.000  C
  C102     1.0000 0.24337  0.56238  0.37131  Biso   1.000  C
  C103     1.0000 0.14458  0.51130  0.00977  Biso   1.000  C
  C104     1.0000 0.70301  0.64441  0.31922  Biso   1.000  C
  C105     1.0000 0.68620  0.56889  0.19050  Biso   1.000  C
  H124     1.0000 0.65737  0.51479  0.49256  Biso   1.000  H
  H125     1.0000 0.60982  0.57802  0.44381  Biso   1.000  H
  H126     1.0000 0.72683  0.57380  0.49641  Biso   1.000  H
  H127     1.0000 0.13961  0.56018  0.18576  Biso   1.000  H
  N15      1.0000 0.14927  0.57279  0.36110  Biso   1.000  N
  C106     1.0000 0.32740  0.57678  0.45868  Biso   1.000  C
  N16      1.0000 0.13717  0.46380  0.95856  Biso   1.000  N
  C107     1.0000 0.09158  0.57238  0.98304  Biso   1.000  C
  C108     1.0000 0.70751  0.69068  0.25286  Biso   1.000  C
  H128     1.0000 0.70909  0.65450  0.38640  Biso   1.000  H
  H129     1.0000 0.67953  0.52749  0.16838  Biso   1.000  H
  C109     1.0000 0.69258  0.61520  0.12606  Biso   1.000  C
  C110     1.0000 0.11451  0.60351  0.43922  Biso   1.000  C
  H130     1.0000 0.34305  0.54060  0.50136  Biso   1.000  H
  H131     1.0000 0.30858  0.61080  0.49559  Biso   1.000  H
  H132     1.0000 0.38599  0.58838  0.43656  Biso   1.000  H
  C111     1.0000 0.07100  0.45999  0.86009  Biso   1.000  C
  H133     1.0000 0.05753  0.58352  0.03351  Biso   1.000  H
  H134     1.0000 0.04259  0.56912  0.91853  Biso   1.000  H
  H135     1.0000 0.14045  0.60420  0.98009  Biso   1.000  H
  C112     1.0000 0.70360  0.67601  0.15551  Biso   1.000  C
  C113     1.0000 0.71509  0.75542  0.29170  Biso   1.000  C
  C114     1.0000 0.68794  0.60122  0.01931  Biso   1.000  C
  C115     1.0000 0.07170  0.66578  0.39816  Biso   1.000  C
  C116     1.0000 0.03142  0.56651  0.46348  Biso   1.000  C
  H136     1.0000 0.17107  0.60911  0.49981  Biso   1.000  H
  H137     1.0000 0.01916  0.49292  0.85069  Biso   1.000  H
  C117     1.0000 0.01987  0.39598  0.84529  Biso   1.000  C
  C118     1.0000 0.13220  0.46871  0.78678  Biso   1.000  C
  H138     1.0000 0.70847  0.70719  0.10979  Biso   1.000  H
  N17      1.0000 0.74060  0.76248  0.38277  Biso   1.000  N
  C119     1.0000 0.68702  0.80632  0.21328  Biso   1.000  C
  N18      1.0000 0.73537  0.63698  0.97587  Biso   1.000  N
  C120     1.0000 0.62127  0.54812  0.97306  Biso   1.000  C
  N19      1.0000 0.15177  0.70168  0.37360  Biso   1.000  N
  H139     1.0000 0.01476  0.66009  0.33801  Biso   1.000  H
  C121     1.0000 0.03746  0.70040  0.47739  Biso   1.000  C
  H140     1.0000 0.05697  0.52561  0.48849  Biso   1.000  H
  C122     1.0000 0.99181  0.59939  0.54146  Biso   1.000  C
  H141     1.0000 0.97653  0.56059  0.40267  Biso   1.000  H
  H142     1.0000 0.97818  0.39149  0.89205  Biso   1.000  H
  C123     1.0000 0.95366  0.38672  0.73788  Biso   1.000  C
  H143     1.0000 0.07180  0.36370  0.86068  Biso   1.000  H
  N20      1.0000 0.16617  0.53350  0.79388  Biso   1.000  N
  C124     1.0000 0.07199  0.45811  0.68187  Biso   1.000  C
  H144     1.0000 0.19107  0.44060  0.80335  Biso   1.000  H
  C125     1.0000 0.74546  0.82191  0.43345  Biso   1.000  C
  H145     1.0000 0.74051  0.81109  0.18051  Biso   1.000  H
  H146     1.0000 0.67774  0.84488  0.24532  Biso   1.000  H
  H147     1.0000 0.62489  0.79522  0.16431  Biso   1.000  H
  C126     1.0000 0.73592  0.62891  0.87267  Biso   1.000  C
  H148     1.0000 0.64369  0.51071  0.01139  Biso   1.000  H
  H149     1.0000 0.62484  0.54212  0.90485  Biso   1.000  H
  H150     1.0000 0.55240  0.55711  0.97328  Biso   1.000  H
  C127     1.0000 0.14848  0.71438  0.28578  Biso   1.000  C
  H151     1.0000 0.01090  0.74098  0.45135  Biso   1.000  H
  H152     1.0000 0.09506  0.70719  0.53547  Biso   1.000  H
  C128     1.0000 0.95718  0.66459  0.50869  Biso   1.000  C
  H153     1.0000 0.04485  0.60122  0.60449  Biso   1.000  H
  H154     1.0000 0.93521  0.57591  0.55337  Biso   1.000  H
  H155     1.0000 0.92297  0.34550  0.73040  Biso   1.000  H
  H156     1.0000 0.89987  0.41781  0.72175  Biso   1.000  H
  C129     1.0000 0.02228  0.39378  0.66996  Biso   1.000  C
  C130     1.0000 0.25527  0.54652  0.78870  Biso   1.000  C
  H157     1.0000 0.11599  0.46151  0.63704  Biso   1.000  H
  H158     1.0000 0.01978  0.48998  0.66279  Biso   1.000  H
  H159     1.0000 0.73507  0.85611  0.38440  Biso   1.000  H
  C131     1.0000 0.84890  0.82672  0.50587  Biso   1.000  C
  C132     1.0000 0.66296  0.82250  0.48716  Biso   1.000  C
  C133     1.0000 0.67409  0.68100  0.81274  Biso   1.000  C
  C134     1.0000 0.84276  0.62919  0.86505  Biso   1.000  C
  H160     1.0000 0.70419  0.58879  0.84796  Biso   1.000  H
  C135     1.0000 0.23377  0.74951  0.26833  Biso   1.000  C
  C136     1.0000 0.05957  0.70242  0.19227  Biso   1.000  C
  H161     1.0000 0.89653  0.66248  0.45261  Biso   1.000  H
  H162     1.0000 0.93989  0.68632  0.56380  Biso   1.000  H
  H163     1.0000 0.98328  0.38800  0.60035  Biso   1.000  H
  H164     1.0000 0.07467  0.36178  0.68594  Biso   1.000  H
  C137     1.0000 0.28355  0.61319  0.80246  Biso   1.000  C
  C138     1.0000 0.33159  0.50328  0.76754  Biso   1.000  C
  H165     1.0000 0.90053  0.82571  0.46911  Biso   1.000  H
  H166     1.0000 0.86015  0.79142  0.55196  Biso   1.000  H
  C139     1.0000 0.85709  0.88688  0.56461  Biso   1.000  C
  N21      1.0000 0.56692  0.82140  0.41606  Biso   1.000  N
  C140     1.0000 0.67066  0.88078  0.54945  Biso   1.000  C
  H167     1.0000 0.67011  0.78568  0.53110  Biso   1.000  H
  N22      1.0000 0.57028  0.67110  0.80919  Biso   1.000  N
  H168     1.0000 0.69699  0.72140  0.84470  Biso   1.000  H
  C141     1.0000 0.68421  0.68032  0.70880  Biso   1.000  C
  C142     1.0000 0.84731  0.62561  0.75800  Biso   1.000  C
  H169     1.0000 0.87908  0.59388  0.90226  Biso   1.000  H
  H170     1.0000 0.87624  0.66720  0.89545  Biso   1.000  H
  C143     1.0000 0.22711  0.78880  0.18880  Biso   1.000  C
  C144     1.0000 0.32610  0.74579  0.33846  Biso   1.000  C
  H171     1.0000 0.01631  0.73850  0.17896  Biso   1.000  H
  H172     1.0000 0.02125  0.66679  0.20426  Biso   1.000  H
  H173     1.0000 0.08567  0.69421  0.13516  Biso   1.000  H
  C145     1.0000 0.38220  0.63098  0.81407  Biso   1.000  C
  C146     1.0000 0.21481  0.65840  0.81008  Biso   1.000  C
  H174     1.0000 0.36087  0.52162  0.71797  Biso   1.000  H
  H175     1.0000 0.29939  0.46440  0.74246  Biso   1.000  H
  H176     1.0000 0.38404  0.49580  0.82865  Biso   1.000  H
  H177     1.0000 0.84700  0.92251  0.51912  Biso   1.000  H
  H178     1.0000 0.92379  0.89041  0.61189  Biso   1.000  H
  C147     1.0000 0.77529  0.88560  0.62069  Biso   1.000  C
  C148     1.0000 0.50752  0.77422  0.40526  Biso   1.000  C
  H179     1.0000 0.62018  0.87968  0.58755  Biso   1.000  H
  H180     1.0000 0.65749  0.91710  0.50558  Biso   1.000  H
  C149     1.0000 0.51855  0.70838  0.84455  Biso   1.000  C
  H181     1.0000 0.64908  0.71640  0.67307  Biso   1.000  H
  H182     1.0000 0.65057  0.64322  0.67484  Biso   1.000  H
  C150     1.0000 0.79147  0.68082  0.70140  Biso   1.000  C
  H183     1.0000 0.81606  0.58701  0.72759  Biso   1.000  H
  H184     1.0000 0.91757  0.62589  0.75519  Biso   1.000  H
  C151     1.0000 0.31003  0.82278  0.17881  Biso   1.000  C
  H185     1.0000 0.16517  0.79279  0.13997  Biso   1.000  H
  C152     1.0000 0.41022  0.77872  0.32840  Biso   1.000  C
  H186     1.0000 0.33260  0.72030  0.39468  Biso   1.000  H
  C153     1.0000 0.41084  0.69311  0.83264  Biso   1.000  C
  H187     1.0000 0.43058  0.60122  0.80956  Biso   1.000  H
  H188     1.0000 0.14747  0.64652  0.80239  Biso   1.000  H
  C154     1.0000 0.23984  0.71911  0.82806  Biso   1.000  C
  H189     1.0000 0.78689  0.85020  0.66648  Biso   1.000  H
  H190     1.0000 0.77969  0.92352  0.66057  Biso   1.000  H
  C155     1.0000 0.53027  0.71461  0.46097  Biso   1.000  C
  C156     1.0000 0.55673  0.76982  0.89375  Biso   1.000  C
  H191     1.0000 0.82480  0.71929  0.72989  Biso   1.000  H
  H192     1.0000 0.79238  0.67871  0.63105  Biso   1.000  H
  C157     1.0000 0.40061  0.81682  0.25101  Biso   1.000  C
  C158     1.0000 0.29857  0.86102  0.08870  Biso   1.000  C
  C159     1.0000 0.34167  0.73502  0.84108  Biso   1.000  C
  C160     1.0000 0.16677  0.76661  0.83886  Biso   1.000  C
  H193     1.0000 0.50188  0.71530  0.51786  Biso   1.000  H
  H194     1.0000 0.60267  0.70911  0.48427  Biso   1.000  H
  H195     1.0000 0.50109  0.68050  0.41717  Biso   1.000  H
  H196     1.0000 0.62807  0.76652  0.92675  Biso   1.000  H
  H197     1.0000 0.52035  0.78009  0.94258  Biso   1.000  H
  H198     1.0000 0.54596  0.80201  0.84330  Biso   1.000  H
  H199     1.0000 0.45651  0.84011  0.24532  Biso   1.000  H
  N23      1.0000 0.20988  0.87840  0.04461  Biso   1.000  N
  C161     1.0000 0.39132  0.87271  0.05541  Biso   1.000  C
  H200     1.0000 0.36176  0.77629  0.85617  Biso   1.000  H
  N24      1.0000 0.19786  0.81989  0.86090  Biso   1.000  N
  C162     1.0000 0.05780  0.74648  0.81319  Biso   1.000  C
  C163     1.0000 0.18854  0.91338  0.95449  Biso   1.000  C
  H201     1.0000 0.42459  0.83360  0.05082  Biso   1.000  H
  H202     1.0000 0.43651  0.89940  0.10342  Biso   1.000  H
  H203     1.0000 0.37309  0.89261  0.99044  Biso   1.000  H
  C164     1.0000 0.12886  0.87051  0.87400  Biso   1.000  C
  H204     1.0000 0.01523  0.78211  0.81444  Biso   1.000  H
  H205     1.0000 0.04881  0.71608  0.86150  Biso   1.000  H
  H206     1.0000 0.03925  0.72828  0.74690  Biso   1.000  H
  C165     1.0000 0.12017  0.96928  0.96403  Biso   1.000  C
  H207     1.0000 0.25125  0.92742  0.93940  Biso   1.000  H
  H208     1.0000 0.06990  0.85341  0.89286  Biso   1.000  H
  C166     1.0000 0.09620  0.90619  0.77664  Biso   1.000  C
  H209     1.0000 0.15788  0.99789  0.01539  Biso   1.000  H
  H210     1.0000 0.06156  0.95451  0.98475  Biso   1.000  H
  C167     1.0000 0.08550  0.00271  0.86616  Biso   1.000  C
  H211     1.0000 0.15570  0.92219  0.75896  Biso   1.000  H
  H212     1.0000 0.06058  0.87831  0.72308  Biso   1.000  H
  C168     1.0000 0.02754  0.95951  0.78567  Biso   1.000  C
  H213     1.0000 0.14390  0.01930  0.84707  Biso   1.000  H
  H214     1.0000 0.04227  0.03760  0.87326  Biso   1.000  H
  H215     1.0000 0.96772  0.94378  0.80320  Biso   1.000  H
  H216     1.0000 0.00557  0.98152  0.72190  Biso   1.000  H
  Ne1      1.0000 0.59781  0.14661  0.86910  Biso   1.000  Ne
  He1      1.0000 0.63032  0.93283  0.05810  Biso   1.000  He
  He2      1.0000 0.57626  0.31448  0.05611  Biso   1.000  He
  He3      1.0000 0.95466  0.26219  0.99006  Biso   1.000  He
  He4      1.0000 0.46053  0.30801  0.94281  Biso   1.000  He
  He5      1.0000 0.49207  0.05753  0.65597  Biso   1.000  He
  Ar1      1.0000 0.59060  0.14857  0.87355  Biso   1.000  Ar
  Ne2      1.0000 0.40216  0.64661  0.13086  Biso   1.000  Ne
  He6      1.0000 0.48778  0.55477  0.41134  Biso   1.000  He
  He7      1.0000 0.53758  0.80530  0.05809  Biso   1.000  He
  He8      1.0000 0.04051  0.76493  0.00939  Biso   1.000  He
  He9      1.0000 0.37862  0.44239  0.94985  Biso   1.000  He
  Ar2      1.0000 0.40961  0.64874  0.12644  Biso   1.000  Ar
