data_image0
_cell_length_a       22.752
_cell_length_b       12.921
_cell_length_c       11.252
_cell_angle_alpha    90
_cell_angle_beta     90
_cell_angle_gamma    90

_symmetry_space_group_name_H-M    "P 1"
_symmetry_int_tables_number       1

loop_
  _symmetry_equiv_pos_as_xyz
  'x, y, z'

loop_
  _atom_site_label
  _atom_site_occupancy
  _atom_site_fract_x
  _atom_site_fract_y
  _atom_site_fract_z
  _atom_site_thermal_displace_type
  _atom_site_B_iso_or_equiv
  _atom_site_type_symbol
  C1       1.0000 0.42190  0.60228  0.70210  Biso   1.000  C
  C2       1.0000 0.42559  0.49996  0.62984  Biso   1.000  C
  N1       1.0000 0.36458  0.61791  0.75560  Biso   1.000  N
  H1       1.0000 0.45139  0.60111  0.76422  Biso   1.000  H
  H2       1.0000 0.43060  0.66001  0.65002  Biso   1.000  H
  C3       1.0000 0.42190  0.39772  0.70210  Biso   1.000  C
  H3       1.0000 0.39412  0.49996  0.57181  Biso   1.000  H
  H4       1.0000 0.46242  0.49996  0.58621  Biso   1.000  H
  H5       1.0000 0.33439  0.62178  0.71001  Biso   1.000  H
  C4       1.0000 0.35720  0.62627  0.86802  Biso   1.000  C
  N2       1.0000 0.36458  0.38209  0.75560  Biso   1.000  N
  H6       1.0000 0.45139  0.39889  0.76422  Biso   1.000  H
  H7       1.0000 0.43060  0.33999  0.65002  Biso   1.000  H
  C5       1.0000 0.30340  0.63695  0.92295  Biso   1.000  C
  H8       1.0000 0.39038  0.62495  0.91601  Biso   1.000  H
  C6       1.0000 0.35720  0.37366  0.86802  Biso   1.000  C
  H9       1.0000 0.33439  0.37822  0.71001  Biso   1.000  H
  C7       1.0000 0.25000  0.63439  0.85594  Biso   1.000  C
  C8       1.0000 0.30239  0.63788  0.05012  Biso   1.000  C
  C9       1.0000 0.30340  0.36298  0.92295  Biso   1.000  C
  H10      1.0000 0.39038  0.37497  0.91601  Biso   1.000  H
  C10      1.0000 0.19660  0.63695  0.92295  Biso   1.000  C
  O1       1.0000 0.25000  0.62905  0.74449  Biso   1.000  O
  C11      1.0000 0.25000  0.63695  0.11145  Biso   1.000  C
  O2       1.0000 0.34942  0.63966  0.11029  Biso   1.000  O
  C12      1.0000 0.25000  0.36561  0.85594  Biso   1.000  C
  C13      1.0000 0.30239  0.36212  0.05012  Biso   1.000  C
  C14      1.0000 0.14280  0.62627  0.86802  Biso   1.000  C
  C15      1.0000 0.19761  0.63788  0.05012  Biso   1.000  C
  C16      1.0000 0.22099  0.62611  0.23445  Biso   1.000  C
  C17      1.0000 0.27901  0.62611  0.23445  Biso   1.000  C
  O3       1.0000 0.25000  0.37087  0.74449  Biso   1.000  O
  C18      1.0000 0.19660  0.36298  0.92295  Biso   1.000  C
  C19      1.0000 0.25000  0.36298  0.11145  Biso   1.000  C
  O4       1.0000 0.34942  0.36027  0.11029  Biso   1.000  O
  N3       1.0000 0.13542  0.61791  0.75560  Biso   1.000  N
  H11      1.0000 0.10962  0.62495  0.91601  Biso   1.000  H
  O5       1.0000 0.15058  0.63966  0.11029  Biso   1.000  O
  N4       1.0000 0.25000  0.61597  0.31114  Biso   1.000  N
  H12      1.0000 0.18201  0.62100  0.26902  Biso   1.000  H
  H13      1.0000 0.31799  0.62100  0.26902  Biso   1.000  H
  C20      1.0000 0.14280  0.37366  0.86802  Biso   1.000  C
  C21      1.0000 0.19761  0.36212  0.05012  Biso   1.000  C
  C22      1.0000 0.27901  0.37389  0.23445  Biso   1.000  C
  C23      1.0000 0.22099  0.37389  0.23445  Biso   1.000  C
  C24      1.0000 0.07810  0.60228  0.70210  Biso   1.000  C
  H14      1.0000 0.16561  0.62178  0.71001  Biso   1.000  H
  C25      1.0000 0.25000  0.59740  0.43743  Biso   1.000  C
  N5       1.0000 0.13542  0.38209  0.75560  Biso   1.000  N
  H15      1.0000 0.10962  0.37497  0.91601  Biso   1.000  H
  O6       1.0000 0.15058  0.36027  0.11029  Biso   1.000  O
  N6       1.0000 0.25000  0.38403  0.31114  Biso   1.000  N
  H16      1.0000 0.31799  0.37900  0.26902  Biso   1.000  H
  H17      1.0000 0.18201  0.37900  0.26902  Biso   1.000  H
  C26      1.0000 0.07441  0.49996  0.62984  Biso   1.000  C
  H18      1.0000 0.04861  0.60111  0.76422  Biso   1.000  H
  H19      1.0000 0.06940  0.66001  0.65002  Biso   1.000  H
  C27      1.0000 0.25000  0.49996  0.47778  Biso   1.000  C
  H20      1.0000 0.26701  0.64298  0.47005  Biso   1.000  H
  H21      1.0000 0.23299  0.64298  0.47005  Biso   1.000  H
  H22      1.0000 0.16561  0.37822  0.71001  Biso   1.000  H
  C28      1.0000 0.07810  0.39772  0.70210  Biso   1.000  C
  C29      1.0000 0.25000  0.40260  0.43743  Biso   1.000  C
  H23      1.0000 0.10588  0.49996  0.57181  Biso   1.000  H
  H24      1.0000 0.03758  0.49996  0.58621  Biso   1.000  H
  H25      1.0000 0.28380  0.49996  0.53039  Biso   1.000  H
  H26      1.0000 0.21620  0.49996  0.53039  Biso   1.000  H
  H27      1.0000 0.04861  0.39889  0.76422  Biso   1.000  H
  H28      1.0000 0.06940  0.33999  0.65002  Biso   1.000  H
  H29      1.0000 0.23299  0.35702  0.47005  Biso   1.000  H
  H30      1.0000 0.26701  0.35702  0.47005  Biso   1.000  H
  C30      1.0000 0.57810  0.60228  0.29790  Biso   1.000  C
  C31      1.0000 0.57441  0.49996  0.37025  Biso   1.000  C
  N7       1.0000 0.63542  0.61791  0.24440  Biso   1.000  N
  H31      1.0000 0.54861  0.60111  0.23578  Biso   1.000  H
  H32      1.0000 0.56940  0.66001  0.34998  Biso   1.000  H
  C32      1.0000 0.57810  0.39772  0.29790  Biso   1.000  C
  H33      1.0000 0.60588  0.49996  0.42819  Biso   1.000  H
  H34      1.0000 0.53758  0.49996  0.41379  Biso   1.000  H
  H35      1.0000 0.66561  0.62178  0.28999  Biso   1.000  H
  C33      1.0000 0.64280  0.62627  0.13198  Biso   1.000  C
  N8       1.0000 0.63542  0.38209  0.24440  Biso   1.000  N
  H36      1.0000 0.54861  0.39889  0.23578  Biso   1.000  H
  H37      1.0000 0.56940  0.33999  0.34998  Biso   1.000  H
  C34      1.0000 0.69660  0.63695  0.07714  Biso   1.000  C
  H38      1.0000 0.60962  0.62495  0.08399  Biso   1.000  H
  H39      1.0000 0.66561  0.37822  0.28999  Biso   1.000  H
  C35      1.0000 0.64280  0.37366  0.13198  Biso   1.000  C
  C36      1.0000 0.75000  0.63439  0.14406  Biso   1.000  C
  C37      1.0000 0.69761  0.63788  0.94996  Biso   1.000  C
  C38      1.0000 0.69660  0.36298  0.07714  Biso   1.000  C
  H40      1.0000 0.60962  0.37497  0.08399  Biso   1.000  H
  O7       1.0000 0.75000  0.62905  0.25551  Biso   1.000  O
  C39      1.0000 0.80340  0.63695  0.07714  Biso   1.000  C
  C40      1.0000 0.75000  0.63695  0.88864  Biso   1.000  C
  O8       1.0000 0.65058  0.63966  0.88971  Biso   1.000  O
  C41      1.0000 0.75000  0.36561  0.14406  Biso   1.000  C
  C42      1.0000 0.69761  0.36212  0.94996  Biso   1.000  C
  C43      1.0000 0.85720  0.62627  0.13198  Biso   1.000  C
  C44      1.0000 0.80239  0.63788  0.94996  Biso   1.000  C
  C45      1.0000 0.77901  0.62611  0.76564  Biso   1.000  C
  C46      1.0000 0.72099  0.62611  0.76564  Biso   1.000  C
  O9       1.0000 0.75000  0.37087  0.25551  Biso   1.000  O
  C47      1.0000 0.80340  0.36298  0.07714  Biso   1.000  C
  C48      1.0000 0.75000  0.36298  0.88864  Biso   1.000  C
  O10      1.0000 0.65058  0.36027  0.88971  Biso   1.000  O
  N9       1.0000 0.86458  0.61791  0.24440  Biso   1.000  N
  H41      1.0000 0.89038  0.62495  0.08399  Biso   1.000  H
  O11      1.0000 0.84942  0.63966  0.88971  Biso   1.000  O
  N10      1.0000 0.75000  0.61597  0.68894  Biso   1.000  N
  H42      1.0000 0.81799  0.62100  0.73107  Biso   1.000  H
  H43      1.0000 0.68201  0.62100  0.73107  Biso   1.000  H
  C49      1.0000 0.85720  0.37366  0.13198  Biso   1.000  C
  C50      1.0000 0.80239  0.36212  0.94996  Biso   1.000  C
  C51      1.0000 0.72099  0.37389  0.76564  Biso   1.000  C
  C52      1.0000 0.77901  0.37389  0.76564  Biso   1.000  C
  C53      1.0000 0.92190  0.60228  0.29790  Biso   1.000  C
  H44      1.0000 0.83439  0.62178  0.28999  Biso   1.000  H
  C54      1.0000 0.75000  0.59740  0.56266  Biso   1.000  C
  N11      1.0000 0.86458  0.38209  0.24440  Biso   1.000  N
  H45      1.0000 0.89038  0.37497  0.08399  Biso   1.000  H
  O12      1.0000 0.84942  0.36027  0.88971  Biso   1.000  O
  N12      1.0000 0.75000  0.38403  0.68894  Biso   1.000  N
  H46      1.0000 0.68201  0.37900  0.73107  Biso   1.000  H
  H47      1.0000 0.81799  0.37900  0.73107  Biso   1.000  H
  C55      1.0000 0.92559  0.49996  0.37025  Biso   1.000  C
  H48      1.0000 0.95139  0.60111  0.23578  Biso   1.000  H
  H49      1.0000 0.93060  0.66001  0.34998  Biso   1.000  H
  C56      1.0000 0.75000  0.49996  0.52222  Biso   1.000  C
  H50      1.0000 0.73299  0.64298  0.53004  Biso   1.000  H
  H51      1.0000 0.76701  0.64298  0.53004  Biso   1.000  H
  H52      1.0000 0.83439  0.37822  0.28999  Biso   1.000  H
  C57      1.0000 0.92190  0.39772  0.29790  Biso   1.000  C
  C58      1.0000 0.75000  0.40260  0.56266  Biso   1.000  C
  H53      1.0000 0.89412  0.49996  0.42819  Biso   1.000  H
  H54      1.0000 0.96242  0.49996  0.41379  Biso   1.000  H
  H55      1.0000 0.78380  0.49996  0.46961  Biso   1.000  H
  H56      1.0000 0.71620  0.49996  0.46961  Biso   1.000  H
  H57      1.0000 0.95139  0.39889  0.23578  Biso   1.000  H
  H58      1.0000 0.93060  0.33999  0.34998  Biso   1.000  H
  H59      1.0000 0.76701  0.35702  0.53004  Biso   1.000  H
  H60      1.0000 0.73299  0.35702  0.53004  Biso   1.000  H
  O13      1.0000 0.34942  0.86030  0.38971  Biso   1.000  O
  C59      1.0000 0.30239  0.86208  0.44988  Biso   1.000  C
  C60      1.0000 0.25000  0.86294  0.38864  Biso   1.000  C
  C61      1.0000 0.30340  0.86294  0.57714  Biso   1.000  C
  C62      1.0000 0.27901  0.87385  0.26564  Biso   1.000  C
  C63      1.0000 0.22099  0.87385  0.26564  Biso   1.000  C
  C64      1.0000 0.19761  0.86208  0.44988  Biso   1.000  C
  C65      1.0000 0.25000  0.86557  0.64415  Biso   1.000  C
  C66      1.0000 0.35720  0.87369  0.63207  Biso   1.000  C
  N13      1.0000 0.25000  0.88399  0.18894  Biso   1.000  N
  H61      1.0000 0.31799  0.87896  0.23098  Biso   1.000  H
  H62      1.0000 0.18201  0.87896  0.23098  Biso   1.000  H
  C67      1.0000 0.19660  0.86294  0.57714  Biso   1.000  C
  O14      1.0000 0.15058  0.86030  0.38971  Biso   1.000  O
  O15      1.0000 0.25000  0.87091  0.75551  Biso   1.000  O
  N14      1.0000 0.36458  0.88205  0.74440  Biso   1.000  N
  H63      1.0000 0.39038  0.87501  0.58399  Biso   1.000  H
  C68      1.0000 0.25000  0.90256  0.06257  Biso   1.000  C
  C69      1.0000 0.14280  0.87369  0.63207  Biso   1.000  C
  H64      1.0000 0.33439  0.87818  0.78999  Biso   1.000  H
  C70      1.0000 0.42190  0.89769  0.79790  Biso   1.000  C
  H65      1.0000 0.26701  0.85698  0.03004  Biso   1.000  H
  H66      1.0000 0.23299  0.85698  0.03004  Biso   1.000  H
  C71      1.0000 0.25000  0.00000  0.02222  Biso   1.000  C
  N15      1.0000 0.13542  0.88205  0.74440  Biso   1.000  N
  H67      1.0000 0.10962  0.87501  0.58399  Biso   1.000  H
  H68      1.0000 0.45139  0.89885  0.73587  Biso   1.000  H
  H69      1.0000 0.43060  0.83995  0.85007  Biso   1.000  H
  C72      1.0000 0.42559  0.00000  0.87025  Biso   1.000  C
  H70      1.0000 0.28380  0.00000  0.96961  Biso   1.000  H
  H71      1.0000 0.21620  0.00000  0.96961  Biso   1.000  H
  C73      1.0000 0.25000  0.09736  0.06257  Biso   1.000  C
  H72      1.0000 0.16561  0.87818  0.78999  Biso   1.000  H
  C74      1.0000 0.07810  0.89769  0.79790  Biso   1.000  C
  H73      1.0000 0.39412  0.00000  0.92819  Biso   1.000  H
  H74      1.0000 0.46242  0.00000  0.91379  Biso   1.000  H
  C75      1.0000 0.42190  0.10231  0.79790  Biso   1.000  C
  N16      1.0000 0.25000  0.11601  0.18894  Biso   1.000  N
  H75      1.0000 0.23299  0.14302  0.03004  Biso   1.000  H
  H76      1.0000 0.26701  0.14302  0.03004  Biso   1.000  H
  H77      1.0000 0.04861  0.89885  0.73587  Biso   1.000  H
  H78      1.0000 0.06940  0.83995  0.85007  Biso   1.000  H
  C76      1.0000 0.07441  0.00000  0.87025  Biso   1.000  C
  N17      1.0000 0.36458  0.11787  0.74440  Biso   1.000  N
  H79      1.0000 0.45139  0.10108  0.73587  Biso   1.000  H
  H80      1.0000 0.43060  0.15997  0.85007  Biso   1.000  H
  C77      1.0000 0.27901  0.12607  0.26564  Biso   1.000  C
  C78      1.0000 0.22099  0.12607  0.26564  Biso   1.000  C
  H81      1.0000 0.10588  0.00000  0.92819  Biso   1.000  H
  H82      1.0000 0.03758  0.00000  0.91379  Biso   1.000  H
  C79      1.0000 0.07810  0.10231  0.79790  Biso   1.000  C
  H83      1.0000 0.33439  0.12182  0.78999  Biso   1.000  H
  C80      1.0000 0.35720  0.12631  0.63207  Biso   1.000  C
  C81      1.0000 0.25000  0.13699  0.38864  Biso   1.000  C
  H84      1.0000 0.31799  0.12097  0.23098  Biso   1.000  H
  H85      1.0000 0.18201  0.12097  0.23098  Biso   1.000  H
  N18      1.0000 0.13542  0.11787  0.74440  Biso   1.000  N
  H86      1.0000 0.04861  0.10108  0.73587  Biso   1.000  H
  H87      1.0000 0.06940  0.15997  0.85007  Biso   1.000  H
  C82      1.0000 0.30340  0.13699  0.57714  Biso   1.000  C
  H88      1.0000 0.39038  0.12499  0.58399  Biso   1.000  H
  C83      1.0000 0.19761  0.13792  0.44988  Biso   1.000  C
  C84      1.0000 0.30239  0.13792  0.44988  Biso   1.000  C
  H89      1.0000 0.16561  0.12182  0.78999  Biso   1.000  H
  C85      1.0000 0.14280  0.12631  0.63207  Biso   1.000  C
  C86      1.0000 0.25000  0.13443  0.64415  Biso   1.000  C
  C87      1.0000 0.19660  0.13699  0.57714  Biso   1.000  C
  O16      1.0000 0.15058  0.13970  0.38971  Biso   1.000  O
  O17      1.0000 0.34942  0.13970  0.38971  Biso   1.000  O
  H90      1.0000 0.10962  0.12499  0.58399  Biso   1.000  H
  O18      1.0000 0.25000  0.12909  0.75551  Biso   1.000  O
  C88      1.0000 0.64280  0.87369  0.36802  Biso   1.000  C
  N19      1.0000 0.63542  0.88205  0.25560  Biso   1.000  N
  C89      1.0000 0.69660  0.86294  0.42295  Biso   1.000  C
  H91      1.0000 0.60962  0.87501  0.41601  Biso   1.000  H
  C90      1.0000 0.57810  0.89769  0.20210  Biso   1.000  C
  H92      1.0000 0.66561  0.87818  0.21001  Biso   1.000  H
  C91      1.0000 0.75000  0.86557  0.35594  Biso   1.000  C
  C92      1.0000 0.69761  0.86208  0.55012  Biso   1.000  C
  H93      1.0000 0.54861  0.89885  0.26422  Biso   1.000  H
  H94      1.0000 0.56940  0.83995  0.15002  Biso   1.000  H
  C93      1.0000 0.57441  0.00000  0.12984  Biso   1.000  C
  O19      1.0000 0.75000  0.87091  0.24449  Biso   1.000  O
  C94      1.0000 0.80340  0.86294  0.42295  Biso   1.000  C
  C95      1.0000 0.75000  0.86294  0.61145  Biso   1.000  C
  O20      1.0000 0.65058  0.86030  0.61029  Biso   1.000  O
  H95      1.0000 0.60588  0.00000  0.07181  Biso   1.000  H
  H96      1.0000 0.53758  0.00000  0.08621  Biso   1.000  H
  C96      1.0000 0.57810  0.10231  0.20210  Biso   1.000  C
  C97      1.0000 0.80239  0.86208  0.55012  Biso   1.000  C
  C98      1.0000 0.85720  0.87369  0.36802  Biso   1.000  C
  C99      1.0000 0.77901  0.87385  0.73445  Biso   1.000  C
  C100     1.0000 0.72099  0.87385  0.73445  Biso   1.000  C
  N20      1.0000 0.63542  0.11787  0.25560  Biso   1.000  N
  H97      1.0000 0.54861  0.10108  0.26422  Biso   1.000  H
  H98      1.0000 0.56940  0.15997  0.15002  Biso   1.000  H
  O21      1.0000 0.84942  0.86030  0.61029  Biso   1.000  O
  N21      1.0000 0.86458  0.88205  0.25560  Biso   1.000  N
  H99      1.0000 0.89038  0.87501  0.41601  Biso   1.000  H
  N22      1.0000 0.75000  0.88399  0.81114  Biso   1.000  N
  H100     1.0000 0.81799  0.87896  0.76902  Biso   1.000  H
  H101     1.0000 0.68201  0.87896  0.76902  Biso   1.000  H
  H102     1.0000 0.66561  0.12182  0.21001  Biso   1.000  H
  C101     1.0000 0.64280  0.12631  0.36802  Biso   1.000  C
  H103     1.0000 0.83439  0.87818  0.21001  Biso   1.000  H
  C102     1.0000 0.92190  0.89769  0.20210  Biso   1.000  C
  C103     1.0000 0.75000  0.90256  0.93743  Biso   1.000  C
  C104     1.0000 0.69660  0.13699  0.42295  Biso   1.000  C
  H104     1.0000 0.60962  0.12499  0.41601  Biso   1.000  H
  H105     1.0000 0.95139  0.89885  0.26422  Biso   1.000  H
  H106     1.0000 0.93060  0.83995  0.15002  Biso   1.000  H
  C105     1.0000 0.92559  0.00000  0.12984  Biso   1.000  C
  H107     1.0000 0.73299  0.85698  0.97005  Biso   1.000  H
  H108     1.0000 0.76701  0.85698  0.97005  Biso   1.000  H
  C106     1.0000 0.75000  0.00000  0.97787  Biso   1.000  C
  C107     1.0000 0.75000  0.13443  0.35594  Biso   1.000  C
  C108     1.0000 0.69761  0.13792  0.55012  Biso   1.000  C
  H109     1.0000 0.89412  0.00000  0.07181  Biso   1.000  H
  H110     1.0000 0.96242  0.00000  0.08621  Biso   1.000  H
  C109     1.0000 0.92190  0.10231  0.20210  Biso   1.000  C
  C110     1.0000 0.75000  0.09736  0.93743  Biso   1.000  C
  H111     1.0000 0.78380  0.00000  0.03039  Biso   1.000  H
  H112     1.0000 0.71620  0.00000  0.03039  Biso   1.000  H
  O22      1.0000 0.75000  0.12909  0.24449  Biso   1.000  O
  C111     1.0000 0.80340  0.13699  0.42295  Biso   1.000  C
  C112     1.0000 0.75000  0.13699  0.61145  Biso   1.000  C
  O23      1.0000 0.65058  0.13970  0.61029  Biso   1.000  O
  N23      1.0000 0.86458  0.11787  0.25560  Biso   1.000  N
  H113     1.0000 0.95139  0.10108  0.26422  Biso   1.000  H
  H114     1.0000 0.93060  0.15997  0.15002  Biso   1.000  H
  N24      1.0000 0.75000  0.11601  0.81114  Biso   1.000  N
  H115     1.0000 0.76701  0.14302  0.97005  Biso   1.000  H
  H116     1.0000 0.73299  0.14302  0.97005  Biso   1.000  H
  C113     1.0000 0.80239  0.13792  0.55012  Biso   1.000  C
  C114     1.0000 0.85720  0.12631  0.36802  Biso   1.000  C
  C115     1.0000 0.72099  0.12607  0.73445  Biso   1.000  C
  C116     1.0000 0.77901  0.12607  0.73445  Biso   1.000  C
  H117     1.0000 0.83439  0.12182  0.21001  Biso   1.000  H
  O24      1.0000 0.84942  0.13970  0.61029  Biso   1.000  O
  H118     1.0000 0.89038  0.12499  0.41601  Biso   1.000  H
  H119     1.0000 0.68201  0.12097  0.76902  Biso   1.000  H
  H120     1.0000 0.81799  0.12097  0.76902  Biso   1.000  H
  Ne1      1.0000 0.75000  0.49998  0.02103  Biso   1.000  Ne
  He1      1.0000 0.80540  0.49999  0.01218  Biso   1.000  He
  He2      1.0000 0.69286  0.49999  0.01213  Biso   1.000  He
  He3      1.0000 0.78001  0.49999  0.90870  Biso   1.000  He
  Ar1      1.0000 0.75000  0.49996  0.01406  Biso   1.000  Ar
  Ne2      1.0000 0.25000  0.49998  0.97901  Biso   1.000  Ne
  He4      1.0000 0.19348  0.49998  0.98791  Biso   1.000  He
  He5      1.0000 0.30652  0.49999  0.98796  Biso   1.000  He
  Ar2      1.0000 0.25000  0.49996  0.98603  Biso   1.000  Ar
  Ne3      1.0000 0.75000  0.99999  0.47901  Biso   1.000  Ne
  He6      1.0000 0.69349  0.99999  0.48796  Biso   1.000  He
  He7      1.0000 0.80651  0.99998  0.48793  Biso   1.000  He
  Ar3      1.0000 0.75000  0.99996  0.48603  Biso   1.000  Ar
  Ne4      1.0000 0.25000  0.99999  0.52103  Biso   1.000  Ne
  He8      1.0000 0.30540  0.99999  0.51212  Biso   1.000  He
  He9      1.0000 0.19286  0.00000  0.51205  Biso   1.000  He
  Ar4      1.0000 0.25000  0.00000  0.51390  Biso   1.000  Ar
