data_image0
_cell_length_a       18.165
_cell_length_b       10.854
_cell_length_c       20.384
_cell_angle_alpha    90
_cell_angle_beta     109.93
_cell_angle_gamma    90

_symmetry_space_group_name_H-M    "P 1"
_symmetry_int_tables_number       1

loop_
  _symmetry_equiv_pos_as_xyz
  'x, y, z'

loop_
  _atom_site_label
  _atom_site_occupancy
  _atom_site_fract_x
  _atom_site_fract_y
  _atom_site_fract_z
  _atom_site_thermal_displace_type
  _atom_site_B_iso_or_equiv
  _atom_site_type_symbol
  C1       1.0000 0.55747  0.45651  0.34159  Biso   1.000  C
  C2       1.0000 0.48469  0.41948  0.34979  Biso   1.000  C
  C3       1.0000 0.61529  0.36540  0.33919  Biso   1.000  C
  C4       1.0000 0.57037  0.57730  0.32651  Biso   1.000  C
  C5       1.0000 0.46784  0.28893  0.34947  Biso   1.000  C
  O1       1.0000 0.43699  0.50009  0.35532  Biso   1.000  O
  C6       1.0000 0.59660  0.23650  0.33940  Biso   1.000  C
  O2       1.0000 0.68038  0.39819  0.33549  Biso   1.000  O
  N1       1.0000 0.52489  0.67312  0.32333  Biso   1.000  N
  H1       1.0000 0.61646  0.59250  0.31748  Biso   1.000  H
  C7       1.0000 0.39176  0.25640  0.33997  Biso   1.000  C
  C8       1.0000 0.52518  0.19615  0.34869  Biso   1.000  C
  C9       1.0000 0.64179  0.14815  0.32140  Biso   1.000  C
  C10      1.0000 0.52888  0.78671  0.28670  Biso   1.000  C
  H2       1.0000 0.49099  0.66833  0.34410  Biso   1.000  H
  N2       1.0000 0.36309  0.14502  0.33700  Biso   1.000  N
  H3       1.0000 0.35654  0.32090  0.33528  Biso   1.000  H
  O3       1.0000 0.51116  0.08402  0.35422  Biso   1.000  O
  N3       1.0000 0.70635  0.16473  0.30882  Biso   1.000  N
  H4       1.0000 0.62349  0.06753  0.31801  Biso   1.000  H
  C11      1.0000 0.47106  0.78671  0.21327  Biso   1.000  C
  H5       1.0000 0.58139  0.79676  0.28539  Biso   1.000  H
  H6       1.0000 0.51806  0.85600  0.31211  Biso   1.000  H
  C12      1.0000 0.28058  0.11470  0.30350  Biso   1.000  C
  H7       1.0000 0.39498  0.08614  0.35589  Biso   1.000  H
  C13      1.0000 0.73799  0.07877  0.27052  Biso   1.000  C
  H8       1.0000 0.73227  0.23125  0.32422  Biso   1.000  H
  N4       1.0000 0.47505  0.67312  0.17664  Biso   1.000  N
  H9       1.0000 0.41855  0.79676  0.21458  Biso   1.000  H
  H10      1.0000 0.48190  0.85600  0.18791  Biso   1.000  H
  C14      1.0000 0.26197  0.07877  0.22950  Biso   1.000  C
  H11      1.0000 0.24906  0.18537  0.30600  Biso   1.000  H
  H12      1.0000 0.26706  0.04736  0.32860  Biso   1.000  H
  C15      1.0000 0.71936  0.11470  0.19647  Biso   1.000  C
  H13      1.0000 0.79436  0.07453  0.29280  Biso   1.000  H
  H14      1.0000 0.71688  0.99733  0.27261  Biso   1.000  H
  C16      1.0000 0.42960  0.57730  0.17351  Biso   1.000  C
  H15      1.0000 0.50900  0.66833  0.15587  Biso   1.000  H
  N5       1.0000 0.29362  0.16473  0.19120  Biso   1.000  N
  H16      1.0000 0.20561  0.07453  0.20722  Biso   1.000  H
  H17      1.0000 0.28308  0.99733  0.22742  Biso   1.000  H
  N6       1.0000 0.63687  0.14502  0.16302  Biso   1.000  N
  H18      1.0000 0.75090  0.18537  0.19402  Biso   1.000  H
  H19      1.0000 0.73288  0.04736  0.17137  Biso   1.000  H
  C17      1.0000 0.44247  0.45651  0.15838  Biso   1.000  C
  H20      1.0000 0.38348  0.59250  0.18249  Biso   1.000  H
  H21      1.0000 0.26769  0.23125  0.17581  Biso   1.000  H
  C18      1.0000 0.35815  0.14815  0.17857  Biso   1.000  C
  C19      1.0000 0.60819  0.25640  0.15999  Biso   1.000  C
  H22      1.0000 0.60496  0.08614  0.14408  Biso   1.000  H
  C20      1.0000 0.38470  0.36540  0.16078  Biso   1.000  C
  C21      1.0000 0.51531  0.41948  0.15018  Biso   1.000  C
  H23      1.0000 0.37648  0.06753  0.18202  Biso   1.000  H
  C22      1.0000 0.40342  0.23650  0.16062  Biso   1.000  C
  C23      1.0000 0.53211  0.28893  0.15050  Biso   1.000  C
  H24      1.0000 0.64340  0.32090  0.16469  Biso   1.000  H
  O4       1.0000 0.31956  0.39819  0.16448  Biso   1.000  O
  O5       1.0000 0.56296  0.50009  0.14465  Biso   1.000  O
  C24      1.0000 0.47477  0.19615  0.15128  Biso   1.000  C
  O6       1.0000 0.48878  0.08402  0.14575  Biso   1.000  O
  O7       1.0000 0.56297  0.49991  0.64467  Biso   1.000  O
  C25      1.0000 0.51527  0.58052  0.65020  Biso   1.000  C
  C26      1.0000 0.44243  0.54349  0.65840  Biso   1.000  C
  C27      1.0000 0.53205  0.71107  0.65047  Biso   1.000  C
  C28      1.0000 0.42954  0.42270  0.67348  Biso   1.000  C
  C29      1.0000 0.38467  0.63460  0.66080  Biso   1.000  C
  C30      1.0000 0.47473  0.80394  0.65130  Biso   1.000  C
  C31      1.0000 0.60813  0.74360  0.65996  Biso   1.000  C
  N7       1.0000 0.47507  0.32688  0.67666  Biso   1.000  N
  H25      1.0000 0.38345  0.40750  0.68251  Biso   1.000  H
  O8       1.0000 0.31953  0.60181  0.66450  Biso   1.000  O
  C32      1.0000 0.40336  0.76350  0.66059  Biso   1.000  C
  O9       1.0000 0.48874  0.91607  0.64577  Biso   1.000  O
  N8       1.0000 0.63681  0.85498  0.66299  Biso   1.000  N
  H26      1.0000 0.64334  0.67910  0.66466  Biso   1.000  H
  H27      1.0000 0.50897  0.33167  0.65589  Biso   1.000  H
  C33      1.0000 0.47103  0.21329  0.71329  Biso   1.000  C
  C34      1.0000 0.35817  0.85194  0.67859  Biso   1.000  C
  H28      1.0000 0.60498  0.91395  0.64410  Biso   1.000  H
  C35      1.0000 0.71932  0.88530  0.69649  Biso   1.000  C
  C36      1.0000 0.52882  0.21329  0.78666  Biso   1.000  C
  H29      1.0000 0.41857  0.20334  0.71460  Biso   1.000  H
  H30      1.0000 0.48184  0.14400  0.68788  Biso   1.000  H
  N9       1.0000 0.29356  0.83536  0.69117  Biso   1.000  N
  H31      1.0000 0.37642  0.93256  0.68198  Biso   1.000  H
  C37      1.0000 0.73794  0.92123  0.77049  Biso   1.000  C
  H32      1.0000 0.75084  0.81463  0.69399  Biso   1.000  H
  H33      1.0000 0.73284  0.95264  0.67139  Biso   1.000  H
  N10      1.0000 0.52483  0.32688  0.82330  Biso   1.000  N
  H34      1.0000 0.58133  0.20334  0.78536  Biso   1.000  H
  H35      1.0000 0.51801  0.14400  0.81208  Biso   1.000  H
  H36      1.0000 0.26763  0.76884  0.67577  Biso   1.000  H
  C38      1.0000 0.26191  0.92123  0.72947  Biso   1.000  C
  N11      1.0000 0.70629  0.83536  0.80879  Biso   1.000  N
  H37      1.0000 0.79435  0.92556  0.79277  Biso   1.000  H
  H38      1.0000 0.71682  0.00267  0.77257  Biso   1.000  H
  H39      1.0000 0.49094  0.33167  0.84407  Biso   1.000  H
  C39      1.0000 0.57031  0.42270  0.82648  Biso   1.000  C
  H40      1.0000 0.20555  0.92556  0.70719  Biso   1.000  H
  C40      1.0000 0.28053  0.88530  0.80347  Biso   1.000  C
  H41      1.0000 0.28302  0.00267  0.72738  Biso   1.000  H
  C41      1.0000 0.64174  0.85194  0.82137  Biso   1.000  C
  H42      1.0000 0.73222  0.76884  0.82418  Biso   1.000  H
  H43      1.0000 0.61642  0.40750  0.81750  Biso   1.000  H
  C42      1.0000 0.55742  0.54349  0.84156  Biso   1.000  C
  N12      1.0000 0.36304  0.85498  0.83697  Biso   1.000  N
  H44      1.0000 0.24900  0.81463  0.80597  Biso   1.000  H
  H45      1.0000 0.26701  0.95264  0.82857  Biso   1.000  H
  C43      1.0000 0.59654  0.76350  0.83937  Biso   1.000  C
  H46      1.0000 0.62343  0.93256  0.81797  Biso   1.000  H
  C44      1.0000 0.48463  0.58052  0.84975  Biso   1.000  C
  C45      1.0000 0.61524  0.63460  0.83916  Biso   1.000  C
  C46      1.0000 0.39172  0.74360  0.84000  Biso   1.000  C
  H47      1.0000 0.39492  0.91395  0.85586  Biso   1.000  H
  C47      1.0000 0.52512  0.80394  0.84866  Biso   1.000  C
  O10      1.0000 0.43693  0.49991  0.85529  Biso   1.000  O
  C48      1.0000 0.46785  0.71107  0.84949  Biso   1.000  C
  O11      1.0000 0.68032  0.60181  0.83546  Biso   1.000  O
  H48      1.0000 0.35656  0.67910  0.83530  Biso   1.000  H
  O12      1.0000 0.51116  0.91607  0.85419  Biso   1.000  O
  N13      1.0000 0.79358  0.33527  0.69117  Biso   1.000  N
  H49      1.0000 0.76766  0.26884  0.67577  Biso   1.000  H
  C49      1.0000 0.85814  0.35194  0.67859  Biso   1.000  C
  C50      1.0000 0.76194  0.42123  0.72947  Biso   1.000  C
  H50      1.0000 0.87645  0.43247  0.68198  Biso   1.000  H
  C51      1.0000 0.90333  0.26350  0.66059  Biso   1.000  C
  H51      1.0000 0.78305  0.50267  0.72738  Biso   1.000  H
  H52      1.0000 0.70552  0.42556  0.70719  Biso   1.000  H
  C52      1.0000 0.78055  0.38530  0.80347  Biso   1.000  C
  C53      1.0000 0.97476  0.30394  0.65130  Biso   1.000  C
  C54      1.0000 0.88464  0.13460  0.66080  Biso   1.000  C
  N14      1.0000 0.86306  0.35498  0.83697  Biso   1.000  N
  H53      1.0000 0.74903  0.31463  0.80597  Biso   1.000  H
  H54      1.0000 0.76703  0.45264  0.82857  Biso   1.000  H
  O13      1.0000 0.98872  0.41598  0.64577  Biso   1.000  O
  C55      1.0000 0.03202  0.21107  0.65047  Biso   1.000  C
  O14      1.0000 0.81955  0.10181  0.66450  Biso   1.000  O
  C56      1.0000 0.94246  0.04349  0.65840  Biso   1.000  C
  H55      1.0000 0.89490  0.41395  0.85586  Biso   1.000  H
  C57      1.0000 0.89175  0.24360  0.84000  Biso   1.000  C
  C58      1.0000 0.10816  0.24360  0.65996  Biso   1.000  C
  C59      1.0000 0.01524  0.08052  0.65020  Biso   1.000  C
  C60      1.0000 0.92957  0.92270  0.67348  Biso   1.000  C
  H56      1.0000 0.85653  0.17910  0.83530  Biso   1.000  H
  C61      1.0000 0.96783  0.21107  0.84949  Biso   1.000  C
  N15      1.0000 0.13684  0.35498  0.66299  Biso   1.000  N
  H57      1.0000 0.14331  0.17910  0.66466  Biso   1.000  H
  O15      1.0000 0.06295  0.99991  0.64467  Biso   1.000  O
  N16      1.0000 0.97504  0.82688  0.67666  Biso   1.000  N
  H58      1.0000 0.88347  0.90750  0.68251  Biso   1.000  H
  C62      1.0000 0.98461  0.08052  0.84975  Biso   1.000  C
  C63      1.0000 0.02514  0.30394  0.84866  Biso   1.000  C
  H59      1.0000 0.10495  0.41395  0.64410  Biso   1.000  H
  C64      1.0000 0.21935  0.38530  0.69649  Biso   1.000  C
  C65      1.0000 0.97105  0.71329  0.71329  Biso   1.000  C
  H60      1.0000 0.00894  0.83177  0.65589  Biso   1.000  H
  O16      1.0000 0.93690  0.99991  0.85529  Biso   1.000  O
  C66      1.0000 0.05744  0.04349  0.84156  Biso   1.000  C
  O17      1.0000 0.01113  0.41598  0.85419  Biso   1.000  O
  C67      1.0000 0.09652  0.26350  0.83937  Biso   1.000  C
  C68      1.0000 0.23796  0.42123  0.77049  Biso   1.000  C
  H61      1.0000 0.25087  0.31463  0.69399  Biso   1.000  H
  H62      1.0000 0.23287  0.45264  0.67139  Biso   1.000  H
  H63      1.0000 0.91854  0.70334  0.71460  Biso   1.000  H
  H64      1.0000 0.98187  0.64400  0.68788  Biso   1.000  H
  C69      1.0000 0.02885  0.71329  0.78666  Biso   1.000  C
  C70      1.0000 0.07034  0.92270  0.82648  Biso   1.000  C
  C71      1.0000 0.11521  0.13460  0.83916  Biso   1.000  C
  C72      1.0000 0.14171  0.35194  0.82137  Biso   1.000  C
  N17      1.0000 0.20632  0.33527  0.80879  Biso   1.000  N
  H65      1.0000 0.21685  0.50267  0.77257  Biso   1.000  H
  H66      1.0000 0.29433  0.42556  0.79277  Biso   1.000  H
  N18      1.0000 0.02480  0.82688  0.82330  Biso   1.000  N
  H67      1.0000 0.08131  0.70334  0.78536  Biso   1.000  H
  H68      1.0000 0.01803  0.64400  0.81208  Biso   1.000  H
  H69      1.0000 0.11645  0.90750  0.81750  Biso   1.000  H
  O18      1.0000 0.18035  0.10181  0.83546  Biso   1.000  O
  H70      1.0000 0.12345  0.43247  0.81797  Biso   1.000  H
  H71      1.0000 0.23224  0.26884  0.82418  Biso   1.000  H
  H72      1.0000 0.99091  0.83177  0.84407  Biso   1.000  H
  C73      1.0000 0.78056  0.61470  0.30350  Biso   1.000  C
  C74      1.0000 0.76200  0.57877  0.22950  Biso   1.000  C
  N19      1.0000 0.86312  0.64502  0.33700  Biso   1.000  N
  H73      1.0000 0.74909  0.68546  0.30600  Biso   1.000  H
  H74      1.0000 0.76709  0.54745  0.32860  Biso   1.000  H
  N20      1.0000 0.79364  0.66473  0.19120  Biso   1.000  N
  H75      1.0000 0.78311  0.49733  0.22742  Biso   1.000  H
  H76      1.0000 0.70558  0.57453  0.20722  Biso   1.000  H
  H77      1.0000 0.89495  0.58614  0.35589  Biso   1.000  H
  C75      1.0000 0.89178  0.75640  0.33997  Biso   1.000  C
  H78      1.0000 0.76772  0.73125  0.17581  Biso   1.000  H
  C76      1.0000 0.85818  0.64815  0.17857  Biso   1.000  C
  H79      1.0000 0.85657  0.82090  0.33528  Biso   1.000  H
  C77      1.0000 0.96786  0.78893  0.34947  Biso   1.000  C
  H80      1.0000 0.87650  0.56753  0.18202  Biso   1.000  H
  C78      1.0000 0.90339  0.73650  0.16062  Biso   1.000  C
  C79      1.0000 0.98466  0.91957  0.34979  Biso   1.000  C
  C80      1.0000 0.02515  0.69615  0.34869  Biso   1.000  C
  C81      1.0000 0.97479  0.69615  0.15128  Biso   1.000  C
  C82      1.0000 0.88468  0.86540  0.16078  Biso   1.000  C
  O19      1.0000 0.93696  0.00009  0.35532  Biso   1.000  O
  C83      1.0000 0.05745  0.95651  0.34159  Biso   1.000  C
  O20      1.0000 0.01119  0.58402  0.35422  Biso   1.000  O
  C84      1.0000 0.09657  0.73650  0.33940  Biso   1.000  C
  O21      1.0000 0.98875  0.58402  0.14575  Biso   1.000  O
  C85      1.0000 0.03208  0.78893  0.15050  Biso   1.000  C
  O22      1.0000 0.81959  0.89819  0.16448  Biso   1.000  O
  C86      1.0000 0.94250  0.95651  0.15838  Biso   1.000  C
  C87      1.0000 0.11527  0.86540  0.33919  Biso   1.000  C
  C88      1.0000 0.07039  0.07730  0.32651  Biso   1.000  C
  C89      1.0000 0.14177  0.64815  0.32140  Biso   1.000  C
  C90      1.0000 0.10821  0.75640  0.15999  Biso   1.000  C
  C91      1.0000 0.01528  0.91957  0.15018  Biso   1.000  C
  C92      1.0000 0.92957  0.07730  0.17351  Biso   1.000  C
  O23      1.0000 0.18041  0.89819  0.33549  Biso   1.000  O
  N21      1.0000 0.02486  0.17312  0.32333  Biso   1.000  N
  H81      1.0000 0.11649  0.09250  0.31748  Biso   1.000  H
  N22      1.0000 0.20632  0.66473  0.30882  Biso   1.000  N
  H82      1.0000 0.12346  0.56753  0.31801  Biso   1.000  H
  N23      1.0000 0.13690  0.64502  0.16302  Biso   1.000  N
  H83      1.0000 0.14337  0.82090  0.16469  Biso   1.000  H
  O24      1.0000 0.06298  0.00009  0.14465  Biso   1.000  O
  N24      1.0000 0.97508  0.17312  0.17664  Biso   1.000  N
  H84      1.0000 0.88346  0.09250  0.18249  Biso   1.000  H
  C93      1.0000 0.02885  0.28671  0.28670  Biso   1.000  C
  H85      1.0000 0.99097  0.16833  0.34410  Biso   1.000  H
  C94      1.0000 0.23797  0.57877  0.27052  Biso   1.000  C
  H86      1.0000 0.23230  0.73125  0.32422  Biso   1.000  H
  H87      1.0000 0.10499  0.58614  0.14408  Biso   1.000  H
  C95      1.0000 0.21939  0.61470  0.19647  Biso   1.000  C
  C96      1.0000 0.97109  0.28671  0.21327  Biso   1.000  C
  H88      1.0000 0.00898  0.16833  0.15587  Biso   1.000  H
  H89      1.0000 0.08136  0.29666  0.28539  Biso   1.000  H
  H90      1.0000 0.01809  0.35600  0.31211  Biso   1.000  H
  H91      1.0000 0.21691  0.49733  0.27261  Biso   1.000  H
  H92      1.0000 0.29438  0.57453  0.29280  Biso   1.000  H
  H93      1.0000 0.25087  0.68546  0.19402  Biso   1.000  H
  H94      1.0000 0.23285  0.54745  0.17137  Biso   1.000  H
  H95      1.0000 0.91858  0.29666  0.21458  Biso   1.000  H
  H96      1.0000 0.98187  0.35600  0.18791  Biso   1.000  H
  Ne1      1.0000 0.49998  0.32724  0.24999  Biso   1.000  Ne
  He1      1.0000 0.44451  0.42556  0.25072  Biso   1.000  He
  He2      1.0000 0.48352  0.19735  0.24818  Biso   1.000  He
  He3      1.0000 0.55735  0.42911  0.24931  Biso   1.000  He
  Ar1      1.0000 0.50002  0.32775  0.25000  Biso   1.000  Ar
  Ne2      1.0000 0.99994  0.17277  0.74998  Biso   1.000  Ne
  He4      1.0000 0.92943  0.14087  0.75922  Biso   1.000  He
  He5      1.0000 0.98268  0.30610  0.74809  Biso   1.000  He
  He6      1.0000 0.04855  0.08665  0.74902  Biso   1.000  He
  Ar2      1.0000 0.99990  0.17226  0.74999  Biso   1.000  Ar
  Ne3      1.0000 0.99998  0.82724  0.24999  Biso   1.000  Ne
  He7      1.0000 0.94447  0.92564  0.25071  Biso   1.000  He
  He8      1.0000 0.98351  0.69735  0.24818  Biso   1.000  He
  He9      1.0000 0.05741  0.92908  0.24932  Biso   1.000  He
  Ar3      1.0000 0.00001  0.82776  0.24999  Biso   1.000  Ar
  Ne4      1.0000 0.49994  0.67278  0.74998  Biso   1.000  Ne
  He10     1.0000 0.42946  0.64087  0.75922  Biso   1.000  He
  He11     1.0000 0.48269  0.80610  0.74809  Biso   1.000  He
  He12     1.0000 0.54854  0.58667  0.74902  Biso   1.000  He
  Ar4      1.0000 0.49996  0.67226  0.74997  Biso   1.000  Ar
