data_image0
_cell_length_a       15.638
_cell_length_b       16.513
_cell_length_c       18.346
_cell_angle_alpha    83.36
_cell_angle_beta     68.72
_cell_angle_gamma    72.26

_symmetry_space_group_name_H-M    "P 1"
_symmetry_int_tables_number       1

loop_
  _symmetry_equiv_pos_as_xyz
  'x, y, z'

loop_
  _atom_site_label
  _atom_site_occupancy
  _atom_site_fract_x
  _atom_site_fract_y
  _atom_site_fract_z
  _atom_site_thermal_displace_type
  _atom_site_B_iso_or_equiv
  _atom_site_type_symbol
  C1       1.0000 0.58556  0.34339  0.51729  Biso   1.000  C
  C2       1.0000 0.64910  0.37489  0.53349  Biso   1.000  C
  C3       1.0000 0.59029  0.33061  0.44540  Biso   1.000  C
  O1       1.0000 0.51085  0.32055  0.58070  Biso   1.000  O
  C4       1.0000 0.71904  0.39925  0.46961  Biso   1.000  C
  C5       1.0000 0.63633  0.38328  0.61633  Biso   1.000  C
  C6       1.0000 0.66228  0.35110  0.38099  Biso   1.000  C
  H1       1.0000 0.54517  0.30770  0.43803  Biso   1.000  H
  C7       1.0000 0.47458  0.36265  0.65119  Biso   1.000  C
  C8       1.0000 0.72787  0.38726  0.39322  Biso   1.000  C
  H2       1.0000 0.76139  0.42456  0.47868  Biso   1.000  H
  N1       1.0000 0.53463  0.39765  0.66663  Biso   1.000  N
  H3       1.0000 0.67569  0.33090  0.63358  Biso   1.000  H
  H4       1.0000 0.65878  0.43150  0.62177  Biso   1.000  H
  H5       1.0000 0.66738  0.34105  0.32946  Biso   1.000  H
  O2       1.0000 0.39469  0.36067  0.69389  Biso   1.000  O
  C9       1.0000 0.80018  0.40938  0.32261  Biso   1.000  C
  C10      1.0000 0.49377  0.44655  0.73753  Biso   1.000  C
  C11      1.0000 0.78060  0.44196  0.25610  Biso   1.000  C
  C12      1.0000 0.89221  0.40295  0.32308  Biso   1.000  C
  C13      1.0000 0.48945  0.53289  0.72823  Biso   1.000  C
  C14      1.0000 0.46357  0.41266  0.81019  Biso   1.000  C
  C15      1.0000 0.84926  0.46228  0.18959  Biso   1.000  C
  H6       1.0000 0.71787  0.45080  0.25557  Biso   1.000  H
  C16      1.0000 0.96023  0.42910  0.25891  Biso   1.000  C
  H7       1.0000 0.90810  0.38049  0.36806  Biso   1.000  H
  C17      1.0000 0.44867  0.58374  0.79310  Biso   1.000  C
  H8       1.0000 0.51433  0.55584  0.67769  Biso   1.000  H
  C18      1.0000 0.41974  0.46496  0.87570  Biso   1.000  C
  H9       1.0000 0.47244  0.35305  0.81639  Biso   1.000  H
  C19      1.0000 0.83514  0.49250  0.11401  Biso   1.000  C
  C20      1.0000 0.93958  0.45189  0.19257  Biso   1.000  C
  H10      1.0000 0.01919  0.43067  0.26177  Biso   1.000  H
  C21      1.0000 0.43076  0.68095  0.79293  Biso   1.000  C
  C22      1.0000 0.41517  0.54945  0.86810  Biso   1.000  C
  H11      1.0000 0.39290  0.44189  0.92583  Biso   1.000  H
  N2       1.0000 0.88348  0.56181  0.08207  Biso   1.000  N
  H12      1.0000 0.86337  0.44492  0.07646  Biso   1.000  H
  H13      1.0000 0.76602  0.51483  0.12220  Biso   1.000  H
  O3       1.0000 0.00478  0.47977  0.12559  Biso   1.000  O
  C23      1.0000 0.32184  0.71476  0.83651  Biso   1.000  C
  H14      1.0000 0.45372  0.70627  0.73970  Biso   1.000  H
  C24      1.0000 0.47666  0.69624  0.84990  Biso   1.000  C
  C25      1.0000 0.36783  0.61567  0.93391  Biso   1.000  C
  C26      1.0000 0.82628  0.64600  0.07078  Biso   1.000  C
  C27      1.0000 0.97108  0.55281  0.08798  Biso   1.000  C
  C28      1.0000 0.25935  0.77066  0.80422  Biso   1.000  C
  C29      1.0000 0.28775  0.68073  0.91121  Biso   1.000  C
  C30      1.0000 0.54875  0.73503  0.82820  Biso   1.000  C
  C31      1.0000 0.44328  0.66125  0.92502  Biso   1.000  C
  H15      1.0000 0.34451  0.59036  0.98708  Biso   1.000  H
  C32      1.0000 0.74555  0.68330  0.13519  Biso   1.000  C
  C33      1.0000 0.84738  0.68731  0.00187  Biso   1.000  C
  O4       1.0000 0.02195  0.59808  0.05610  Biso   1.000  O
  C34      1.0000 0.16176  0.78845  0.84833  Biso   1.000  C
  H16      1.0000 0.28160  0.79583  0.75426  Biso   1.000  H
  C35      1.0000 0.19153  0.69903  0.95380  Biso   1.000  C
  H17      1.0000 0.57006  0.75970  0.77784  Biso   1.000  H
  C36      1.0000 0.58911  0.73608  0.88582  Biso   1.000  C
  C37      1.0000 0.48384  0.66435  0.97953  Biso   1.000  C
  C38      1.0000 0.69023  0.76322  0.12571  Biso   1.000  C
  H18      1.0000 0.72990  0.65401  0.18386  Biso   1.000  H
  C39      1.0000 0.79206  0.76893  0.99229  Biso   1.000  C
  H19      1.0000 0.90116  0.66015  0.95883  Biso   1.000  H
  N3       1.0000 0.09595  0.84519  0.81282  Biso   1.000  N
  C40      1.0000 0.12752  0.75278  0.92010  Biso   1.000  C
  H20      1.0000 0.16923  0.67591  0.00462  Biso   1.000  H
  C41      1.0000 0.55712  0.70365  0.95812  Biso   1.000  C
  N4       1.0000 0.66612  0.77647  0.86231  Biso   1.000  N
  H21      1.0000 0.46256  0.64059  0.03024  Biso   1.000  H
  C42      1.0000 0.59993  0.81171  0.19152  Biso   1.000  C
  C43      1.0000 0.71095  0.80582  0.05388  Biso   1.000  C
  H22      1.0000 0.80992  0.79873  0.94420  Biso   1.000  H
  C44      1.0000 0.05944  0.80945  0.76292  Biso   1.000  C
  C45      1.0000 0.08216  0.92896  0.81720  Biso   1.000  C
  H23      1.0000 0.06058  0.76450  0.94695  Biso   1.000  H
  H24      1.0000 0.58497  0.70755  0.99533  Biso   1.000  H
  C46      1.0000 0.64493  0.86866  0.84300  Biso   1.000  C
  C47      1.0000 0.75717  0.72558  0.83622  Biso   1.000  C
  C48      1.0000 0.51912  0.83418  0.15572  Biso   1.000  C
  H25      1.0000 0.58543  0.78068  0.24270  Biso   1.000  H
  C49      1.0000 0.61725  0.89842  0.19450  Biso   1.000  C
  C50      1.0000 0.63890  0.89362  0.05522  Biso   1.000  C
  C51      1.0000 0.06773  0.85885  0.69021  Biso   1.000  C
  H26      1.0000 0.09690  0.74931  0.75058  Biso   1.000  H
  H27      1.0000 0.99166  0.81131  0.79141  Biso   1.000  H
  O5       1.0000 0.03703  0.97956  0.76842  Biso   1.000  O
  O6       1.0000 0.10176  0.96404  0.86119  Biso   1.000  O
  C52      1.0000 0.70127  0.87909  0.75988  Biso   1.000  C
  H28      1.0000 0.66222  0.89884  0.87675  Biso   1.000  H
  H29      1.0000 0.57575  0.89308  0.85201  Biso   1.000  H
  O7       1.0000 0.82367  0.76354  0.78380  Biso   1.000  O
  O8       1.0000 0.78675  0.65066  0.84932  Biso   1.000  O
  C53      1.0000 0.43223  0.81888  0.19368  Biso   1.000  C
  C54      1.0000 0.53972  0.87722  0.08459  Biso   1.000  C
  C55      1.0000 0.61312  0.93100  0.26160  Biso   1.000  C
  C56      1.0000 0.63685  0.94260  0.12290  Biso   1.000  C
  H30      1.0000 0.65332  0.92433  0.00386  Biso   1.000  H
  C57      1.0000 0.08843  0.82727  0.61603  Biso   1.000  C
  C58      1.0000 0.05120  0.94600  0.69500  Biso   1.000  C
  C59      1.0000 0.66653  0.93219  0.70612  Biso   1.000  C
  C60      1.0000 0.79419  0.82650  0.73051  Biso   1.000  C
  C61      1.0000 0.36430  0.84493  0.15572  Biso   1.000  C
  H31      1.0000 0.41825  0.79199  0.24352  Biso   1.000  H
  C62      1.0000 0.47416  0.90060  0.04697  Biso   1.000  C
  H32      1.0000 0.60208  0.90012  0.30951  Biso   1.000  H
  C63      1.0000 0.62623  0.01247  0.25581  Biso   1.000  C
  C64      1.0000 0.64830  0.02228  0.11922  Biso   1.000  C
  C65      1.0000 0.08967  0.87955  0.55139  Biso   1.000  C
  H33      1.0000 0.10208  0.76779  0.61001  Biso   1.000  H
  C66      1.0000 0.05491  0.99845  0.63329  Biso   1.000  C
  C67      1.0000 0.72202  0.93408  0.62738  Biso   1.000  C
  H34      1.0000 0.60286  0.96833  0.72367  Biso   1.000  H
  C68      1.0000 0.85091  0.82289  0.65528  Biso   1.000  C
  N5       1.0000 0.26922  0.83583  0.19801  Biso   1.000  N
  C69      1.0000 0.38415  0.88643  0.08599  Biso   1.000  C
  H35      1.0000 0.48910  0.92550  0.99632  Biso   1.000  H
  C70      1.0000 0.64416  0.05708  0.18719  Biso   1.000  C
  N6       1.0000 0.62391  0.04496  0.32758  Biso   1.000  N
  H36      1.0000 0.65868  0.05348  0.07142  Biso   1.000  H
  C71      1.0000 0.11115  0.84480  0.47418  Biso   1.000  C
  C72      1.0000 0.07219  0.96781  0.56029  Biso   1.000  C
  H37      1.0000 0.04567  0.05721  0.63949  Biso   1.000  H
  C73      1.0000 0.68624  0.99140  0.56988  Biso   1.000  C
  C74      1.0000 0.81715  0.88026  0.60112  Biso   1.000  C
  H38      1.0000 0.91244  0.78275  0.63844  Biso   1.000  H
  C75      1.0000 0.24932  0.76241  0.19450  Biso   1.000  C
  C76      1.0000 0.20106  0.90140  0.25750  Biso   1.000  C
  H39      1.0000 0.33600  0.90641  0.06294  Biso   1.000  H
  H40      1.0000 0.65391  0.11139  0.18544  Biso   1.000  H
  C77      1.0000 0.56103  0.12078  0.35367  Biso   1.000  C
  C78      1.0000 0.70561  0.00397  0.35560  Biso   1.000  C
  C79      1.0000 0.14713  0.88662  0.40539  Biso   1.000  C
  C80      1.0000 0.08846  0.76866  0.46921  Biso   1.000  C
  H41      1.0000 0.07240  0.00539  0.51706  Biso   1.000  H
  C81      1.0000 0.71465  0.96906  0.49149  Biso   1.000  C
  C82      1.0000 0.61606  0.06867  0.59603  Biso   1.000  C
  H42      1.0000 0.85760  0.88256  0.54824  Biso   1.000  H
  O9       1.0000 0.29595  0.70772  0.14478  Biso   1.000  O
  O10      1.0000 0.16926  0.74850  0.25382  Biso   1.000  O
  C83      1.0000 0.16541  0.85720  0.33121  Biso   1.000  C
  H43      1.0000 0.14717  0.93463  0.24031  Biso   1.000  H
  H44      1.0000 0.23394  0.94103  0.26447  Biso   1.000  H
  O11      1.0000 0.50064  0.16431  0.32700  Biso   1.000  O
  O12      1.0000 0.56021  0.15209  0.42100  Biso   1.000  O
  H45      1.0000 0.72595  0.94179  0.34753  Biso   1.000  H
  H46      1.0000 0.76053  0.02634  0.32565  Biso   1.000  H
  C84      1.0000 0.67455  0.02265  0.44013  Biso   1.000  C
  H47      1.0000 0.16029  0.93829  0.40872  Biso   1.000  H
  C85      1.0000 0.11266  0.73626  0.39392  Biso   1.000  C
  H48      1.0000 0.05800  0.74053  0.51501  Biso   1.000  H
  H49      1.0000 0.76182  0.91691  0.47283  Biso   1.000  H
  C86      1.0000 0.57674  0.12354  0.54478  Biso   1.000  C
  H50      1.0000 0.59480  0.08405  0.64938  Biso   1.000  H
  C87      1.0000 0.14872  0.77970  0.32940  Biso   1.000  C
  C88      1.0000 0.60309  0.09538  0.47143  Biso   1.000  C
  H51      1.0000 0.10326  0.68332  0.38901  Biso   1.000  H
  H52      1.0000 0.53348  0.17812  0.56099  Biso   1.000  H
  C89      1.0000 0.41435  0.65655  0.48272  Biso   1.000  C
  O13      1.0000 0.48905  0.67939  0.41931  Biso   1.000  O
  C90      1.0000 0.35085  0.62511  0.46651  Biso   1.000  C
  C91      1.0000 0.40966  0.66939  0.55461  Biso   1.000  C
  C92      1.0000 0.52532  0.63728  0.34882  Biso   1.000  C
  C93      1.0000 0.36358  0.61666  0.38368  Biso   1.000  C
  C94      1.0000 0.28087  0.60068  0.53039  Biso   1.000  C
  H53      1.0000 0.45474  0.69224  0.56198  Biso   1.000  H
  C95      1.0000 0.33763  0.64884  0.61902  Biso   1.000  C
  N7       1.0000 0.46527  0.60228  0.33338  Biso   1.000  N
  O14      1.0000 0.60528  0.63927  0.30612  Biso   1.000  O
  H54      1.0000 0.32428  0.66903  0.36643  Biso   1.000  H
  H55      1.0000 0.34119  0.56843  0.37824  Biso   1.000  H
  C96      1.0000 0.27204  0.61267  0.60679  Biso   1.000  C
  H56      1.0000 0.23852  0.57537  0.52133  Biso   1.000  H
  H57      1.0000 0.33258  0.65895  0.67055  Biso   1.000  H
  C97      1.0000 0.50614  0.55338  0.26248  Biso   1.000  C
  C98      1.0000 0.19979  0.59056  0.67740  Biso   1.000  C
  C99      1.0000 0.51050  0.46711  0.27178  Biso   1.000  C
  C100     1.0000 0.53634  0.58728  0.18982  Biso   1.000  C
  C101     1.0000 0.21937  0.55797  0.74391  Biso   1.000  C
  C102     1.0000 0.10776  0.59698  0.67693  Biso   1.000  C
  C103     1.0000 0.55124  0.41620  0.20690  Biso   1.000  C
  H58      1.0000 0.48558  0.44410  0.32232  Biso   1.000  H
  C104     1.0000 0.58015  0.53503  0.12431  Biso   1.000  C
  H59      1.0000 0.52747  0.64689  0.18362  Biso   1.000  H
  H60      1.0000 0.28210  0.54913  0.74443  Biso   1.000  H
  C105     1.0000 0.15065  0.53766  0.81042  Biso   1.000  C
  C106     1.0000 0.03968  0.57083  0.74110  Biso   1.000  C
  H61      1.0000 0.09180  0.61945  0.63194  Biso   1.000  H
  C107     1.0000 0.56921  0.31898  0.20708  Biso   1.000  C
  C108     1.0000 0.58473  0.45049  0.13191  Biso   1.000  C
  H62      1.0000 0.60701  0.55804  0.07417  Biso   1.000  H
  C109     1.0000 0.16477  0.50744  0.88600  Biso   1.000  C
  C110     1.0000 0.06035  0.54804  0.80738  Biso   1.000  C
  H63      1.0000 0.98076  0.56932  0.73823  Biso   1.000  H
  C111     1.0000 0.52325  0.30369  0.15010  Biso   1.000  C
  H64      1.0000 0.54618  0.29366  0.26031  Biso   1.000  H
  C112     1.0000 0.67806  0.28517  0.16350  Biso   1.000  C
  C113     1.0000 0.63206  0.38432  0.06610  Biso   1.000  C
  N8       1.0000 0.11645  0.43813  0.91788  Biso   1.000  N
  H65      1.0000 0.13660  0.55502  0.92355  Biso   1.000  H
  H66      1.0000 0.23387  0.48517  0.87781  Biso   1.000  H
  O15      1.0000 0.99512  0.52016  0.87442  Biso   1.000  O
  C114     1.0000 0.45116  0.26490  0.17181  Biso   1.000  C
  C115     1.0000 0.55670  0.33868  0.07499  Biso   1.000  C
  C116     1.0000 0.74062  0.22927  0.19579  Biso   1.000  C
  C117     1.0000 0.71216  0.31920  0.08880  Biso   1.000  C
  H67      1.0000 0.65538  0.40964  0.01293  Biso   1.000  H
  C118     1.0000 0.17369  0.35394  0.92923  Biso   1.000  C
  C119     1.0000 0.02889  0.44713  0.91203  Biso   1.000  C
  C120     1.0000 0.41078  0.26392  0.11419  Biso   1.000  C
  H68      1.0000 0.42985  0.24024  0.22217  Biso   1.000  H
  C121     1.0000 0.51606  0.33558  0.02047  Biso   1.000  C
  H69      1.0000 0.71830  0.20410  0.24575  Biso   1.000  H
  C122     1.0000 0.83821  0.21149  0.15168  Biso   1.000  C
  C123     1.0000 0.80837  0.30090  0.04621  Biso   1.000  C
  C124     1.0000 0.25436  0.31663  0.86482  Biso   1.000  C
  C125     1.0000 0.15261  0.31263  0.99808  Biso   1.000  C
  O16      1.0000 0.97796  0.40185  0.94391  Biso   1.000  O
  N9       1.0000 0.33379  0.22347  0.13770  Biso   1.000  N
  C126     1.0000 0.44279  0.29629  0.04188  Biso   1.000  C
  H70      1.0000 0.53735  0.35935  0.96977  Biso   1.000  H
  C127     1.0000 0.87237  0.24722  0.07991  Biso   1.000  C
  N10      1.0000 0.90400  0.15481  0.18719  Biso   1.000  N
  H71      1.0000 0.83068  0.32403  0.99539  Biso   1.000  H
  C128     1.0000 0.30967  0.23671  0.87430  Biso   1.000  C
  H72      1.0000 0.27001  0.34593  0.81615  Biso   1.000  H
  C129     1.0000 0.20784  0.23101  0.00772  Biso   1.000  C
  H73      1.0000 0.09881  0.33978  0.04118  Biso   1.000  H
  C130     1.0000 0.24279  0.27442  0.16379  Biso   1.000  C
  C131     1.0000 0.35497  0.13128  0.15701  Biso   1.000  C
  H74      1.0000 0.41500  0.29238  0.00468  Biso   1.000  H
  H75      1.0000 0.93939  0.23543  0.05306  Biso   1.000  H
  C132     1.0000 0.91781  0.07097  0.18280  Biso   1.000  C
  C133     1.0000 0.94046  0.19049  0.23709  Biso   1.000  C
  C134     1.0000 0.39998  0.18823  0.80849  Biso   1.000  C
  C135     1.0000 0.28896  0.19412  0.94613  Biso   1.000  C
  H76      1.0000 0.18997  0.20127  0.05581  Biso   1.000  H
  O17      1.0000 0.17630  0.23640  0.21621  Biso   1.000  O
  O18      1.0000 0.21315  0.34928  0.15069  Biso   1.000  O
  C136     1.0000 0.29868  0.12091  0.24013  Biso   1.000  C
  H77      1.0000 0.33775  0.10110  0.12325  Biso   1.000  H
  H78      1.0000 0.42422  0.10686  0.14800  Biso   1.000  H
  O19      1.0000 0.89821  0.03589  0.13881  Biso   1.000  O
  O20      1.0000 0.96288  0.02038  0.23159  Biso   1.000  O
  H79      1.0000 0.90301  0.25062  0.24943  Biso   1.000  H
  C137     1.0000 0.93218  0.14108  0.30980  Biso   1.000  C
  H80      1.0000 0.00823  0.18869  0.20860  Biso   1.000  H
  C138     1.0000 0.38272  0.10152  0.80551  Biso   1.000  C
  H81      1.0000 0.41447  0.21925  0.75730  Biso   1.000  H
  C139     1.0000 0.48079  0.16575  0.84429  Biso   1.000  C
  C140     1.0000 0.36101  0.10632  0.94479  Biso   1.000  C
  C141     1.0000 0.20570  0.17350  0.26950  Biso   1.000  C
  C142     1.0000 0.33342  0.06781  0.29389  Biso   1.000  C
  C143     1.0000 0.94868  0.05400  0.30500  Biso   1.000  C
  C144     1.0000 0.91147  0.17267  0.38398  Biso   1.000  C
  C145     1.0000 0.38679  0.06894  0.73841  Biso   1.000  C
  C146     1.0000 0.36313  0.05733  0.87711  Biso   1.000  C
  C147     1.0000 0.56768  0.18106  0.80632  Biso   1.000  C
  C148     1.0000 0.46019  0.12271  0.91542  Biso   1.000  C
  H82      1.0000 0.34665  0.07561  0.99615  Biso   1.000  H
  C149     1.0000 0.14897  0.17711  0.34472  Biso   1.000  C
  C150     1.0000 0.27789  0.06586  0.37263  Biso   1.000  C
  H83      1.0000 0.39705  0.03161  0.27634  Biso   1.000  H
  C151     1.0000 0.94500  0.00148  0.36672  Biso   1.000  C
  C152     1.0000 0.91030  0.12038  0.44861  Biso   1.000  C
  H84      1.0000 0.89781  0.23221  0.39000  Biso   1.000  H
  C153     1.0000 0.37367  0.98746  0.74420  Biso   1.000  C
  H85      1.0000 0.39781  0.09988  0.69050  Biso   1.000  H
  C154     1.0000 0.35161  0.97766  0.88079  Biso   1.000  C
  H86      1.0000 0.58163  0.20800  0.75648  Biso   1.000  H
  C155     1.0000 0.63559  0.15507  0.84429  Biso   1.000  C
  C156     1.0000 0.52575  0.09934  0.95304  Biso   1.000  C
  H87      1.0000 0.08747  0.21719  0.36157  Biso   1.000  H
  C157     1.0000 0.18282  0.11967  0.39889  Biso   1.000  C
  C158     1.0000 0.31365  0.00859  0.43013  Biso   1.000  C
  C159     1.0000 0.92769  0.03219  0.43972  Biso   1.000  C
  H88      1.0000 0.95417  0.94272  0.36052  Biso   1.000  H
  C160     1.0000 0.88880  0.15519  0.52583  Biso   1.000  C
  N11      1.0000 0.37607  0.95497  0.67242  Biso   1.000  N
  C161     1.0000 0.35581  0.94285  0.81282  Biso   1.000  C
  H89      1.0000 0.34117  0.94646  0.92858  Biso   1.000  H
  C162     1.0000 0.61580  0.11357  0.91402  Biso   1.000  C
  N12      1.0000 0.73066  0.16417  0.80200  Biso   1.000  N
  H90      1.0000 0.51080  0.07443  0.00369  Biso   1.000  H
  H91      1.0000 0.14231  0.11738  0.45177  Biso   1.000  H
  C163     1.0000 0.28532  0.03087  0.50852  Biso   1.000  C
  C164     1.0000 0.38384  0.93126  0.40398  Biso   1.000  C
  H92      1.0000 0.92751  0.99455  0.48295  Biso   1.000  H
  C165     1.0000 0.85276  0.11338  0.59462  Biso   1.000  C
  C166     1.0000 0.91151  0.23127  0.53080  Biso   1.000  C
  C167     1.0000 0.29430  0.99597  0.64440  Biso   1.000  C
  C168     1.0000 0.43890  0.87915  0.64628  Biso   1.000  C
  H93      1.0000 0.34600  0.88854  0.81457  Biso   1.000  H
  H94      1.0000 0.66389  0.09359  0.93707  Biso   1.000  H
  C169     1.0000 0.75059  0.23752  0.80551  Biso   1.000  C
  C170     1.0000 0.79891  0.09854  0.74250  Biso   1.000  C
  H95      1.0000 0.23815  0.08302  0.52718  Biso   1.000  H
  C171     1.0000 0.32543  0.97729  0.55988  Biso   1.000  C
  C172     1.0000 0.42316  0.87639  0.45522  Biso   1.000  C
  H96      1.0000 0.40518  0.91589  0.35063  Biso   1.000  H
  H97      1.0000 0.83962  0.06164  0.59129  Biso   1.000  H
  C173     1.0000 0.83449  0.14274  0.66880  Biso   1.000  C
  C174     1.0000 0.88725  0.26368  0.60609  Biso   1.000  C
  H98      1.0000 0.94191  0.25940  0.48500  Biso   1.000  H
  H99      1.0000 0.27395  0.05815  0.65248  Biso   1.000  H
  H100     1.0000 0.23938  0.97359  0.67435  Biso   1.000  H
  O21      1.0000 0.43974  0.84791  0.57900  Biso   1.000  O
  O22      1.0000 0.49931  0.83569  0.67301  Biso   1.000  O
  O23      1.0000 0.70393  0.29228  0.85523  Biso   1.000  O
  O24      1.0000 0.83071  0.25143  0.74619  Biso   1.000  O
  H101     1.0000 0.85272  0.06537  0.75970  Biso   1.000  H
  H102     1.0000 0.76603  0.05891  0.73554  Biso   1.000  H
  C175     1.0000 0.39675  0.90455  0.52858  Biso   1.000  C
  H103     1.0000 0.46643  0.82181  0.43902  Biso   1.000  H
  C176     1.0000 0.85118  0.22023  0.67061  Biso   1.000  C
  H104     1.0000 0.89663  0.31667  0.61100  Biso   1.000  H
  Ne1      1.0000 0.51479  0.74443  0.49110  Biso   1.000  Ne
  He1      1.0000 0.26655  0.11314  0.67757  Biso   1.000  He
  He2      1.0000 0.33675  0.56791  0.51056  Biso   1.000  He
  He3      1.0000 0.91678  0.66531  0.40993  Biso   1.000  He
  Ar1      1.0000 0.44731  0.74484  0.49625  Biso   1.000  Ar
  Ne2      1.0000 0.48513  0.25552  0.50891  Biso   1.000  Ne
  He4      1.0000 0.58492  0.38532  0.57933  Biso   1.000  He
  He5      1.0000 0.22955  0.32783  0.55809  Biso   1.000  He
  He6      1.0000 0.71765  0.91241  0.32822  Biso   1.000  He
  Ar2      1.0000 0.55128  0.25226  0.50200  Biso   1.000  Ar
