data_image0
_cell_length_a       12.572
_cell_length_b       14.553
_cell_length_c       20.155
_cell_angle_alpha    96.73
_cell_angle_beta     103.44
_cell_angle_gamma    101.57

_symmetry_space_group_name_H-M    "P 1"
_symmetry_int_tables_number       1

loop_
  _symmetry_equiv_pos_as_xyz
  'x, y, z'

loop_
  _atom_site_label
  _atom_site_occupancy
  _atom_site_fract_x
  _atom_site_fract_y
  _atom_site_fract_z
  _atom_site_thermal_displace_type
  _atom_site_B_iso_or_equiv
  _atom_site_type_symbol
  C1       1.0000 0.63794  0.53227  0.55600  Biso   1.000  C
  C2       1.0000 0.75808  0.53647  0.59572  Biso   1.000  C
  H1       1.0000 0.63476  0.53638  0.50691  Biso   1.000  H
  H2       1.0000 0.58814  0.47107  0.55760  Biso   1.000  H
  C3       1.0000 0.59777  0.61413  0.58779  Biso   1.000  C
  C4       1.0000 0.78457  0.46602  0.63300  Biso   1.000  C
  C5       1.0000 0.84450  0.61228  0.59598  Biso   1.000  C
  C6       1.0000 0.57748  0.61917  0.65361  Biso   1.000  C
  C7       1.0000 0.59102  0.69192  0.55517  Biso   1.000  C
  O1       1.0000 0.69941  0.38843  0.63383  Biso   1.000  O
  C8       1.0000 0.89475  0.47255  0.67189  Biso   1.000  C
  C9       1.0000 0.95475  0.61836  0.63062  Biso   1.000  C
  H3       1.0000 0.82749  0.66178  0.57159  Biso   1.000  H
  C10      1.0000 0.56686  0.70273  0.68960  Biso   1.000  C
  O2       1.0000 0.57946  0.54190  0.68784  Biso   1.000  O
  C11      1.0000 0.57209  0.77316  0.58759  Biso   1.000  C
  H4       1.0000 0.59970  0.68919  0.50950  Biso   1.000  H
  C12      1.0000 0.69168  0.30778  0.58370  Biso   1.000  C
  C13      1.0000 0.92304  0.40211  0.71870  Biso   1.000  C
  C14      1.0000 0.97732  0.54785  0.66790  Biso   1.000  C
  H5       1.0000 0.01346  0.66963  0.62881  Biso   1.000  H
  C15      1.0000 0.56342  0.77988  0.65491  Biso   1.000  C
  C16      1.0000 0.56656  0.71026  0.76479  Biso   1.000  C
  C17      1.0000 0.48917  0.46146  0.65641  Biso   1.000  C
  H6       1.0000 0.56496  0.82496  0.56371  Biso   1.000  H
  C18      1.0000 0.62610  0.22072  0.60027  Biso   1.000  C
  H7       1.0000 0.76801  0.29997  0.58360  Biso   1.000  H
  H8       1.0000 0.65437  0.31764  0.53699  Biso   1.000  H
  C19      1.0000 0.96376  0.44844  0.79420  Biso   1.000  C
  H9       1.0000 0.98215  0.37384  0.70560  Biso   1.000  H
  H10      1.0000 0.85539  0.35002  0.71197  Biso   1.000  H
  H11      1.0000 0.05302  0.55141  0.69188  Biso   1.000  H
  H12      1.0000 0.55490  0.83769  0.67779  Biso   1.000  H
  C20      1.0000 0.68251  0.71985  0.81041  Biso   1.000  C
  H13      1.0000 0.53813  0.76636  0.77841  Biso   1.000  H
  H14      1.0000 0.51530  0.65286  0.77121  Biso   1.000  H
  H15      1.0000 0.51145  0.40377  0.67080  Biso   1.000  H
  H16      1.0000 0.47625  0.45426  0.60550  Biso   1.000  H
  C21      1.0000 0.38196  0.46664  0.67391  Biso   1.000  C
  O3       1.0000 0.51034  0.22407  0.58831  Biso   1.000  O
  H17      1.0000 0.63274  0.16373  0.57102  Biso   1.000  H
  H18      1.0000 0.65671  0.21614  0.64942  Biso   1.000  H
  C22      1.0000 0.89005  0.48092  0.82719  Biso   1.000  C
  C23      1.0000 0.07507  0.46347  0.83081  Biso   1.000  C
  C24      1.0000 0.70634  0.65212  0.85060  Biso   1.000  C
  C25      1.0000 0.76973  0.79504  0.81191  Biso   1.000  C
  O4       1.0000 0.36648  0.51111  0.72228  Biso   1.000  O
  O5       1.0000 0.29671  0.39537  0.63171  Biso   1.000  O
  O6       1.0000 0.30805  0.42072  0.61731  Biso   1.000  O
  C26      1.0000 0.43401  0.14245  0.58930  Biso   1.000  C
  C27      1.0000 0.92327  0.53034  0.89471  Biso   1.000  C
  O7       1.0000 0.77858  0.46545  0.78934  Biso   1.000  O
  H19      1.0000 0.12736  0.44174  0.80922  Biso   1.000  H
  C28      1.0000 0.11025  0.50961  0.89839  Biso   1.000  C
  C29      1.0000 0.81515  0.65582  0.88907  Biso   1.000  C
  O8       1.0000 0.61980  0.57700  0.85236  Biso   1.000  O
  C30      1.0000 0.87718  0.80381  0.85168  Biso   1.000  C
  H20      1.0000 0.75508  0.84231  0.78457  Biso   1.000  H
  C31      1.0000 0.18251  0.39954  0.64667  Biso   1.000  C
  C32      1.0000 0.18691  0.38052  0.62378  Biso   1.000  C
  C33      1.0000 0.32201  0.14262  0.56718  Biso   1.000  C
  C34      1.0000 0.46372  0.06341  0.61218  Biso   1.000  C
  C35      1.0000 0.84487  0.57690  0.92641  Biso   1.000  C
  C36      1.0000 0.03584  0.54294  0.92962  Biso   1.000  C
  C37      1.0000 0.69838  0.39284  0.80528  Biso   1.000  C
  H21      1.0000 0.18650  0.51854  0.92371  Biso   1.000  H
  C38      1.0000 0.89965  0.73370  0.88948  Biso   1.000  C
  C39      1.0000 0.56799  0.60041  0.90538  Biso   1.000  C
  H22      1.0000 0.93539  0.85766  0.85308  Biso   1.000  H
  H23      1.0000 0.17165  0.36693  0.68587  Biso   1.000  H
  H24      1.0000 0.17615  0.46605  0.65687  Biso   1.000  H
  C40      1.0000 0.10663  0.35174  0.58510  Biso   1.000  C
  H25      1.0000 0.18134  0.39547  0.67189  Biso   1.000  H
  C41      1.0000 0.12827  0.43007  0.58029  Biso   1.000  C
  H26      1.0000 0.16163  0.31093  0.60742  Biso   1.000  H
  H27      1.0000 0.30124  0.19704  0.55139  Biso   1.000  H
  C42      1.0000 0.23993  0.06473  0.56791  Biso   1.000  C
  H28      1.0000 0.54082  0.06222  0.62730  Biso   1.000  H
  C43      1.0000 0.38042  0.98561  0.61301  Biso   1.000  C
  H29      1.0000 0.77533  0.52873  0.92351  Biso   1.000  H
  H30      1.0000 0.88179  0.60305  0.97591  Biso   1.000  H
  H31      1.0000 0.06195  0.57519  0.97617  Biso   1.000  H
  H32      1.0000 0.63116  0.37133  0.76531  Biso   1.000  H
  H33      1.0000 0.67426  0.41963  0.84531  Biso   1.000  H
  C44      1.0000 0.74610  0.30834  0.82227  Biso   1.000  C
  H34      1.0000 0.97425  0.73892  0.91631  Biso   1.000  H
  C45      1.0000 0.47098  0.52011  0.90041  Biso   1.000  C
  H35      1.0000 0.54167  0.65942  0.89958  Biso   1.000  H
  H36      1.0000 0.62259  0.61112  0.95131  Biso   1.000  H
  H37      1.0000 0.11867  0.38613  0.54751  Biso   1.000  H
  H38      1.0000 0.02972  0.34793  0.58919  Biso   1.000  H
  H39      1.0000 0.11771  0.28737  0.57511  Biso   1.000  H
  H40      1.0000 0.09867  0.39158  0.53378  Biso   1.000  H
  H41      1.0000 0.17854  0.48990  0.57821  Biso   1.000  H
  H42      1.0000 0.06565  0.44384  0.59789  Biso   1.000  H
  H43      1.0000 0.16301  0.06574  0.55170  Biso   1.000  H
  C46      1.0000 0.26785  0.98431  0.59178  Biso   1.000  C
  H44      1.0000 0.40182  0.93132  0.62870  Biso   1.000  H
  O9       1.0000 0.77284  0.30869  0.88933  Biso   1.000  O
  O10      1.0000 0.75704  0.24917  0.78027  Biso   1.000  O
  O11      1.0000 0.51507  0.44125  0.91931  Biso   1.000  O
  H45      1.0000 0.42614  0.53803  0.93200  Biso   1.000  H
  H46      1.0000 0.42175  0.50334  0.85261  Biso   1.000  H
  C47      1.0000 0.17535  0.89459  0.58728  Biso   1.000  C
  C48      1.0000 0.82992  0.23601  0.91211  Biso   1.000  C
  C49      1.0000 0.44075  0.35854  0.91952  Biso   1.000  C
  C50      1.0000 0.21521  0.83150  0.63730  Biso   1.000  C
  C51      1.0000 0.06968  0.91812  0.60048  Biso   1.000  C
  C52      1.0000 0.14676  0.83939  0.51400  Biso   1.000  C
  H47      1.0000 0.91247  0.26171  0.92532  Biso   1.000  H
  H48      1.0000 0.81094  0.18083  0.87421  Biso   1.000  H
  C53      1.0000 0.79269  0.20620  0.97208  Biso   1.000  C
  C54      1.0000 0.48815  0.28334  0.93521  Biso   1.000  C
  C55      1.0000 0.32602  0.34704  0.90528  Biso   1.000  C
  C56      1.0000 0.26219  0.75671  0.63067  Biso   1.000  C
  N1       1.0000 0.20638  0.84551  0.70457  Biso   1.000  N
  C57      1.0000 0.96016  0.87325  0.57531  Biso   1.000  C
  N2       1.0000 0.07318  0.99130  0.65309  Biso   1.000  N
  H49      1.0000 0.21568  0.82765  0.50349  Biso   1.000  H
  H50      1.0000 0.11279  0.87672  0.48112  Biso   1.000  H
  H51      1.0000 0.09359  0.77865  0.51012  Biso   1.000  H
  H52      1.0000 0.83354  0.15985  0.99020  Biso   1.000  H
  H53      1.0000 0.71170  0.17702  0.95779  Biso   1.000  H
  H54      1.0000 0.80795  0.26199  0.00838  Biso   1.000  H
  C58      1.0000 0.41862  0.19710  0.93681  Biso   1.000  C
  H55      1.0000 0.56732  0.29066  0.94479  Biso   1.000  H
  C59      1.0000 0.25734  0.25981  0.90807  Biso   1.000  C
  H56      1.0000 0.29332  0.39830  0.89337  Biso   1.000  H
  C60      1.0000 0.28299  0.72473  0.69509  Biso   1.000  C
  H57      1.0000 0.27845  0.73011  0.58992  Biso   1.000  H
  C61      1.0000 0.24727  0.77991  0.74097  Biso   1.000  C
  H58      1.0000 0.17841  0.89060  0.72202  Biso   1.000  H
  H59      1.0000 0.93126  0.81989  0.53891  Biso   1.000  H
  C62      1.0000 0.89538  0.91691  0.61079  Biso   1.000  C
  H60      1.0000 0.13459  0.03165  0.67898  Biso   1.000  H
  C63      1.0000 0.96571  0.99055  0.65822  Biso   1.000  C
  C64      1.0000 0.30323  0.18310  0.92361  Biso   1.000  C
  H61      1.0000 0.45169  0.14563  0.94727  Biso   1.000  H
  H62      1.0000 0.17832  0.25289  0.89927  Biso   1.000  H
  H63      1.0000 0.31649  0.67311  0.70488  Biso   1.000  H
  C65      1.0000 0.23713  0.77030  0.81217  Biso   1.000  C
  H64      1.0000 0.81609  0.89824  0.60302  Biso   1.000  H
  C66      1.0000 0.94190  0.06635  0.70741  Biso   1.000  C
  C67      1.0000 0.22683  0.09033  0.93200  Biso   1.000  C
  C68      1.0000 0.28050  0.86070  0.86349  Biso   1.000  C
  C69      1.0000 0.11169  0.73228  0.81067  Biso   1.000  C
  C70      1.0000 0.30175  0.69759  0.83900  Biso   1.000  C
  C71      1.0000 0.98231  0.05946  0.78302  Biso   1.000  C
  C72      1.0000 0.81382  0.05494  0.68970  Biso   1.000  C
  C73      1.0000 0.99762  0.16526  0.69649  Biso   1.000  C
  C74      1.0000 0.27327  0.00374  0.91848  Biso   1.000  C
  C75      1.0000 0.11052  0.07532  0.88539  Biso   1.000  C
  C76      1.0000 0.22174  0.10315  0.00791  Biso   1.000  C
  C77      1.0000 0.36623  0.88732  0.92092  Biso   1.000  C
  N3       1.0000 0.22335  0.93256  0.86214  Biso   1.000  N
  H65      1.0000 0.06639  0.77276  0.78789  Biso   1.000  H
  H66      1.0000 0.10475  0.73299  0.85821  Biso   1.000  H
  H67      1.0000 0.08479  0.66687  0.78499  Biso   1.000  H
  H68      1.0000 0.27195  0.63651  0.80730  Biso   1.000  H
  H69      1.0000 0.29308  0.68905  0.88508  Biso   1.000  H
  H70      1.0000 0.38172  0.72046  0.84169  Biso   1.000  H
  N4       1.0000 0.09475  0.07572  0.81590  Biso   1.000  N
  C78      1.0000 0.92642  0.04675  0.83221  Biso   1.000  C
  H71      1.0000 0.77771  0.99200  0.69669  Biso   1.000  H
  H72      1.0000 0.78619  0.06143  0.64118  Biso   1.000  H
  H73      1.0000 0.79582  0.10421  0.71979  Biso   1.000  H
  H74      1.0000 0.07905  0.17157  0.70508  Biso   1.000  H
  H75      1.0000 0.98311  0.21412  0.72870  Biso   1.000  H
  H76      1.0000 0.96649  0.17314  0.64879  Biso   1.000  H
  C79      1.0000 0.36303  0.97576  0.95649  Biso   1.000  C
  C80      1.0000 0.00624  0.05671  0.89570  Biso   1.000  C
  H77      1.0000 0.19107  0.15852  0.01811  Biso   1.000  H
  H78      1.0000 0.29763  0.11317  0.03841  Biso   1.000  H
  H79      1.0000 0.17325  0.04610  0.01578  Biso   1.000  H
  H80      1.0000 0.42082  0.85201  0.93531  Biso   1.000  H
  H81      1.0000 0.16312  0.93271  0.82957  Biso   1.000  H
  H82      1.0000 0.14918  0.08525  0.79508  Biso   1.000  H
  H83      1.0000 0.84713  0.03334  0.82501  Biso   1.000  H
  H84      1.0000 0.41351  0.00952  0.99901  Biso   1.000  H
  H85      1.0000 0.98984  0.05123  0.93899  Biso   1.000  H
  C81      1.0000 0.36214  0.46764  0.44399  Biso   1.000  C
  C82      1.0000 0.40232  0.38578  0.41220  Biso   1.000  C
  C83      1.0000 0.24201  0.46344  0.40427  Biso   1.000  C
  H86      1.0000 0.36532  0.46353  0.49308  Biso   1.000  H
  H87      1.0000 0.41195  0.52884  0.44239  Biso   1.000  H
  C84      1.0000 0.42260  0.38074  0.34638  Biso   1.000  C
  C85      1.0000 0.40906  0.30799  0.44482  Biso   1.000  C
  C86      1.0000 0.21552  0.53389  0.36699  Biso   1.000  C
  C87      1.0000 0.15568  0.38770  0.40401  Biso   1.000  C
  C88      1.0000 0.43322  0.29718  0.31039  Biso   1.000  C
  O12      1.0000 0.42067  0.45809  0.31220  Biso   1.000  O
  C89      1.0000 0.42800  0.22675  0.41240  Biso   1.000  C
  H88      1.0000 0.40040  0.31079  0.49049  Biso   1.000  H
  C90      1.0000 0.10534  0.52736  0.32810  Biso   1.000  C
  O13      1.0000 0.30068  0.61147  0.36616  Biso   1.000  O
  H89      1.0000 0.17261  0.33819  0.42840  Biso   1.000  H
  C91      1.0000 0.04536  0.38156  0.36942  Biso   1.000  C
  C92      1.0000 0.43352  0.28965  0.23520  Biso   1.000  C
  C93      1.0000 0.43676  0.22009  0.34508  Biso   1.000  C
  C94      1.0000 0.51091  0.53845  0.34358  Biso   1.000  C
  H90      1.0000 0.43513  0.17495  0.43628  Biso   1.000  H
  C95      1.0000 0.07704  0.59780  0.28129  Biso   1.000  C
  C96      1.0000 0.02276  0.45206  0.33209  Biso   1.000  C
  C97      1.0000 0.30851  0.69220  0.41629  Biso   1.000  C
  H91      1.0000 0.98663  0.33028  0.37118  Biso   1.000  H
  C98      1.0000 0.31765  0.28006  0.18958  Biso   1.000  C
  H92      1.0000 0.46203  0.23355  0.22158  Biso   1.000  H
  H93      1.0000 0.48478  0.34705  0.22878  Biso   1.000  H
  H94      1.0000 0.44520  0.16229  0.32220  Biso   1.000  H
  H95      1.0000 0.48865  0.59621  0.32919  Biso   1.000  H
  H96      1.0000 0.52383  0.54565  0.39449  Biso   1.000  H
  C99      1.0000 0.61812  0.53326  0.32608  Biso   1.000  C
  C100     1.0000 0.03632  0.55147  0.20579  Biso   1.000  C
  H97      1.0000 0.01793  0.62607  0.29439  Biso   1.000  H
  H98      1.0000 0.14470  0.64989  0.28802  Biso   1.000  H
  H99      1.0000 0.94706  0.44850  0.30811  Biso   1.000  H
  H100     1.0000 0.23207  0.69994  0.41639  Biso   1.000  H
  H101     1.0000 0.34580  0.68227  0.46300  Biso   1.000  H
  C101     1.0000 0.37399  0.77918  0.39972  Biso   1.000  C
  C102     1.0000 0.23043  0.20487  0.18808  Biso   1.000  C
  C103     1.0000 0.29375  0.34778  0.14940  Biso   1.000  C
  O14      1.0000 0.63368  0.48880  0.27771  Biso   1.000  O
  O15      1.0000 0.70337  0.60454  0.36828  Biso   1.000  O
  O16      1.0000 0.69203  0.57919  0.38268  Biso   1.000  O
  C104     1.0000 0.11003  0.51899  0.17280  Biso   1.000  C
  C105     1.0000 0.92503  0.53651  0.16918  Biso   1.000  C
  H102     1.0000 0.36734  0.83618  0.42897  Biso   1.000  H
  H103     1.0000 0.34338  0.78377  0.35057  Biso   1.000  H
  O17      1.0000 0.48976  0.77591  0.41168  Biso   1.000  O
  C106     1.0000 0.12290  0.19610  0.14831  Biso   1.000  C
  H104     1.0000 0.24500  0.15760  0.21542  Biso   1.000  H
  C107     1.0000 0.18493  0.34409  0.11092  Biso   1.000  C
  O18      1.0000 0.38031  0.42298  0.14763  Biso   1.000  O
  C108     1.0000 0.81757  0.60037  0.35332  Biso   1.000  C
  C109     1.0000 0.81318  0.61939  0.37621  Biso   1.000  C
  C110     1.0000 0.07682  0.46957  0.10528  Biso   1.000  C
  O19      1.0000 0.22151  0.53446  0.21066  Biso   1.000  O
  C111     1.0000 0.88984  0.49030  0.10160  Biso   1.000  C
  H105     1.0000 0.87274  0.55818  0.19082  Biso   1.000  H
  C112     1.0000 0.56608  0.85746  0.41069  Biso   1.000  C
  C113     1.0000 0.10044  0.26621  0.11051  Biso   1.000  C
  H106     1.0000 0.06472  0.14232  0.14691  Biso   1.000  H
  C114     1.0000 0.15522  0.42301  0.07358  Biso   1.000  C
  C115     1.0000 0.43217  0.39950  0.09461  Biso   1.000  C
  H107     1.0000 0.82851  0.63298  0.31412  Biso   1.000  H
  H108     1.0000 0.82394  0.53385  0.34312  Biso   1.000  H
  C116     1.0000 0.89345  0.64817  0.41489  Biso   1.000  C
  H109     1.0000 0.81876  0.60451  0.32810  Biso   1.000  H
  C117     1.0000 0.87189  0.56984  0.41970  Biso   1.000  C
  H110     1.0000 0.83847  0.68899  0.39262  Biso   1.000  H
  C118     1.0000 0.96424  0.45697  0.07037  Biso   1.000  C
  C119     1.0000 0.30178  0.60707  0.19471  Biso   1.000  C
  H111     1.0000 0.81366  0.48137  0.07628  Biso   1.000  H
  C120     1.0000 0.67808  0.85729  0.43281  Biso   1.000  C
  C121     1.0000 0.53644  0.93650  0.38781  Biso   1.000  C
  H112     1.0000 0.02584  0.26099  0.08368  Biso   1.000  H
  H113     1.0000 0.22475  0.47118  0.07648  Biso   1.000  H
  H114     1.0000 0.11831  0.39693  0.02408  Biso   1.000  H
  C122     1.0000 0.52911  0.47980  0.09958  Biso   1.000  C
  H115     1.0000 0.45841  0.34048  0.10041  Biso   1.000  H
  H116     1.0000 0.37749  0.38879  0.04868  Biso   1.000  H
  H117     1.0000 0.88150  0.61378  0.45248  Biso   1.000  H
  H118     1.0000 0.97036  0.65198  0.41080  Biso   1.000  H
  H119     1.0000 0.88237  0.71254  0.42488  Biso   1.000  H
  H120     1.0000 0.90151  0.60840  0.46621  Biso   1.000  H
  H121     1.0000 0.82156  0.51008  0.42178  Biso   1.000  H
  H122     1.0000 0.93444  0.55607  0.40210  Biso   1.000  H
  H123     1.0000 0.93814  0.42471  0.02382  Biso   1.000  H
  H124     1.0000 0.36892  0.62858  0.23468  Biso   1.000  H
  H125     1.0000 0.32583  0.58028  0.15468  Biso   1.000  H
  C123     1.0000 0.25399  0.69157  0.17772  Biso   1.000  C
  H126     1.0000 0.69885  0.80287  0.44860  Biso   1.000  H
  C124     1.0000 0.76016  0.93518  0.43208  Biso   1.000  C
  H127     1.0000 0.45926  0.93769  0.37269  Biso   1.000  H
  C125     1.0000 0.61966  0.01430  0.38698  Biso   1.000  C
  H128     1.0000 0.57395  0.46188  0.06799  Biso   1.000  H
  H129     1.0000 0.57833  0.49656  0.14738  Biso   1.000  H
  O20      1.0000 0.48509  0.55865  0.08068  Biso   1.000  O
  O21      1.0000 0.22725  0.69122  0.11066  Biso   1.000  O
  O22      1.0000 0.24306  0.75081  0.21972  Biso   1.000  O
  H130     1.0000 0.83708  0.93417  0.44829  Biso   1.000  H
  C126     1.0000 0.73223  0.01560  0.40821  Biso   1.000  C
  H131     1.0000 0.59834  0.06859  0.37129  Biso   1.000  H
  C127     1.0000 0.55936  0.64138  0.08052  Biso   1.000  C
  C128     1.0000 0.17017  0.76390  0.08788  Biso   1.000  C
  C129     1.0000 0.82474  0.10532  0.41271  Biso   1.000  C
  C130     1.0000 0.51193  0.71657  0.06478  Biso   1.000  C
  C131     1.0000 0.67406  0.65287  0.09471  Biso   1.000  C
  H132     1.0000 0.08771  0.73821  0.07472  Biso   1.000  H
  H133     1.0000 0.18915  0.81908  0.12578  Biso   1.000  H
  C132     1.0000 0.20740  0.79370  0.02791  Biso   1.000  C
  C133     1.0000 0.93041  0.08179  0.39951  Biso   1.000  C
  C134     1.0000 0.78495  0.16840  0.36269  Biso   1.000  C
  C135     1.0000 0.85332  0.16051  0.48599  Biso   1.000  C
  C136     1.0000 0.58147  0.80281  0.06318  Biso   1.000  C
  H134     1.0000 0.43279  0.70932  0.05520  Biso   1.000  H
  H135     1.0000 0.70677  0.60161  0.10662  Biso   1.000  H
  C137     1.0000 0.74275  0.74010  0.09192  Biso   1.000  C
  H136     1.0000 0.16656  0.84013  0.00979  Biso   1.000  H
  H137     1.0000 0.28839  0.82289  0.04220  Biso   1.000  H
  H138     1.0000 0.19214  0.73792  0.99161  Biso   1.000  H
  N5       1.0000 0.92690  0.00861  0.34690  Biso   1.000  N
  C138     1.0000 0.03994  0.12673  0.42468  Biso   1.000  C
  N6       1.0000 0.79370  0.15440  0.29542  Biso   1.000  N
  C139     1.0000 0.73797  0.24320  0.36932  Biso   1.000  C
  H139     1.0000 0.78442  0.17233  0.49650  Biso   1.000  H
  H140     1.0000 0.88732  0.12320  0.51892  Biso   1.000  H
  H141     1.0000 0.90651  0.22133  0.48987  Biso   1.000  H
  C140     1.0000 0.69686  0.81680  0.07638  Biso   1.000  C
  H142     1.0000 0.54841  0.85435  0.05272  Biso   1.000  H
  H143     1.0000 0.82177  0.74702  0.10072  Biso   1.000  H
  C141     1.0000 0.03442  0.00944  0.34182  Biso   1.000  C
  H144     1.0000 0.86549  0.96826  0.32101  Biso   1.000  H
  C142     1.0000 0.10470  0.08300  0.38920  Biso   1.000  C
  H145     1.0000 0.06882  0.18002  0.46108  Biso   1.000  H
  C143     1.0000 0.75281  0.22000  0.25902  Biso   1.000  C
  H146     1.0000 0.82167  0.10931  0.27797  Biso   1.000  H
  C144     1.0000 0.71711  0.27524  0.30490  Biso   1.000  C
  H147     1.0000 0.72163  0.26980  0.41007  Biso   1.000  H
  C145     1.0000 0.77326  0.90958  0.06799  Biso   1.000  C
  C146     1.0000 0.05818  0.93356  0.29258  Biso   1.000  C
  H148     1.0000 0.18401  0.10174  0.39697  Biso   1.000  H
  C147     1.0000 0.76296  0.22961  0.18782  Biso   1.000  C
  H149     1.0000 0.68368  0.32680  0.29511  Biso   1.000  H
  C148     1.0000 0.88956  0.92459  0.11460  Biso   1.000  C
  C149     1.0000 0.72683  0.99624  0.08151  Biso   1.000  C
  C150     1.0000 0.77835  0.89676  0.99208  Biso   1.000  C
  C151     1.0000 0.01779  0.94052  0.21697  Biso   1.000  C
  C152     1.0000 0.18627  0.94497  0.31029  Biso   1.000  C
  C153     1.0000 0.00248  0.83472  0.30350  Biso   1.000  C
  C154     1.0000 0.71958  0.13921  0.13650  Biso   1.000  C
  C155     1.0000 0.88847  0.26763  0.18932  Biso   1.000  C
  C156     1.0000 0.69833  0.30232  0.16099  Biso   1.000  C
  C157     1.0000 0.99392  0.94320  0.10429  Biso   1.000  C
  N7       1.0000 0.90542  0.92419  0.18409  Biso   1.000  N
  C158     1.0000 0.63714  0.02415  0.04350  Biso   1.000  C
  N8       1.0000 0.77674  0.06735  0.13785  Biso   1.000  N
  H150     1.0000 0.80903  0.84146  0.98188  Biso   1.000  H
  H151     1.0000 0.70245  0.88674  0.96158  Biso   1.000  H
  H152     1.0000 0.82686  0.95388  0.98421  Biso   1.000  H
  C159     1.0000 0.07368  0.95323  0.16778  Biso   1.000  C
  H153     1.0000 0.21390  0.93848  0.35881  Biso   1.000  H
  H154     1.0000 0.20426  0.89570  0.28020  Biso   1.000  H
  H155     1.0000 0.22238  0.00791  0.30330  Biso   1.000  H
  H156     1.0000 0.92113  0.82841  0.29491  Biso   1.000  H
  H157     1.0000 0.01698  0.78579  0.27129  Biso   1.000  H
  H158     1.0000 0.03360  0.82677  0.35120  Biso   1.000  H
  C160     1.0000 0.63390  0.11267  0.07913  Biso   1.000  C
  H159     1.0000 0.93378  0.22715  0.21211  Biso   1.000  H
  H160     1.0000 0.89533  0.26692  0.14178  Biso   1.000  H
  H161     1.0000 0.91538  0.33304  0.21500  Biso   1.000  H
  H162     1.0000 0.72816  0.36347  0.19269  Biso   1.000  H
  H163     1.0000 0.70708  0.31086  0.11491  Biso   1.000  H
  H164     1.0000 0.61836  0.27945  0.15830  Biso   1.000  H
  H165     1.0000 0.01032  0.94868  0.06100  Biso   1.000  H
  H166     1.0000 0.85093  0.91473  0.20491  Biso   1.000  H
  H167     1.0000 0.58657  0.99039  0.00098  Biso   1.000  H
  H168     1.0000 0.83706  0.06727  0.17042  Biso   1.000  H
  H169     1.0000 0.15295  0.96657  0.17498  Biso   1.000  H
  H170     1.0000 0.57936  0.14797  0.06468  Biso   1.000  H
