data_image0
_cell_length_a       21.29
_cell_length_b       10.33
_cell_length_c       15.1
_cell_angle_alpha    90
_cell_angle_beta     112.3
_cell_angle_gamma    90

_symmetry_space_group_name_H-M    "P 1"
_symmetry_int_tables_number       1

loop_
  _symmetry_equiv_pos_as_xyz
  'x, y, z'

loop_
  _atom_site_label
  _atom_site_occupancy
  _atom_site_fract_x
  _atom_site_fract_y
  _atom_site_fract_z
  _atom_site_thermal_displace_type
  _atom_site_B_iso_or_equiv
  _atom_site_type_symbol
  C1       1.0000 0.60300  0.27599  0.38287  Biso   1.000  C
  C2       1.0000 0.57080  0.29371  0.27407  Biso   1.000  C
  C3       1.0000 0.67819  0.28742  0.42002  Biso   1.000  C
  O1       1.0000 0.58551  0.15121  0.40972  Biso   1.000  O
  H1       1.0000 0.58249  0.34927  0.41559  Biso   1.000  H
  O2       1.0000 0.49719  0.29690  0.24473  Biso   1.000  O
  C4       1.0000 0.59630  0.41239  0.24559  Biso   1.000  C
  H2       1.0000 0.58420  0.20968  0.23850  Biso   1.000  H
  O3       1.0000 0.69843  0.40242  0.38703  Biso   1.000  O
  O4       1.0000 0.70521  0.17696  0.38881  Biso   1.000  O
  H3       1.0000 0.69801  0.28867  0.49890  Biso   1.000  H
  C5       1.0000 0.67379  0.40958  0.28309  Biso   1.000  C
  O5       1.0000 0.56919  0.41500  0.14173  Biso   1.000  O
  H4       1.0000 0.57859  0.49777  0.27300  Biso   1.000  H
  C6       1.0000 0.75479  0.08103  0.46240  Biso   1.000  C
  C7       1.0000 0.70947  0.52536  0.25947  Biso   1.000  C
  H5       1.0000 0.69021  0.32352  0.25561  Biso   1.000  H
  C8       1.0000 0.54070  0.53253  0.09362  Biso   1.000  C
  C9       1.0000 0.82661  0.13514  0.47027  Biso   1.000  C
  H6       1.0000 0.75020  0.11142  0.53190  Biso   1.000  H
  C10      1.0000 0.73708  0.96012  0.43012  Biso   1.000  C
  O6       1.0000 0.77162  0.50252  0.28059  Biso   1.000  O
  H7       1.0000 0.68710  0.52352  0.17773  Biso   1.000  H
  C11      1.0000 0.47039  0.50145  0.01897  Biso   1.000  C
  O7       1.0000 0.58251  0.58529  0.04932  Biso   1.000  O
  H8       1.0000 0.53561  0.60029  0.14609  Biso   1.000  H
  C12      1.0000 0.84919  0.26225  0.51630  Biso   1.000  C
  O8       1.0000 0.87399  0.04143  0.53183  Biso   1.000  O
  H9       1.0000 0.82902  0.13243  0.39912  Biso   1.000  H
  C13      1.0000 0.79117  0.87096  0.49897  Biso   1.000  C
  O9       1.0000 0.67171  0.93098  0.43190  Biso   1.000  O
  H10      1.0000 0.73640  0.94802  0.35761  Biso   1.000  H
  O10      1.0000 0.43001  0.44288  0.06492  Biso   1.000  O
  C14      1.0000 0.47638  0.41220  0.94138  Biso   1.000  C
  H11      1.0000 0.44632  0.59090  0.98483  Biso   1.000  H
  C15      1.0000 0.59419  0.49874  0.98017  Biso   1.000  C
  O11      1.0000 0.84449  0.26525  0.60827  Biso   1.000  O
  H12      1.0000 0.81879  0.34046  0.46948  Biso   1.000  H
  H13      1.0000 0.90288  0.28015  0.52467  Biso   1.000  H
  C16      1.0000 0.86010  0.91258  0.50169  Biso   1.000  C
  O12      1.0000 0.77771  0.73843  0.46991  Biso   1.000  O
  H14      1.0000 0.78989  0.88161  0.56998  Biso   1.000  H
  C17      1.0000 0.52539  0.47231  0.90043  Biso   1.000  C
  O13      1.0000 0.41142  0.39894  0.86529  Biso   1.000  O
  H15      1.0000 0.49541  0.31897  0.97352  Biso   1.000  H
  H16      1.0000 0.62009  0.40649  0.01618  Biso   1.000  H
  C18      1.0000 0.63959  0.57764  0.94202  Biso   1.000  C
  O14      1.0000 0.86071  0.89419  0.40900  Biso   1.000  O
  H17      1.0000 0.89980  0.84860  0.55180  Biso   1.000  H
  O15      1.0000 0.53379  0.37590  0.83687  Biso   1.000  O
  H18      1.0000 0.50500  0.56225  0.86307  Biso   1.000  H
  O16      1.0000 0.70432  0.58790  0.01482  Biso   1.000  O
  H19      1.0000 0.64458  0.52836  0.87839  Biso   1.000  H
  H20      1.0000 0.61561  0.67318  0.91454  Biso   1.000  H
  C19      1.0000 0.91921  0.83330  0.40020  Biso   1.000  C
  C20      1.0000 0.51449  0.41346  0.73988  Biso   1.000  C
  C21      1.0000 0.89469  0.70678  0.34852  Biso   1.000  C
  C22      1.0000 0.94569  0.92246  0.34150  Biso   1.000  C
  H21      1.0000 0.95890  0.81413  0.46998  Biso   1.000  H
  C23      1.0000 0.47568  0.29932  0.67840  Biso   1.000  C
  O17      1.0000 0.57131  0.44337  0.71748  Biso   1.000  O
  H22      1.0000 0.48049  0.49826  0.72628  Biso   1.000  H
  C24      1.0000 0.95021  0.64618  0.32182  Biso   1.000  C
  O18      1.0000 0.87502  0.61985  0.40771  Biso   1.000  O
  H23      1.0000 0.85081  0.72672  0.28338  Biso   1.000  H
  C25      1.0000 0.98221  0.04259  0.40163  Biso   1.000  C
  O19      1.0000 0.99531  0.85808  0.31609  Biso   1.000  O
  H24      1.0000 0.90390  0.95721  0.27787  Biso   1.000  H
  C26      1.0000 0.52220  0.18122  0.69522  Biso   1.000  C
  O20      1.0000 0.41720  0.26844  0.70037  Biso   1.000  O
  H25      1.0000 0.45878  0.32565  0.60388  Biso   1.000  H
  C27      1.0000 0.62057  0.33766  0.73437  Biso   1.000  C
  C28      1.0000 0.97199  0.74569  0.26262  Biso   1.000  C
  O21      1.0000 0.92589  0.53078  0.26792  Biso   1.000  O
  H26      1.0000 0.99351  0.62227  0.38688  Biso   1.000  H
  H27      1.0000 0.94878  0.09080  0.43169  Biso   1.000  H
  O22      1.0000 0.00170  0.12885  0.34472  Biso   1.000  O
  H28      1.0000 0.02761  0.00891  0.46333  Biso   1.000  H
  C29      1.0000 0.58549  0.21810  0.67782  Biso   1.000  C
  O23      1.0000 0.48728  0.07822  0.63108  Biso   1.000  O
  H29      1.0000 0.53741  0.14850  0.77023  Biso   1.000  H
  C30      1.0000 0.67530  0.39138  0.70281  Biso   1.000  C
  H30      1.0000 0.64250  0.31404  0.81132  Biso   1.000  H
  O24      1.0000 0.91400  0.77251  0.17802  Biso   1.000  O
  H31      1.0000 0.01229  0.70591  0.24322  Biso   1.000  H
  O25      1.0000 0.63089  0.11162  0.71039  Biso   1.000  O
  H32      1.0000 0.57239  0.23437  0.60088  Biso   1.000  H
  O26      1.0000 0.64611  0.42449  0.60360  Biso   1.000  O
  H33      1.0000 0.71541  0.31917  0.71397  Biso   1.000  H
  H34      1.0000 0.69891  0.47754  0.74532  Biso   1.000  H
  C31      1.0000 0.91812  0.74560  0.08861  Biso   1.000  C
  C32      1.0000 0.66018  0.06157  0.64819  Biso   1.000  C
  C33      1.0000 0.85548  0.67028  0.02899  Biso   1.000  C
  C34      1.0000 0.91999  0.87076  0.03693  Biso   1.000  C
  H35      1.0000 0.96340  0.68916  0.09821  Biso   1.000  H
  C35      1.0000 0.65279  0.91394  0.64411  Biso   1.000  C
  O27      1.0000 0.73032  0.09439  0.67983  Biso   1.000  O
  H36      1.0000 0.63323  0.10116  0.57633  Biso   1.000  H
  C36      1.0000 0.85611  0.64724  0.93028  Biso   1.000  C
  O28      1.0000 0.85300  0.54869  0.07251  Biso   1.000  O
  H37      1.0000 0.81021  0.72643  0.02083  Biso   1.000  H
  O29      1.0000 0.92011  0.84443  0.94331  Biso   1.000  O
  C37      1.0000 0.98401  0.95363  0.08912  Biso   1.000  C
  H38      1.0000 0.87488  0.92672  0.02727  Biso   1.000  H
  C38      1.0000 0.69371  0.85644  0.74189  Biso   1.000  C
  O30      1.0000 0.58089  0.88500  0.61362  Biso   1.000  O
  H39      1.0000 0.67191  0.87628  0.59071  Biso   1.000  H
  C39      1.0000 0.77077  0.04743  0.77517  Biso   1.000  C
  C40      1.0000 0.86129  0.77502  0.88268  Biso   1.000  C
  O31      1.0000 0.79567  0.57957  0.86908  Biso   1.000  O
  H40      1.0000 0.90001  0.58538  0.93859  Biso   1.000  H
  H41      1.0000 0.98387  0.03601  0.04567  Biso   1.000  H
  H42      1.0000 0.97948  0.98964  0.15568  Biso   1.000  H
  O32      1.0000 0.04421  0.88364  0.11367  Biso   1.000  O
  C41      1.0000 0.76692  0.89923  0.77288  Biso   1.000  C
  O33      1.0000 0.68962  0.71723  0.73523  Biso   1.000  O
  H43      1.0000 0.67438  0.89129  0.79450  Biso   1.000  H
  C42      1.0000 0.84180  0.10029  0.79808  Biso   1.000  C
  H44      1.0000 0.74938  0.08325  0.82657  Biso   1.000  H
  O34      1.0000 0.80219  0.84850  0.86729  Biso   1.000  O
  H45      1.0000 0.86741  0.75440  0.81468  Biso   1.000  H
  H46      1.0000 0.78848  0.85963  0.72228  Biso   1.000  H
  O35      1.0000 0.87151  0.05653  0.73358  Biso   1.000  O
  H47      1.0000 0.83959  0.20668  0.79543  Biso   1.000  H
  H48      1.0000 0.87460  0.07357  0.87159  Biso   1.000  H
  O36      1.0000 0.41448  0.65121  0.59031  Biso   1.000  O
  C43      1.0000 0.39698  0.77599  0.61708  Biso   1.000  C
  C44      1.0000 0.32181  0.78742  0.58000  Biso   1.000  C
  C45      1.0000 0.42917  0.79371  0.72588  Biso   1.000  C
  H49      1.0000 0.41749  0.84927  0.58437  Biso   1.000  H
  O37      1.0000 0.29479  0.67696  0.61121  Biso   1.000  O
  O38      1.0000 0.30161  0.90242  0.61300  Biso   1.000  O
  H50      1.0000 0.30199  0.78867  0.50112  Biso   1.000  H
  C46      1.0000 0.40368  0.91239  0.75437  Biso   1.000  C
  O39      1.0000 0.50280  0.79690  0.75530  Biso   1.000  O
  H51      1.0000 0.41580  0.70968  0.76152  Biso   1.000  H
  C47      1.0000 0.24521  0.58103  0.53763  Biso   1.000  C
  C48      1.0000 0.32620  0.90958  0.71693  Biso   1.000  C
  O40      1.0000 0.43081  0.91500  0.85830  Biso   1.000  O
  H52      1.0000 0.42140  0.99777  0.72702  Biso   1.000  H
  C49      1.0000 0.26291  0.46012  0.56991  Biso   1.000  C
  C50      1.0000 0.17341  0.63514  0.52968  Biso   1.000  C
  H53      1.0000 0.24980  0.61142  0.46812  Biso   1.000  H
  H54      1.0000 0.30979  0.82352  0.74442  Biso   1.000  H
  C51      1.0000 0.29050  0.02536  0.74048  Biso   1.000  C
  C52      1.0000 0.45930  0.03253  0.90640  Biso   1.000  C
  C53      1.0000 0.20881  0.37096  0.50098  Biso   1.000  C
  O41      1.0000 0.32829  0.43098  0.56812  Biso   1.000  O
  H55      1.0000 0.26359  0.44802  0.64242  Biso   1.000  H
  O42      1.0000 0.12601  0.54143  0.46820  Biso   1.000  O
  C54      1.0000 0.15081  0.76225  0.48373  Biso   1.000  C
  H56      1.0000 0.17102  0.63243  0.60090  Biso   1.000  H
  O43      1.0000 0.22841  0.00252  0.71936  Biso   1.000  O
  H57      1.0000 0.31290  0.02352  0.82229  Biso   1.000  H
  C55      1.0000 0.52958  0.00145  0.98098  Biso   1.000  C
  O44      1.0000 0.41749  0.08529  0.95071  Biso   1.000  O
  H58      1.0000 0.46439  0.10029  0.85393  Biso   1.000  H
  C56      1.0000 0.13989  0.41258  0.49833  Biso   1.000  C
  O45      1.0000 0.22228  0.23843  0.53011  Biso   1.000  O
  H59      1.0000 0.21008  0.38161  0.42997  Biso   1.000  H
  O46      1.0000 0.15548  0.76525  0.39168  Biso   1.000  O
  H60      1.0000 0.18119  0.84046  0.53047  Biso   1.000  H
  H61      1.0000 0.09710  0.78015  0.47528  Biso   1.000  H
  O47      1.0000 0.56998  0.94288  0.93510  Biso   1.000  O
  C57      1.0000 0.52360  0.91220  0.05858  Biso   1.000  C
  H62      1.0000 0.55368  0.09090  0.01520  Biso   1.000  H
  C58      1.0000 0.40578  0.99874  0.01978  Biso   1.000  C
  O48      1.0000 0.13929  0.39419  0.59102  Biso   1.000  O
  H63      1.0000 0.10020  0.34860  0.44822  Biso   1.000  H
  C59      1.0000 0.47461  0.97231  0.09959  Biso   1.000  C
  O49      1.0000 0.58862  0.89894  0.13473  Biso   1.000  O
  H64      1.0000 0.50459  0.81897  0.02651  Biso   1.000  H
  H65      1.0000 0.37989  0.90649  0.98378  Biso   1.000  H
  C60      1.0000 0.36041  0.07764  0.05800  Biso   1.000  C
  C61      1.0000 0.08083  0.33330  0.59983  Biso   1.000  C
  O50      1.0000 0.46619  0.87590  0.16308  Biso   1.000  O
  H66      1.0000 0.49498  0.06225  0.13688  Biso   1.000  H
  O51      1.0000 0.29568  0.08790  0.98521  Biso   1.000  O
  H67      1.0000 0.35539  0.02836  0.12156  Biso   1.000  H
  H68      1.0000 0.38439  0.17318  0.08549  Biso   1.000  H
  C62      1.0000 0.10531  0.20678  0.65151  Biso   1.000  C
  C63      1.0000 0.05431  0.42246  0.65852  Biso   1.000  C
  H69      1.0000 0.04108  0.31413  0.52997  Biso   1.000  H
  C64      1.0000 0.48548  0.91346  0.26007  Biso   1.000  C
  C65      1.0000 0.04979  0.14618  0.67821  Biso   1.000  C
  O52      1.0000 0.12498  0.11985  0.59231  Biso   1.000  O
  H70      1.0000 0.14922  0.22672  0.71657  Biso   1.000  H
  C66      1.0000 0.01779  0.54259  0.59840  Biso   1.000  C
  O53      1.0000 0.00469  0.35808  0.68393  Biso   1.000  O
  H71      1.0000 0.09607  0.45721  0.72208  Biso   1.000  H
  C67      1.0000 0.52431  0.79932  0.32163  Biso   1.000  C
  O54      1.0000 0.42871  0.94337  0.28247  Biso   1.000  O
  H72      1.0000 0.51949  0.99826  0.27367  Biso   1.000  H
  C68      1.0000 0.02800  0.24569  0.73740  Biso   1.000  C
  O55      1.0000 0.07411  0.03078  0.73211  Biso   1.000  O
  H73      1.0000 0.00647  0.12227  0.61307  Biso   1.000  H
  H74      1.0000 0.05122  0.59080  0.56833  Biso   1.000  H
  O56      1.0000 0.99830  0.62885  0.65530  Biso   1.000  O
  H75      1.0000 0.97239  0.50891  0.53670  Biso   1.000  H
  C69      1.0000 0.47780  0.68122  0.30481  Biso   1.000  C
  O57      1.0000 0.58278  0.76844  0.29958  Biso   1.000  O
  H76      1.0000 0.54120  0.82565  0.39607  Biso   1.000  H
  C70      1.0000 0.37940  0.83766  0.26558  Biso   1.000  C
  O58      1.0000 0.08600  0.27251  0.82201  Biso   1.000  O
  H77      1.0000 0.98771  0.20591  0.75680  Biso   1.000  H
  C71      1.0000 0.41451  0.71810  0.32220  Biso   1.000  C
  O59      1.0000 0.51270  0.57822  0.36887  Biso   1.000  O
  H78      1.0000 0.46259  0.64850  0.22979  Biso   1.000  H
  C72      1.0000 0.32470  0.89138  0.29722  Biso   1.000  C
  H79      1.0000 0.35749  0.81404  0.18870  Biso   1.000  H
  C73      1.0000 0.08193  0.24560  0.91141  Biso   1.000  C
  O60      1.0000 0.36911  0.61162  0.28963  Biso   1.000  O
  H80      1.0000 0.42759  0.73437  0.39907  Biso   1.000  H
  O61      1.0000 0.35389  0.92449  0.39643  Biso   1.000  O
  H81      1.0000 0.28461  0.81917  0.28598  Biso   1.000  H
  H82      1.0000 0.30109  0.97754  0.25470  Biso   1.000  H
  C74      1.0000 0.14452  0.17028  0.97103  Biso   1.000  C
  C75      1.0000 0.08000  0.37076  0.96309  Biso   1.000  C
  H83      1.0000 0.03660  0.18916  0.90182  Biso   1.000  H
  C76      1.0000 0.33982  0.56157  0.35183  Biso   1.000  C
  O62      1.0000 0.14699  0.04869  0.92751  Biso   1.000  O
  H84      1.0000 0.18979  0.22643  0.97919  Biso   1.000  H
  C77      1.0000 0.14387  0.14724  0.06967  Biso   1.000  C
  C78      1.0000 0.01598  0.45363  0.91091  Biso   1.000  C
  H85      1.0000 0.12509  0.42672  0.97268  Biso   1.000  H
  O63      1.0000 0.07988  0.34443  0.05671  Biso   1.000  O
  C79      1.0000 0.34721  0.41394  0.35591  Biso   1.000  C
  O64      1.0000 0.26968  0.59439  0.32019  Biso   1.000  O
  H86      1.0000 0.36681  0.60116  0.42370  Biso   1.000  H
  C80      1.0000 0.13869  0.27502  0.11727  Biso   1.000  C
  O65      1.0000 0.20430  0.07957  0.13087  Biso   1.000  O
  H87      1.0000 0.09997  0.08538  0.06137  Biso   1.000  H
  H88      1.0000 0.01610  0.53601  0.95429  Biso   1.000  H
  H89      1.0000 0.02050  0.48964  0.84427  Biso   1.000  H
  O66      1.0000 0.95581  0.38364  0.88629  Biso   1.000  O
  C81      1.0000 0.30627  0.35644  0.25806  Biso   1.000  C
  O67      1.0000 0.41911  0.38500  0.38640  Biso   1.000  O
  H90      1.0000 0.32809  0.37628  0.40931  Biso   1.000  H
  C82      1.0000 0.22920  0.54743  0.22478  Biso   1.000  C
  O68      1.0000 0.19781  0.34850  0.13273  Biso   1.000  O
  H91      1.0000 0.13261  0.25440  0.18527  Biso   1.000  H
  C83      1.0000 0.23311  0.39923  0.22707  Biso   1.000  C
  O69      1.0000 0.31038  0.21723  0.26479  Biso   1.000  O
  H92      1.0000 0.32562  0.39129  0.20553  Biso   1.000  H
  C84      1.0000 0.15817  0.60029  0.20188  Biso   1.000  C
  H93      1.0000 0.25060  0.58325  0.17339  Biso   1.000  H
  H94      1.0000 0.21150  0.35963  0.27768  Biso   1.000  H
  O70      1.0000 0.12851  0.55653  0.26637  Biso   1.000  O
  H95      1.0000 0.16041  0.70668  0.20460  Biso   1.000  H
  H96      1.0000 0.12540  0.57357  0.12844  Biso   1.000  H
