data_image0
_cell_length_a       19.21
_cell_length_b       24.62
_cell_length_c       15.707
_cell_angle_alpha    90
_cell_angle_beta     109.97
_cell_angle_gamma    90

_symmetry_space_group_name_H-M    "P 1"
_symmetry_int_tables_number       1

loop_
  _symmetry_equiv_pos_as_xyz
  'x, y, z'

loop_
  _atom_site_label
  _atom_site_occupancy
  _atom_site_fract_x
  _atom_site_fract_y
  _atom_site_fract_z
  _atom_site_thermal_displace_type
  _atom_site_B_iso_or_equiv
  _atom_site_type_symbol
  O1       1.0000 0.51458  0.61621  0.41890  Biso   1.000  O
  C1       1.0000 0.53513  0.66881  0.40542  Biso   1.000  C
  H1       1.0000 0.50419  0.61519  0.46537  Biso   1.000  H
  C2       1.0000 0.55817  0.67701  0.32427  Biso   1.000  C
  H2       1.0000 0.49383  0.69289  0.39993  Biso   1.000  H
  H3       1.0000 0.57579  0.67981  0.45893  Biso   1.000  H
  C3       1.0000 0.50131  0.65711  0.23993  Biso   1.000  C
  H4       1.0000 0.56870  0.71539  0.31797  Biso   1.000  H
  O2       1.0000 0.62641  0.64460  0.34289  Biso   1.000  O
  C4       1.0000 0.53000  0.66089  0.16020  Biso   1.000  C
  H5       1.0000 0.48877  0.61929  0.24799  Biso   1.000  H
  O3       1.0000 0.43702  0.68920  0.21609  Biso   1.000  O
  C5       1.0000 0.65847  0.65122  0.27387  Biso   1.000  C
  C6       1.0000 0.60429  0.62729  0.18520  Biso   1.000  C
  H6       1.0000 0.53939  0.69890  0.14943  Biso   1.000  H
  O4       1.0000 0.47899  0.63721  0.07837  Biso   1.000  O
  C7       1.0000 0.36940  0.66661  0.22151  Biso   1.000  C
  H7       1.0000 0.70408  0.62949  0.29107  Biso   1.000  H
  O5       1.0000 0.67693  0.70431  0.26113  Biso   1.000  O
  H8       1.0000 0.59408  0.58932  0.19543  Biso   1.000  H
  O6       1.0000 0.63419  0.63002  0.11218  Biso   1.000  O
  H9       1.0000 0.43638  0.64289  0.07621  Biso   1.000  H
  H10      1.0000 0.37597  0.62742  0.23180  Biso   1.000  H
  C8       1.0000 0.30872  0.67612  0.12870  Biso   1.000  C
  O7       1.0000 0.35101  0.68851  0.28931  Biso   1.000  O
  C9       1.0000 0.75261  0.71868  0.28010  Biso   1.000  C
  H11      1.0000 0.66539  0.65410  0.12268  Biso   1.000  H
  H12      1.0000 0.26282  0.65979  0.13101  Biso   1.000  H
  O8       1.0000 0.32562  0.65089  0.05690  Biso   1.000  O
  C10      1.0000 0.29522  0.73830  0.11319  Biso   1.000  C
  C11      1.0000 0.33609  0.74829  0.28193  Biso   1.000  C
  C12      1.0000 0.76330  0.74740  0.20227  Biso   1.000  C
  H13      1.0000 0.78322  0.68578  0.29372  Biso   1.000  H
  C13      1.0000 0.77548  0.75690  0.36742  Biso   1.000  C
  H14      1.0000 0.37067  0.64862  0.07038  Biso   1.000  H
  H15      1.0000 0.34000  0.75581  0.10987  Biso   1.000  H
  O9       1.0000 0.23530  0.74760  0.03170  Biso   1.000  O
  C14      1.0000 0.27728  0.76052  0.19231  Biso   1.000  C
  H16      1.0000 0.38167  0.76751  0.28538  Biso   1.000  H
  C15      1.0000 0.31268  0.76539  0.36437  Biso   1.000  C
  C16      1.0000 0.84057  0.76608  0.22767  Biso   1.000  C
  H17      1.0000 0.73019  0.77892  0.18642  Biso   1.000  H
  O10      1.0000 0.74469  0.71170  0.12891  Biso   1.000  O
  H18      1.0000 0.74259  0.78851  0.35739  Biso   1.000  H
  O11      1.0000 0.85370  0.77421  0.38523  Biso   1.000  O
  C17      1.0000 0.77649  0.72518  0.45270  Biso   1.000  C
  H19      1.0000 0.24598  0.73599  0.98869  Biso   1.000  H
  H20      1.0000 0.22959  0.74610  0.19170  Biso   1.000  H
  O12      1.0000 0.27271  0.81860  0.18229  Biso   1.000  O
  H21      1.0000 0.35260  0.75930  0.42120  Biso   1.000  H
  H22      1.0000 0.29858  0.80341  0.36030  Biso   1.000  H
  O13      1.0000 0.24458  0.72790  0.35631  Biso   1.000  O
  C18      1.0000 0.86110  0.80211  0.30848  Biso   1.000  C
  H23      1.0000 0.87299  0.73420  0.24237  Biso   1.000  H
  O14      1.0000 0.85468  0.79610  0.15519  Biso   1.000  O
  H24      1.0000 0.75261  0.72632  0.08623  Biso   1.000  H
  H25      1.0000 0.72670  0.71320  0.44532  Biso   1.000  H
  H26      1.0000 0.79280  0.74911  0.50493  Biso   1.000  H
  O15      1.0000 0.82552  0.67831  0.46869  Biso   1.000  O
  C19      1.0000 0.20688  0.84439  0.18310  Biso   1.000  C
  H27      1.0000 0.22921  0.73461  0.39783  Biso   1.000  H
  H28      1.0000 0.91272  0.81348  0.32311  Biso   1.000  H
  O16      1.0000 0.81537  0.84842  0.28938  Biso   1.000  O
  H29      1.0000 0.85379  0.82880  0.16467  Biso   1.000  H
  H30      1.0000 0.85019  0.67989  0.43529  Biso   1.000  H
  H31      1.0000 0.17031  0.81649  0.18262  Biso   1.000  H
  C20      1.0000 0.17710  0.87819  0.09660  Biso   1.000  C
  O17      1.0000 0.22008  0.87900  0.26337  Biso   1.000  O
  C21      1.0000 0.84772  0.90301  0.31627  Biso   1.000  C
  H32      1.0000 0.13092  0.89472  0.09748  Biso   1.000  H
  O18      1.0000 0.15751  0.84541  0.01748  Biso   1.000  O
  C22      1.0000 0.22782  0.92409  0.09700  Biso   1.000  C
  C23      1.0000 0.27017  0.92210  0.26919  Biso   1.000  C
  C24      1.0000 0.82203  0.93469  0.22672  Biso   1.000  C
  H33      1.0000 0.90188  0.90130  0.34208  Biso   1.000  H
  C25      1.0000 0.81550  0.92790  0.38062  Biso   1.000  C
  H34      1.0000 0.18302  0.81779  0.02811  Biso   1.000  H
  H35      1.0000 0.27450  0.90910  0.09511  Biso   1.000  H
  O19      1.0000 0.19578  0.95780  0.01788  Biso   1.000  O
  C26      1.0000 0.24439  0.95690  0.18581  Biso   1.000  C
  H36      1.0000 0.31903  0.90690  0.27563  Biso   1.000  H
  C27      1.0000 0.27643  0.95479  0.34750  Biso   1.000  C
  C28      1.0000 0.84661  0.99330  0.24969  Biso   1.000  C
  H37      1.0000 0.76789  0.93310  0.19949  Biso   1.000  H
  O20      1.0000 0.85443  0.91458  0.16582  Biso   1.000  O
  H38      1.0000 0.76142  0.92790  0.35380  Biso   1.000  H
  O21      1.0000 0.84101  0.98152  0.39851  Biso   1.000  O
  C29      1.0000 0.83871  0.89870  0.46970  Biso   1.000  C
  H39      1.0000 0.21670  0.98741  0.02608  Biso   1.000  H
  H40      1.0000 0.19959  0.97648  0.18439  Biso   1.000  H
  O22      1.0000 0.29990  0.99529  0.18439  Biso   1.000  O
  H41      1.0000 0.30702  0.98639  0.34913  Biso   1.000  H
  H42      1.0000 0.22771  0.96718  0.34472  Biso   1.000  H
  O23      1.0000 0.31002  0.92141  0.42940  Biso   1.000  O
  H43      1.0000 0.90077  0.99431  0.27549  Biso   1.000  H
  C30      1.0000 0.81472  0.01369  0.32210  Biso   1.000  C
  O24      1.0000 0.82359  0.02640  0.17118  Biso   1.000  O
  H44      1.0000 0.85270  0.88132  0.16542  Biso   1.000  H
  H45      1.0000 0.82061  0.86162  0.46042  Biso   1.000  H
  H46      1.0000 0.81722  0.91641  0.51001  Biso   1.000  H
  O25      1.0000 0.91411  0.89850  0.50838  Biso   1.000  O
  C31      1.0000 0.28630  0.05150  0.18770  Biso   1.000  C
  C32      1.0000 0.36800  0.94070  0.49199  Biso   1.000  C
  H47      1.0000 0.83301  0.05069  0.33910  Biso   1.000  H
  O26      1.0000 0.73613  0.01621  0.28261  Biso   1.000  O
  H48      1.0000 0.78322  0.03989  0.16528  Biso   1.000  H
  H49      1.0000 0.92600  0.88249  0.55708  Biso   1.000  H
  H50      1.0000 0.23368  0.05670  0.17822  Biso   1.000  H
  C33      1.0000 0.30353  0.07799  0.11143  Biso   1.000  C
  O27      1.0000 0.32792  0.07400  0.27129  Biso   1.000  O
  O28      1.0000 0.40061  0.98501  0.49097  Biso   1.000  O
  C34      1.0000 0.41522  0.90719  0.57571  Biso   1.000  C
  C35      1.0000 0.69920  0.06519  0.28457  Biso   1.000  C
  H51      1.0000 0.29449  0.11702  0.11522  Biso   1.000  H
  O29      1.0000 0.25700  0.06068  0.02608  Biso   1.000  O
  C36      1.0000 0.38440  0.07161  0.12552  Biso   1.000  C
  C37      1.0000 0.41048  0.07019  0.29087  Biso   1.000  C
  C38      1.0000 0.37842  0.86300  0.59549  Biso   1.000  C
  C39      1.0000 0.47840  0.92762  0.64128  Biso   1.000  C
  C40      1.0000 0.64497  0.07591  0.19218  Biso   1.000  C
  H52      1.0000 0.73542  0.09480  0.30151  Biso   1.000  H
  C41      1.0000 0.65620  0.06312  0.35373  Biso   1.000  C
  H53      1.0000 0.24187  0.03002  0.03008  Biso   1.000  H
  H54      1.0000 0.39511  0.03282  0.12247  Biso   1.000  H
  O30      1.0000 0.40148  0.09972  0.05338  Biso   1.000  O
  C42      1.0000 0.43261  0.09342  0.21873  Biso   1.000  C
  H55      1.0000 0.42411  0.03168  0.29643  Biso   1.000  H
  C43      1.0000 0.44312  0.09602  0.38482  Biso   1.000  C
  H56      1.0000 0.33611  0.84931  0.55173  Biso   1.000  H
  C44      1.0000 0.40479  0.83920  0.68078  Biso   1.000  C
  C45      1.0000 0.50477  0.90382  0.72657  Biso   1.000  C
  H57      1.0000 0.50312  0.95719  0.62801  Biso   1.000  H
  C46      1.0000 0.59988  0.12620  0.19177  Biso   1.000  C
  H58      1.0000 0.61132  0.04480  0.17382  Biso   1.000  H
  O31      1.0000 0.68401  0.08152  0.12897  Biso   1.000  O
  H59      1.0000 0.62300  0.03160  0.33998  Biso   1.000  H
  O32      1.0000 0.61387  0.11121  0.34757  Biso   1.000  O
  C47      1.0000 0.70791  0.05861  0.44572  Biso   1.000  C
  H60      1.0000 0.44499  0.10930  0.07201  Biso   1.000  H
  H61      1.0000 0.42797  0.13310  0.21927  Biso   1.000  H
  O33      1.0000 0.50700  0.07949  0.23458  Biso   1.000  O
  H62      1.0000 0.49580  0.08851  0.40941  Biso   1.000  H
  H63      1.0000 0.42008  0.07989  0.42499  Biso   1.000  H
  O34      1.0000 0.43172  0.15240  0.38110  Biso   1.000  O
  H64      1.0000 0.38009  0.80959  0.69412  Biso   1.000  H
  C48      1.0000 0.46788  0.85959  0.74642  Biso   1.000  C
  H65      1.0000 0.54709  0.91751  0.77039  Biso   1.000  H
  C49      1.0000 0.56341  0.12189  0.26120  Biso   1.000  C
  H66      1.0000 0.63379  0.15731  0.20769  Biso   1.000  H
  O35      1.0000 0.54621  0.13631  0.10452  Biso   1.000  O
  H67      1.0000 0.72310  0.06458  0.14760  Biso   1.000  H
  H68      1.0000 0.73572  0.02518  0.45060  Biso   1.000  H
  H69      1.0000 0.67968  0.05561  0.48630  Biso   1.000  H
  O36      1.0000 0.75641  0.10000  0.47438  Biso   1.000  O
  H70      1.0000 0.40158  0.15999  0.40569  Biso   1.000  H
  O37      1.0000 0.50680  0.83270  0.82648  Biso   1.000  O
  H71      1.0000 0.53891  0.15650  0.26330  Biso   1.000  H
  H72      1.0000 0.50658  0.12271  0.10168  Biso   1.000  H
  H73      1.0000 0.73659  0.12510  0.49192  Biso   1.000  H
  H74      1.0000 0.48231  0.80690  0.83332  Biso   1.000  H
  O38      1.0000 0.48539  0.61621  0.58113  Biso   1.000  O
  C50      1.0000 0.46490  0.66881  0.59461  Biso   1.000  C
  H75      1.0000 0.49582  0.61519  0.53460  Biso   1.000  H
  C51      1.0000 0.44178  0.67701  0.67570  Biso   1.000  C
  H76      1.0000 0.50620  0.69289  0.60010  Biso   1.000  H
  H77      1.0000 0.42419  0.67981  0.54110  Biso   1.000  H
  C52      1.0000 0.49872  0.65711  0.76010  Biso   1.000  C
  H78      1.0000 0.43131  0.71539  0.68200  Biso   1.000  H
  O39      1.0000 0.37360  0.64460  0.65707  Biso   1.000  O
  C53      1.0000 0.47002  0.66089  0.83983  Biso   1.000  C
  H79      1.0000 0.51118  0.61929  0.75197  Biso   1.000  H
  O40      1.0000 0.56299  0.68920  0.78387  Biso   1.000  O
  C54      1.0000 0.34149  0.65122  0.72609  Biso   1.000  C
  C55      1.0000 0.39568  0.62729  0.81483  Biso   1.000  C
  H80      1.0000 0.46059  0.69890  0.85060  Biso   1.000  H
  O41      1.0000 0.52102  0.63721  0.92159  Biso   1.000  O
  C56      1.0000 0.63062  0.66661  0.77852  Biso   1.000  C
  H81      1.0000 0.29587  0.62949  0.70889  Biso   1.000  H
  O42      1.0000 0.32310  0.70431  0.73890  Biso   1.000  O
  H82      1.0000 0.40589  0.58932  0.80460  Biso   1.000  H
  O43      1.0000 0.36582  0.63002  0.88779  Biso   1.000  O
  H83      1.0000 0.56360  0.64289  0.92382  Biso   1.000  H
  H84      1.0000 0.62400  0.62742  0.76823  Biso   1.000  H
  C57      1.0000 0.69131  0.67612  0.87133  Biso   1.000  C
  O44      1.0000 0.64901  0.68851  0.71072  Biso   1.000  O
  C58      1.0000 0.24742  0.71868  0.71993  Biso   1.000  C
  H85      1.0000 0.33457  0.65410  0.87729  Biso   1.000  H
  H86      1.0000 0.73721  0.65979  0.86902  Biso   1.000  H
  O45      1.0000 0.67440  0.65089  0.94313  Biso   1.000  O
  C59      1.0000 0.70479  0.73830  0.88677  Biso   1.000  C
  C60      1.0000 0.66388  0.74829  0.71810  Biso   1.000  C
  C61      1.0000 0.23671  0.74740  0.79769  Biso   1.000  C
  H87      1.0000 0.21681  0.68578  0.70631  Biso   1.000  H
  C62      1.0000 0.22450  0.75690  0.63261  Biso   1.000  C
  H88      1.0000 0.62929  0.64862  0.92958  Biso   1.000  H
  H89      1.0000 0.66001  0.75581  0.89009  Biso   1.000  H
  O46      1.0000 0.76473  0.74760  0.96833  Biso   1.000  O
  C63      1.0000 0.72269  0.76052  0.80772  Biso   1.000  C
  H90      1.0000 0.61829  0.76751  0.71458  Biso   1.000  H
  C64      1.0000 0.68728  0.76539  0.63559  Biso   1.000  C
  C65      1.0000 0.15939  0.76608  0.77229  Biso   1.000  C
  H91      1.0000 0.26978  0.77892  0.81361  Biso   1.000  H
  O47      1.0000 0.25529  0.71170  0.87112  Biso   1.000  O
  H92      1.0000 0.25742  0.78851  0.64257  Biso   1.000  H
  O48      1.0000 0.14628  0.77421  0.61480  Biso   1.000  O
  C66      1.0000 0.22353  0.72518  0.54733  Biso   1.000  C
  H93      1.0000 0.75398  0.73599  0.01127  Biso   1.000  H
  H94      1.0000 0.77039  0.74610  0.80833  Biso   1.000  H
  O49      1.0000 0.72729  0.81860  0.81768  Biso   1.000  O
  H95      1.0000 0.64743  0.75930  0.57883  Biso   1.000  H
  H96      1.0000 0.70139  0.80341  0.63973  Biso   1.000  H
  O50      1.0000 0.75540  0.72790  0.64372  Biso   1.000  O
  C67      1.0000 0.13890  0.80211  0.69148  Biso   1.000  C
  H97      1.0000 0.12702  0.73420  0.75759  Biso   1.000  H
  O51      1.0000 0.14527  0.79610  0.84477  Biso   1.000  O
  H98      1.0000 0.24742  0.72632  0.91380  Biso   1.000  H
  H99      1.0000 0.27328  0.71320  0.55471  Biso   1.000  H
  H100     1.0000 0.20718  0.74911  0.49510  Biso   1.000  H
  O52      1.0000 0.17449  0.67831  0.53128  Biso   1.000  O
  C68      1.0000 0.79309  0.84439  0.81693  Biso   1.000  C
  H101     1.0000 0.77082  0.73461  0.60220  Biso   1.000  H
  H102     1.0000 0.08731  0.81348  0.67691  Biso   1.000  H
  O53      1.0000 0.18458  0.84842  0.71058  Biso   1.000  O
  H103     1.0000 0.14622  0.82880  0.83529  Biso   1.000  H
  H104     1.0000 0.14977  0.67989  0.56467  Biso   1.000  H
  H105     1.0000 0.82972  0.81649  0.81741  Biso   1.000  H
  C69      1.0000 0.82290  0.87819  0.90337  Biso   1.000  C
  O54      1.0000 0.77987  0.87900  0.73659  Biso   1.000  O
  C70      1.0000 0.15229  0.90301  0.68369  Biso   1.000  C
  H106     1.0000 0.86909  0.89472  0.90249  Biso   1.000  H
  O55      1.0000 0.84250  0.84541  0.98249  Biso   1.000  O
  C71      1.0000 0.77221  0.92409  0.90303  Biso   1.000  C
  C72      1.0000 0.72978  0.92210  0.73077  Biso   1.000  C
  C73      1.0000 0.17800  0.93469  0.77331  Biso   1.000  C
  H107     1.0000 0.09808  0.90130  0.65788  Biso   1.000  H
  C74      1.0000 0.18452  0.92790  0.61940  Biso   1.000  C
  H108     1.0000 0.81701  0.81779  0.97192  Biso   1.000  H
  H109     1.0000 0.72553  0.90910  0.90492  Biso   1.000  H
  O56      1.0000 0.80418  0.95780  0.98208  Biso   1.000  O
  C75      1.0000 0.75559  0.95690  0.81422  Biso   1.000  C
  H110     1.0000 0.68100  0.90690  0.72440  Biso   1.000  H
  C76      1.0000 0.72360  0.95479  0.65253  Biso   1.000  C
  C77      1.0000 0.15340  0.99330  0.75028  Biso   1.000  C
  H111     1.0000 0.23207  0.93310  0.80047  Biso   1.000  H
  O57      1.0000 0.14560  0.91458  0.83420  Biso   1.000  O
  H112     1.0000 0.23861  0.92790  0.64623  Biso   1.000  H
  O58      1.0000 0.15902  0.98152  0.60152  Biso   1.000  O
  C78      1.0000 0.16132  0.89870  0.53033  Biso   1.000  C
  H113     1.0000 0.78330  0.98741  0.97388  Biso   1.000  H
  H114     1.0000 0.80037  0.97648  0.81558  Biso   1.000  H
  O59      1.0000 0.70011  0.99529  0.81558  Biso   1.000  O
  H115     1.0000 0.69301  0.98639  0.65090  Biso   1.000  H
  H116     1.0000 0.77232  0.96718  0.65531  Biso   1.000  H
  O60      1.0000 0.69001  0.92141  0.57063  Biso   1.000  O
  H117     1.0000 0.09918  0.99431  0.72447  Biso   1.000  H
  C79      1.0000 0.18530  0.01369  0.67793  Biso   1.000  C
  O61      1.0000 0.17641  0.02640  0.82879  Biso   1.000  O
  H118     1.0000 0.14733  0.88132  0.83461  Biso   1.000  H
  H119     1.0000 0.17942  0.86162  0.53961  Biso   1.000  H
  H120     1.0000 0.18280  0.91641  0.49002  Biso   1.000  H
  O62      1.0000 0.08589  0.89850  0.49158  Biso   1.000  O
  C80      1.0000 0.71372  0.05150  0.81233  Biso   1.000  C
  C81      1.0000 0.63201  0.94070  0.50797  Biso   1.000  C
  H121     1.0000 0.16702  0.05069  0.66093  Biso   1.000  H
  O63      1.0000 0.26390  0.01621  0.71742  Biso   1.000  O
  H122     1.0000 0.21679  0.03989  0.83468  Biso   1.000  H
  H123     1.0000 0.07401  0.88249  0.44288  Biso   1.000  H
  H124     1.0000 0.76629  0.05670  0.82181  Biso   1.000  H
  C82      1.0000 0.69650  0.07799  0.88860  Biso   1.000  C
  O64      1.0000 0.67209  0.07400  0.72867  Biso   1.000  O
  O65      1.0000 0.59940  0.98501  0.50899  Biso   1.000  O
  C83      1.0000 0.58481  0.90719  0.42432  Biso   1.000  C
  C84      1.0000 0.30081  0.06519  0.71539  Biso   1.000  C
  H125     1.0000 0.70549  0.11702  0.88481  Biso   1.000  H
  O66      1.0000 0.74301  0.06068  0.97388  Biso   1.000  O
  C85      1.0000 0.61563  0.07161  0.87451  Biso   1.000  C
  C86      1.0000 0.58948  0.07019  0.70909  Biso   1.000  C
  C87      1.0000 0.62159  0.86300  0.40447  Biso   1.000  C
  C88      1.0000 0.52161  0.92762  0.35868  Biso   1.000  C
  C89      1.0000 0.35499  0.07591  0.80779  Biso   1.000  C
  H126     1.0000 0.26461  0.09480  0.69852  Biso   1.000  H
  C90      1.0000 0.34378  0.06312  0.64630  Biso   1.000  C
  H127     1.0000 0.75809  0.03002  0.96989  Biso   1.000  H
  H128     1.0000 0.60490  0.03282  0.87749  Biso   1.000  H
  O67      1.0000 0.59848  0.09972  0.94658  Biso   1.000  O
  C91      1.0000 0.56742  0.09342  0.78130  Biso   1.000  C
  H129     1.0000 0.57592  0.03168  0.70360  Biso   1.000  H
  C92      1.0000 0.55691  0.09602  0.61520  Biso   1.000  C
  H130     1.0000 0.66392  0.84931  0.44830  Biso   1.000  H
  C93      1.0000 0.59517  0.83920  0.31919  Biso   1.000  C
  C94      1.0000 0.49519  0.90382  0.27339  Biso   1.000  C
  H131     1.0000 0.49691  0.95719  0.37202  Biso   1.000  H
  C95      1.0000 0.40008  0.12620  0.80819  Biso   1.000  C
  H132     1.0000 0.38871  0.04480  0.82621  Biso   1.000  H
  O68      1.0000 0.31600  0.08152  0.87099  Biso   1.000  O
  H133     1.0000 0.37701  0.03160  0.65998  Biso   1.000  H
  O69      1.0000 0.38608  0.11121  0.65239  Biso   1.000  O
  C96      1.0000 0.29211  0.05861  0.55431  Biso   1.000  C
  H134     1.0000 0.55499  0.10930  0.92802  Biso   1.000  H
  H135     1.0000 0.57199  0.13310  0.78069  Biso   1.000  H
  O70      1.0000 0.49301  0.07949  0.76538  Biso   1.000  O
  H136     1.0000 0.50418  0.08851  0.59062  Biso   1.000  H
  H137     1.0000 0.57987  0.07989  0.57497  Biso   1.000  H
  O71      1.0000 0.56831  0.15240  0.61893  Biso   1.000  O
  H138     1.0000 0.61989  0.80959  0.30591  Biso   1.000  H
  C97      1.0000 0.53209  0.85959  0.25361  Biso   1.000  C
  H139     1.0000 0.45291  0.91751  0.22957  Biso   1.000  H
  C98      1.0000 0.43661  0.12189  0.73883  Biso   1.000  C
  H140     1.0000 0.36622  0.15731  0.79227  Biso   1.000  H
  O72      1.0000 0.45382  0.13631  0.89551  Biso   1.000  O
  H141     1.0000 0.27693  0.06458  0.85243  Biso   1.000  H
  H142     1.0000 0.26431  0.02518  0.54943  Biso   1.000  H
  H143     1.0000 0.32029  0.05561  0.51373  Biso   1.000  H
  O73      1.0000 0.24359  0.10000  0.52559  Biso   1.000  O
  H144     1.0000 0.59838  0.15999  0.59427  Biso   1.000  H
  O74      1.0000 0.49321  0.83270  0.17348  Biso   1.000  O
  H145     1.0000 0.46112  0.15650  0.73673  Biso   1.000  H
  H146     1.0000 0.49338  0.12271  0.89829  Biso   1.000  H
  H147     1.0000 0.26339  0.12510  0.50811  Biso   1.000  H
  H148     1.0000 0.51771  0.80690  0.16671  Biso   1.000  H
  O75      1.0000 0.34101  0.48152  0.39851  Biso   1.000  O
  C99      1.0000 0.31550  0.42790  0.38062  Biso   1.000  C
  C100     1.0000 0.31472  0.51369  0.32210  Biso   1.000  C
  C101     1.0000 0.34772  0.40301  0.31627  Biso   1.000  C
  H149     1.0000 0.26142  0.42790  0.35380  Biso   1.000  H
  C102     1.0000 0.33871  0.39870  0.46970  Biso   1.000  C
  C103     1.0000 0.34661  0.49330  0.24969  Biso   1.000  C
  H150     1.0000 0.33301  0.55069  0.33910  Biso   1.000  H
  O76      1.0000 0.23613  0.51621  0.28261  Biso   1.000  O
  O77      1.0000 0.31537  0.34842  0.28938  Biso   1.000  O
  C104     1.0000 0.32203  0.43469  0.22672  Biso   1.000  C
  H151     1.0000 0.40188  0.40130  0.34208  Biso   1.000  H
  H152     1.0000 0.32061  0.36162  0.46042  Biso   1.000  H
  H153     1.0000 0.31722  0.41641  0.51001  Biso   1.000  H
  O78      1.0000 0.41411  0.39850  0.50838  Biso   1.000  O
  H154     1.0000 0.40077  0.49431  0.27549  Biso   1.000  H
  O79      1.0000 0.32359  0.52640  0.17118  Biso   1.000  O
  C105     1.0000 0.19920  0.56519  0.28457  Biso   1.000  C
  C106     1.0000 0.36110  0.30211  0.30848  Biso   1.000  C
  H155     1.0000 0.26789  0.43310  0.19949  Biso   1.000  H
  O80      1.0000 0.35443  0.41458  0.16582  Biso   1.000  O
  H156     1.0000 0.42600  0.38249  0.55708  Biso   1.000  H
  H157     1.0000 0.28322  0.53989  0.16528  Biso   1.000  H
  C107     1.0000 0.14497  0.57591  0.19218  Biso   1.000  C
  H158     1.0000 0.23542  0.59480  0.30151  Biso   1.000  H
  C108     1.0000 0.15620  0.56312  0.35373  Biso   1.000  C
  C109     1.0000 0.34057  0.26608  0.22767  Biso   1.000  C
  H159     1.0000 0.41272  0.31348  0.32311  Biso   1.000  H
  O81      1.0000 0.35370  0.27421  0.38523  Biso   1.000  O
  H160     1.0000 0.35270  0.38132  0.16542  Biso   1.000  H
  C110     1.0000 0.09988  0.62620  0.19177  Biso   1.000  C
  H161     1.0000 0.11132  0.54480  0.17382  Biso   1.000  H
  O82      1.0000 0.18401  0.58152  0.12897  Biso   1.000  O
  H162     1.0000 0.12300  0.53160  0.33998  Biso   1.000  H
  O83      1.0000 0.11387  0.61121  0.34757  Biso   1.000  O
  C111     1.0000 0.20791  0.55861  0.44572  Biso   1.000  C
  C112     1.0000 0.26330  0.24740  0.20227  Biso   1.000  C
  H163     1.0000 0.37299  0.23420  0.24237  Biso   1.000  H
  O84      1.0000 0.35468  0.29610  0.15519  Biso   1.000  O
  C113     1.0000 0.27548  0.25690  0.36742  Biso   1.000  C
  C114     1.0000 0.06341  0.62189  0.26120  Biso   1.000  C
  H164     1.0000 0.13379  0.65731  0.20769  Biso   1.000  H
  O85      1.0000 0.04621  0.63631  0.10452  Biso   1.000  O
  H165     1.0000 0.22310  0.56458  0.14760  Biso   1.000  H
  H166     1.0000 0.23572  0.52518  0.45060  Biso   1.000  H
  H167     1.0000 0.17968  0.55561  0.48630  Biso   1.000  H
  O86      1.0000 0.25641  0.60000  0.47438  Biso   1.000  O
  H168     1.0000 0.23019  0.27892  0.18642  Biso   1.000  H
  O87      1.0000 0.24469  0.21170  0.12891  Biso   1.000  O
  C115     1.0000 0.25261  0.21868  0.28010  Biso   1.000  C
  H169     1.0000 0.35379  0.32880  0.16467  Biso   1.000  H
  H170     1.0000 0.24259  0.28851  0.35739  Biso   1.000  H
  C116     1.0000 0.27649  0.22518  0.45270  Biso   1.000  C
  H171     1.0000 0.03891  0.65650  0.26330  Biso   1.000  H
  O88      1.0000 0.00700  0.57949  0.23458  Biso   1.000  O
  H172     1.0000 0.00658  0.62271  0.10168  Biso   1.000  H
  H173     1.0000 0.23659  0.62510  0.49192  Biso   1.000  H
  H174     1.0000 0.25261  0.22632  0.08623  Biso   1.000  H
  H175     1.0000 0.28322  0.18578  0.29372  Biso   1.000  H
  O89      1.0000 0.17693  0.20431  0.26113  Biso   1.000  O
  H176     1.0000 0.22670  0.21320  0.44532  Biso   1.000  H
  H177     1.0000 0.29280  0.24911  0.50493  Biso   1.000  H
  O90      1.0000 0.32552  0.17831  0.46869  Biso   1.000  O
  C117     1.0000 0.93261  0.59342  0.21873  Biso   1.000  C
  C118     1.0000 0.15847  0.15122  0.27387  Biso   1.000  C
  H178     1.0000 0.35019  0.17989  0.43529  Biso   1.000  H
  C119     1.0000 0.88440  0.57161  0.12552  Biso   1.000  C
  H179     1.0000 0.92797  0.63310  0.21927  Biso   1.000  H
  C120     1.0000 0.91048  0.57019  0.29087  Biso   1.000  C
  H180     1.0000 0.20408  0.12949  0.29107  Biso   1.000  H
  C121     1.0000 0.10429  0.12729  0.18520  Biso   1.000  C
  O91      1.0000 0.12641  0.14460  0.34289  Biso   1.000  O
  C122     1.0000 0.80353  0.57799  0.11143  Biso   1.000  C
  H181     1.0000 0.89511  0.53282  0.12247  Biso   1.000  H
  O92      1.0000 0.90148  0.59972  0.05338  Biso   1.000  O
  H182     1.0000 0.92411  0.53168  0.29643  Biso   1.000  H
  O93      1.0000 0.82792  0.57400  0.27129  Biso   1.000  O
  C123     1.0000 0.94312  0.59602  0.38482  Biso   1.000  C
  H183     1.0000 0.09408  0.08932  0.19543  Biso   1.000  H
  O94      1.0000 0.13419  0.13002  0.11218  Biso   1.000  O
  C124     1.0000 0.03000  0.16089  0.16020  Biso   1.000  C
  C125     1.0000 0.05817  0.17701  0.32427  Biso   1.000  C
  C126     1.0000 0.78630  0.55150  0.18770  Biso   1.000  C
  H184     1.0000 0.79449  0.61702  0.11522  Biso   1.000  H
  O95      1.0000 0.75700  0.56068  0.02608  Biso   1.000  O
  H185     1.0000 0.94499  0.60930  0.07201  Biso   1.000  H
  H186     1.0000 0.99580  0.58851  0.40941  Biso   1.000  H
  H187     1.0000 0.92008  0.57989  0.42499  Biso   1.000  H
  O96      1.0000 0.93172  0.65240  0.38110  Biso   1.000  O
  H188     1.0000 0.16539  0.15410  0.12268  Biso   1.000  H
  H189     1.0000 0.03939  0.19890  0.14943  Biso   1.000  H
  C127     1.0000 0.00131  0.15711  0.23993  Biso   1.000  C
  O97      1.0000 0.97899  0.13721  0.07837  Biso   1.000  O
  H190     1.0000 0.06870  0.21539  0.31797  Biso   1.000  H
  C128     1.0000 0.03513  0.16881  0.40542  Biso   1.000  C
  O98      1.0000 0.79990  0.49529  0.18439  Biso   1.000  O
  H191     1.0000 0.73368  0.55670  0.17822  Biso   1.000  H
  H192     1.0000 0.74187  0.53002  0.03008  Biso   1.000  H
  H193     1.0000 0.90158  0.65999  0.40569  Biso   1.000  H
  H194     1.0000 0.98877  0.11929  0.24799  Biso   1.000  H
  O99      1.0000 0.93702  0.18920  0.21609  Biso   1.000  O
  H195     1.0000 0.93638  0.14289  0.07621  Biso   1.000  H
  H196     1.0000 0.07579  0.17981  0.45893  Biso   1.000  H
  O100     1.0000 0.01458  0.11621  0.41890  Biso   1.000  O
  H197     1.0000 0.99383  0.19289  0.39993  Biso   1.000  H
  C129     1.0000 0.74439  0.45690  0.18581  Biso   1.000  C
  C130     1.0000 0.86940  0.16661  0.22151  Biso   1.000  C
  H198     1.0000 0.00419  0.11519  0.46537  Biso   1.000  H
  C131     1.0000 0.72782  0.42409  0.09700  Biso   1.000  C
  C132     1.0000 0.77017  0.42210  0.26919  Biso   1.000  C
  H199     1.0000 0.69959  0.47648  0.18439  Biso   1.000  H
  H200     1.0000 0.87597  0.12742  0.23180  Biso   1.000  H
  C133     1.0000 0.80872  0.17612  0.12870  Biso   1.000  C
  O101     1.0000 0.85101  0.18851  0.28931  Biso   1.000  O
  C134     1.0000 0.67710  0.37819  0.09660  Biso   1.000  C
  H201     1.0000 0.77450  0.40910  0.09511  Biso   1.000  H
  O102     1.0000 0.69578  0.45780  0.01788  Biso   1.000  O
  O103     1.0000 0.72008  0.37900  0.26337  Biso   1.000  O
  H202     1.0000 0.81903  0.40690  0.27563  Biso   1.000  H
  C135     1.0000 0.77643  0.45479  0.34750  Biso   1.000  C
  H203     1.0000 0.76282  0.15979  0.13101  Biso   1.000  H
  O104     1.0000 0.82562  0.15089  0.05690  Biso   1.000  O
  C136     1.0000 0.79522  0.23830  0.11319  Biso   1.000  C
  C137     1.0000 0.83609  0.24829  0.28193  Biso   1.000  C
  C138     1.0000 0.70688  0.34439  0.18310  Biso   1.000  C
  H204     1.0000 0.63092  0.39472  0.09748  Biso   1.000  H
  O105     1.0000 0.65751  0.34541  0.01748  Biso   1.000  O
  H205     1.0000 0.71670  0.48741  0.02608  Biso   1.000  H
  H206     1.0000 0.80702  0.48639  0.34913  Biso   1.000  H
  H207     1.0000 0.72771  0.46718  0.34472  Biso   1.000  H
  O106     1.0000 0.81002  0.42141  0.42940  Biso   1.000  O
  H208     1.0000 0.87067  0.14862  0.07038  Biso   1.000  H
  H209     1.0000 0.84000  0.25581  0.10987  Biso   1.000  H
  O107     1.0000 0.73530  0.24760  0.03170  Biso   1.000  O
  C139     1.0000 0.77728  0.26052  0.19231  Biso   1.000  C
  H210     1.0000 0.88167  0.26751  0.28538  Biso   1.000  H
  C140     1.0000 0.81268  0.26539  0.36437  Biso   1.000  C
  O108     1.0000 0.77271  0.31860  0.18229  Biso   1.000  O
  H211     1.0000 0.67031  0.31649  0.18262  Biso   1.000  H
  H212     1.0000 0.68302  0.31779  0.02811  Biso   1.000  H
  C141     1.0000 0.86800  0.44070  0.49199  Biso   1.000  C
  H213     1.0000 0.74598  0.23599  0.98869  Biso   1.000  H
  H214     1.0000 0.72959  0.24610  0.19170  Biso   1.000  H
  H215     1.0000 0.85260  0.25930  0.42120  Biso   1.000  H
  H216     1.0000 0.79858  0.30341  0.36030  Biso   1.000  H
  O109     1.0000 0.74458  0.22790  0.35631  Biso   1.000  O
  O110     1.0000 0.90061  0.48501  0.49097  Biso   1.000  O
  C142     1.0000 0.91522  0.40719  0.57571  Biso   1.000  C
  H217     1.0000 0.72921  0.23461  0.39783  Biso   1.000  H
  C143     1.0000 0.87842  0.36300  0.59549  Biso   1.000  C
  C144     1.0000 0.97840  0.42762  0.64128  Biso   1.000  C
  H218     1.0000 0.83611  0.34931  0.55173  Biso   1.000  H
  C145     1.0000 0.90479  0.33920  0.68078  Biso   1.000  C
  C146     1.0000 0.00477  0.40382  0.72657  Biso   1.000  C
  H219     1.0000 0.00312  0.45719  0.62801  Biso   1.000  H
  H220     1.0000 0.88009  0.30959  0.69412  Biso   1.000  H
  C147     1.0000 0.96788  0.35959  0.74642  Biso   1.000  C
  H221     1.0000 0.04709  0.41751  0.77039  Biso   1.000  H
  O111     1.0000 0.00680  0.33270  0.82648  Biso   1.000  O
  H222     1.0000 0.98231  0.30690  0.83332  Biso   1.000  H
  O112     1.0000 0.65902  0.48152  0.60152  Biso   1.000  O
  C148     1.0000 0.68452  0.42790  0.61940  Biso   1.000  C
  C149     1.0000 0.68530  0.51369  0.67793  Biso   1.000  C
  C150     1.0000 0.66132  0.39870  0.53033  Biso   1.000  C
  C151     1.0000 0.65229  0.40301  0.68369  Biso   1.000  C
  H223     1.0000 0.73861  0.42790  0.64623  Biso   1.000  H
  C152     1.0000 0.65340  0.49330  0.75028  Biso   1.000  C
  H224     1.0000 0.66702  0.55069  0.66093  Biso   1.000  H
  O113     1.0000 0.76390  0.51621  0.71742  Biso   1.000  O
  O114     1.0000 0.58589  0.39850  0.49158  Biso   1.000  O
  H225     1.0000 0.67942  0.36162  0.53961  Biso   1.000  H
  H226     1.0000 0.68280  0.41641  0.49002  Biso   1.000  H
  C153     1.0000 0.67800  0.43469  0.77331  Biso   1.000  C
  H227     1.0000 0.59808  0.40130  0.65788  Biso   1.000  H
  O115     1.0000 0.68458  0.34842  0.71058  Biso   1.000  O
  H228     1.0000 0.59918  0.49431  0.72447  Biso   1.000  H
  O116     1.0000 0.67641  0.52640  0.82879  Biso   1.000  O
  C154     1.0000 0.80081  0.56519  0.71539  Biso   1.000  C
  H229     1.0000 0.57401  0.38249  0.44288  Biso   1.000  H
  H230     1.0000 0.73207  0.43310  0.80047  Biso   1.000  H
  O117     1.0000 0.64560  0.41458  0.83420  Biso   1.000  O
  C155     1.0000 0.63890  0.30211  0.69148  Biso   1.000  C
  H231     1.0000 0.71679  0.53989  0.83468  Biso   1.000  H
  C156     1.0000 0.85499  0.57591  0.80779  Biso   1.000  C
  H232     1.0000 0.76461  0.59480  0.69852  Biso   1.000  H
  C157     1.0000 0.84378  0.56312  0.64630  Biso   1.000  C
  H233     1.0000 0.64733  0.38132  0.83461  Biso   1.000  H
  H234     1.0000 0.58731  0.31348  0.67691  Biso   1.000  H
  C158     1.0000 0.65939  0.26608  0.77229  Biso   1.000  C
  O118     1.0000 0.64628  0.27421  0.61480  Biso   1.000  O
  C159     1.0000 0.90008  0.62620  0.80819  Biso   1.000  C
  H235     1.0000 0.88871  0.54480  0.82621  Biso   1.000  H
  O119     1.0000 0.81600  0.58152  0.87099  Biso   1.000  O
  H236     1.0000 0.87701  0.53160  0.65998  Biso   1.000  H
  O120     1.0000 0.88608  0.61121  0.65239  Biso   1.000  O
  C160     1.0000 0.79211  0.55861  0.55431  Biso   1.000  C
  H237     1.0000 0.62702  0.23420  0.75759  Biso   1.000  H
  O121     1.0000 0.64527  0.29610  0.84477  Biso   1.000  O
  C161     1.0000 0.73671  0.24740  0.79769  Biso   1.000  C
  C162     1.0000 0.72450  0.25690  0.63261  Biso   1.000  C
  C163     1.0000 0.93661  0.62189  0.73883  Biso   1.000  C
  H238     1.0000 0.86622  0.65731  0.79227  Biso   1.000  H
  O122     1.0000 0.95382  0.63631  0.89551  Biso   1.000  O
  H239     1.0000 0.77693  0.56458  0.85243  Biso   1.000  H
  H240     1.0000 0.76431  0.52518  0.54943  Biso   1.000  H
  H241     1.0000 0.82029  0.55561  0.51373  Biso   1.000  H
  O123     1.0000 0.74359  0.60000  0.52559  Biso   1.000  O
  H242     1.0000 0.64622  0.32880  0.83529  Biso   1.000  H
  H243     1.0000 0.76978  0.27892  0.81361  Biso   1.000  H
  O124     1.0000 0.75529  0.21170  0.87112  Biso   1.000  O
  C164     1.0000 0.74742  0.21868  0.71993  Biso   1.000  C
  H244     1.0000 0.75742  0.28851  0.64257  Biso   1.000  H
  C165     1.0000 0.72353  0.22518  0.54733  Biso   1.000  C
  H245     1.0000 0.96112  0.65650  0.73673  Biso   1.000  H
  O125     1.0000 0.99301  0.57949  0.76538  Biso   1.000  O
  H246     1.0000 0.99338  0.62271  0.89829  Biso   1.000  H
  H247     1.0000 0.76339  0.62510  0.50811  Biso   1.000  H
  H248     1.0000 0.74742  0.22632  0.91380  Biso   1.000  H
  H249     1.0000 0.71681  0.18578  0.70631  Biso   1.000  H
  O126     1.0000 0.82310  0.20431  0.73890  Biso   1.000  O
  H250     1.0000 0.77328  0.21320  0.55471  Biso   1.000  H
  H251     1.0000 0.70718  0.24911  0.49510  Biso   1.000  H
  O127     1.0000 0.67449  0.17831  0.53128  Biso   1.000  O
  C166     1.0000 0.06742  0.59342  0.78130  Biso   1.000  C
  C167     1.0000 0.84149  0.15122  0.72609  Biso   1.000  C
  H252     1.0000 0.64977  0.17989  0.56467  Biso   1.000  H
  C168     1.0000 0.11563  0.57161  0.87451  Biso   1.000  C
  H253     1.0000 0.07199  0.63310  0.78069  Biso   1.000  H
  C169     1.0000 0.08948  0.57019  0.70909  Biso   1.000  C
  H254     1.0000 0.79587  0.12949  0.70889  Biso   1.000  H
  C170     1.0000 0.89568  0.12729  0.81483  Biso   1.000  C
  O128     1.0000 0.87360  0.14460  0.65707  Biso   1.000  O
  C171     1.0000 0.19650  0.57799  0.88860  Biso   1.000  C
  H255     1.0000 0.10490  0.53282  0.87749  Biso   1.000  H
  O129     1.0000 0.09848  0.59972  0.94658  Biso   1.000  O
  H256     1.0000 0.07592  0.53168  0.70360  Biso   1.000  H
  O130     1.0000 0.17209  0.57400  0.72867  Biso   1.000  O
  C172     1.0000 0.05691  0.59602  0.61520  Biso   1.000  C
  H257     1.0000 0.90589  0.08932  0.80460  Biso   1.000  H
  O131     1.0000 0.86582  0.13002  0.88779  Biso   1.000  O
  C173     1.0000 0.97002  0.16089  0.83983  Biso   1.000  C
  C174     1.0000 0.94178  0.17701  0.67570  Biso   1.000  C
  C175     1.0000 0.21372  0.55150  0.81233  Biso   1.000  C
  H258     1.0000 0.20549  0.61702  0.88481  Biso   1.000  H
  O132     1.0000 0.24301  0.56068  0.97388  Biso   1.000  O
  H259     1.0000 0.05499  0.60930  0.92802  Biso   1.000  H
  H260     1.0000 0.00418  0.58851  0.59062  Biso   1.000  H
  H261     1.0000 0.07987  0.57989  0.57497  Biso   1.000  H
  O133     1.0000 0.06831  0.65240  0.61893  Biso   1.000  O
  H262     1.0000 0.83457  0.15410  0.87729  Biso   1.000  H
  H263     1.0000 0.96059  0.19890  0.85060  Biso   1.000  H
  C176     1.0000 0.99872  0.15711  0.76010  Biso   1.000  C
  O134     1.0000 0.02102  0.13721  0.92159  Biso   1.000  O
  H264     1.0000 0.93131  0.21539  0.68200  Biso   1.000  H
  C177     1.0000 0.96490  0.16881  0.59461  Biso   1.000  C
  H265     1.0000 0.26629  0.55670  0.82181  Biso   1.000  H
  O135     1.0000 0.20011  0.49529  0.81558  Biso   1.000  O
  H266     1.0000 0.25809  0.53002  0.96989  Biso   1.000  H
  H267     1.0000 0.09838  0.65999  0.59427  Biso   1.000  H
  H268     1.0000 0.01118  0.11929  0.75197  Biso   1.000  H
  O136     1.0000 0.06299  0.18920  0.78387  Biso   1.000  O
  H269     1.0000 0.06360  0.14289  0.92382  Biso   1.000  H
  H270     1.0000 0.92419  0.17981  0.54110  Biso   1.000  H
  O137     1.0000 0.98539  0.11621  0.58113  Biso   1.000  O
  H271     1.0000 0.00620  0.19289  0.60010  Biso   1.000  H
  C178     1.0000 0.25559  0.45690  0.81422  Biso   1.000  C
  C179     1.0000 0.13062  0.16661  0.77852  Biso   1.000  C
  H272     1.0000 0.99582  0.11519  0.53460  Biso   1.000  H
  C180     1.0000 0.27221  0.42409  0.90303  Biso   1.000  C
  H273     1.0000 0.30037  0.47648  0.81558  Biso   1.000  H
  C181     1.0000 0.22978  0.42210  0.73077  Biso   1.000  C
  H274     1.0000 0.12400  0.12742  0.76823  Biso   1.000  H
  C182     1.0000 0.19131  0.17612  0.87133  Biso   1.000  C
  O138     1.0000 0.14901  0.18851  0.71072  Biso   1.000  O
  C183     1.0000 0.32290  0.37819  0.90337  Biso   1.000  C
  H275     1.0000 0.22553  0.40910  0.90492  Biso   1.000  H
  O139     1.0000 0.30418  0.45780  0.98208  Biso   1.000  O
  H276     1.0000 0.18100  0.40690  0.72440  Biso   1.000  H
  O140     1.0000 0.27987  0.37900  0.73659  Biso   1.000  O
  C184     1.0000 0.22360  0.45479  0.65253  Biso   1.000  C
  H277     1.0000 0.23721  0.15979  0.86902  Biso   1.000  H
  O141     1.0000 0.17440  0.15089  0.94313  Biso   1.000  O
  C185     1.0000 0.20479  0.23830  0.88677  Biso   1.000  C
  C186     1.0000 0.16388  0.24829  0.71810  Biso   1.000  C
  C187     1.0000 0.29309  0.34439  0.81693  Biso   1.000  C
  H278     1.0000 0.36909  0.39472  0.90249  Biso   1.000  H
  O142     1.0000 0.34250  0.34541  0.98249  Biso   1.000  O
  H279     1.0000 0.28330  0.48741  0.97388  Biso   1.000  H
  H280     1.0000 0.19301  0.48639  0.65090  Biso   1.000  H
  H281     1.0000 0.27232  0.46718  0.65531  Biso   1.000  H
  O143     1.0000 0.19001  0.42141  0.57063  Biso   1.000  O
  H282     1.0000 0.12929  0.14862  0.92958  Biso   1.000  H
  H283     1.0000 0.16001  0.25581  0.89009  Biso   1.000  H
  O144     1.0000 0.26473  0.24760  0.96833  Biso   1.000  O
  C188     1.0000 0.22269  0.26052  0.80772  Biso   1.000  C
  H284     1.0000 0.11829  0.26751  0.71458  Biso   1.000  H
  C189     1.0000 0.18728  0.26539  0.63559  Biso   1.000  C
  O145     1.0000 0.22729  0.31860  0.81768  Biso   1.000  O
  H285     1.0000 0.32972  0.31649  0.81741  Biso   1.000  H
  H286     1.0000 0.31701  0.31779  0.97192  Biso   1.000  H
  C190     1.0000 0.13201  0.44070  0.50797  Biso   1.000  C
  H287     1.0000 0.25398  0.23599  0.01127  Biso   1.000  H
  H288     1.0000 0.27039  0.24610  0.80833  Biso   1.000  H
  H289     1.0000 0.14743  0.25930  0.57883  Biso   1.000  H
  H290     1.0000 0.20139  0.30341  0.63973  Biso   1.000  H
  O146     1.0000 0.25540  0.22790  0.64372  Biso   1.000  O
  O147     1.0000 0.09940  0.48501  0.50899  Biso   1.000  O
  C191     1.0000 0.08481  0.40719  0.42432  Biso   1.000  C
  H291     1.0000 0.27082  0.23461  0.60220  Biso   1.000  H
  C192     1.0000 0.12159  0.36300  0.40447  Biso   1.000  C
  C193     1.0000 0.02161  0.42762  0.35868  Biso   1.000  C
  H292     1.0000 0.16392  0.34931  0.44830  Biso   1.000  H
  C194     1.0000 0.09517  0.33920  0.31919  Biso   1.000  C
  C195     1.0000 0.99519  0.40382  0.27339  Biso   1.000  C
  H293     1.0000 0.99691  0.45719  0.37202  Biso   1.000  H
  H294     1.0000 0.11989  0.30959  0.30591  Biso   1.000  H
  C196     1.0000 0.03209  0.35959  0.25361  Biso   1.000  C
  H295     1.0000 0.95291  0.41751  0.22957  Biso   1.000  H
  O148     1.0000 0.99321  0.33270  0.17348  Biso   1.000  O
  H296     1.0000 0.01771  0.30690  0.16671  Biso   1.000  H
