data_image0
_cell_length_a       14.24
_cell_length_b       36.014
_cell_length_c       9.558
_cell_angle_alpha    90
_cell_angle_beta     90
_cell_angle_gamma    90

_symmetry_space_group_name_H-M    "P 1"
_symmetry_int_tables_number       1

loop_
  _symmetry_equiv_pos_as_xyz
  'x, y, z'

loop_
  _atom_site_label
  _atom_site_occupancy
  _atom_site_fract_x
  _atom_site_fract_y
  _atom_site_fract_z
  _atom_site_thermal_displace_type
  _atom_site_B_iso_or_equiv
  _atom_site_type_symbol
  C1       1.0000 0.54038  0.49200  0.41243  Biso   1.000  C
  C2       1.0000 0.56510  0.45221  0.43178  Biso   1.000  C
  C3       1.0000 0.42767  0.49731  0.43367  Biso   1.000  C
  O1       1.0000 0.58581  0.51619  0.50722  Biso   1.000  O
  O2       1.0000 0.53897  0.44041  0.57146  Biso   1.000  O
  O3       1.0000 0.51587  0.43119  0.32936  Biso   1.000  O
  C4       1.0000 0.37830  0.47429  0.32737  Biso   1.000  C
  O4       1.0000 0.40688  0.53549  0.40511  Biso   1.000  O
  C5       1.0000 0.60000  0.41281  0.65212  Biso   1.000  C
  C6       1.0000 0.41341  0.43419  0.34149  Biso   1.000  C
  O5       1.0000 0.28139  0.47520  0.36441  Biso   1.000  O
  C7       1.0000 0.57191  0.41881  0.79881  Biso   1.000  C
  C8       1.0000 0.57633  0.37491  0.60567  Biso   1.000  C
  C9       1.0000 0.37437  0.40709  0.22547  Biso   1.000  C
  C10      1.0000 0.22338  0.48850  0.26983  Biso   1.000  C
  C11      1.0000 0.62317  0.38990  0.88784  Biso   1.000  C
  O6       1.0000 0.60471  0.45671  0.83783  Biso   1.000  O
  O7       1.0000 0.62971  0.34981  0.69764  Biso   1.000  O
  C12      1.0000 0.61552  0.36300  0.45909  Biso   1.000  C
  O8       1.0000 0.40253  0.41789  0.09228  Biso   1.000  O
  C13      1.0000 0.14930  0.51191  0.33877  Biso   1.000  C
  O9       1.0000 0.17521  0.45910  0.19209  Biso   1.000  O
  C14      1.0000 0.59831  0.35300  0.84128  Biso   1.000  C
  O10      1.0000 0.59417  0.39479  0.03107  Biso   1.000  O
  O11      1.0000 0.70983  0.37971  0.43367  Biso   1.000  O
  C15      1.0000 0.09277  0.48959  0.44256  Biso   1.000  C
  O12      1.0000 0.19642  0.53990  0.41117  Biso   1.000  O
  C16      1.0000 0.13279  0.43439  0.28458  Biso   1.000  C
  O13      1.0000 0.50169  0.34659  0.85771  Biso   1.000  O
  C17      1.0000 0.05527  0.45491  0.35698  Biso   1.000  C
  O14      1.0000 0.01798  0.50819  0.50544  Biso   1.000  O
  C18      1.0000 0.09677  0.40121  0.19743  Biso   1.000  C
  C19      1.0000 0.47549  0.31099  0.91546  Biso   1.000  C
  O15      1.0000 0.01461  0.42981  0.47227  Biso   1.000  O
  O16      1.0000 0.02830  0.41151  0.10201  Biso   1.000  O
  C20      1.0000 0.41173  0.29361  0.80393  Biso   1.000  C
  C21      1.0000 0.42282  0.31979  0.04875  Biso   1.000  C
  C22      1.0000 0.92409  0.41709  0.46715  Biso   1.000  C
  O17      1.0000 0.36587  0.26020  0.87142  Biso   1.000  O
  C23      1.0000 0.46980  0.27731  0.68173  Biso   1.000  C
  C24      1.0000 0.36320  0.28681  0.09971  Biso   1.000  C
  O18      1.0000 0.48448  0.33129  0.15097  Biso   1.000  O
  C25      1.0000 0.87219  0.42520  0.60850  Biso   1.000  C
  O19      1.0000 0.92022  0.37971  0.43430  Biso   1.000  O
  C26      1.0000 0.30737  0.27070  0.98912  Biso   1.000  C
  O20      1.0000 0.55407  0.25721  0.72683  Biso   1.000  O
  O21      1.0000 0.30471  0.29611  0.21333  Biso   1.000  O
  C27      1.0000 0.92978  0.40279  0.71940  Biso   1.000  C
  O22      1.0000 0.88167  0.46551  0.62806  Biso   1.000  O
  C28      1.0000 0.96088  0.35550  0.54018  Biso   1.000  C
  O23      1.0000 0.24087  0.29761  0.94507  Biso   1.000  O
  C29      1.0000 0.93013  0.36300  0.68330  Biso   1.000  C
  O24      1.0000 0.87458  0.40981  0.85185  Biso   1.000  O
  C30      1.0000 0.95239  0.31749  0.47824  Biso   1.000  C
  C31      1.0000 0.14698  0.28919  0.94047  Biso   1.000  C
  O25      1.0000 0.98652  0.34631  0.78008  Biso   1.000  O
  O26      1.0000 0.85667  0.30610  0.48284  Biso   1.000  O
  C32      1.0000 0.11299  0.28450  0.78960  Biso   1.000  C
  C33      1.0000 0.08933  0.31721  0.01601  Biso   1.000  C
  C34      1.0000 0.95737  0.31271  0.84589  Biso   1.000  C
  C35      1.0000 0.14979  0.25051  0.71605  Biso   1.000  C
  O27      1.0000 0.00948  0.28161  0.77715  Biso   1.000  O
  C36      1.0000 0.98441  0.31241  0.99487  Biso   1.000  C
  O28      1.0000 0.11362  0.31291  0.16353  Biso   1.000  O
  O29      1.0000 0.14017  0.21861  0.79305  Biso   1.000  O
  O30      1.0000 0.93617  0.34431  0.06204  Biso   1.000  O
  O31      1.0000 0.62542  0.59019  0.35185  Biso   1.000  O
  C37      1.0000 0.57022  0.59721  0.21940  Biso   1.000  C
  C38      1.0000 0.62781  0.57480  0.10850  Biso   1.000  C
  C39      1.0000 0.56987  0.63700  0.18330  Biso   1.000  C
  C40      1.0000 0.57591  0.58291  0.96715  Biso   1.000  C
  O32      1.0000 0.61833  0.53449  0.12806  Biso   1.000  O
  C41      1.0000 0.53912  0.64450  0.04018  Biso   1.000  C
  O33      1.0000 0.51348  0.65369  0.28008  Biso   1.000  O
  O34      1.0000 0.48539  0.57019  0.97227  Biso   1.000  O
  O35      1.0000 0.57978  0.62029  0.93430  Biso   1.000  O
  C42      1.0000 0.54761  0.68251  0.97824  Biso   1.000  C
  C43      1.0000 0.54263  0.68729  0.34589  Biso   1.000  C
  C44      1.0000 0.44473  0.54509  0.85698  Biso   1.000  C
  O36      1.0000 0.64333  0.69390  0.98284  Biso   1.000  O
  C45      1.0000 0.51559  0.68759  0.49487  Biso   1.000  C
  O37      1.0000 0.49052  0.71839  0.27715  Biso   1.000  O
  C46      1.0000 0.40723  0.51041  0.94256  Biso   1.000  C
  C47      1.0000 0.36721  0.56561  0.78458  Biso   1.000  C
  C48      1.0000 0.41067  0.68279  0.51601  Biso   1.000  C
  O38      1.0000 0.56383  0.65569  0.56204  Biso   1.000  O
  C49      1.0000 0.38701  0.71550  0.28960  Biso   1.000  C
  O39      1.0000 0.48202  0.49181  0.00544  Biso   1.000  O
  C50      1.0000 0.35070  0.48809  0.83877  Biso   1.000  C
  O40      1.0000 0.32479  0.54090  0.69209  Biso   1.000  O
  C51      1.0000 0.40323  0.59879  0.69743  Biso   1.000  C
  C52      1.0000 0.35302  0.71081  0.44047  Biso   1.000  C
  O41      1.0000 0.38638  0.68709  0.66353  Biso   1.000  O
  C53      1.0000 0.35021  0.74949  0.21605  Biso   1.000  C
  C54      1.0000 0.27662  0.51150  0.76983  Biso   1.000  C
  O42      1.0000 0.30358  0.46010  0.91117  Biso   1.000  O
  O43      1.0000 0.47170  0.58849  0.60201  Biso   1.000  O
  O44      1.0000 0.25913  0.70239  0.44507  Biso   1.000  O
  O45      1.0000 0.35983  0.78139  0.29305  Biso   1.000  O
  O46      1.0000 0.21861  0.52480  0.86441  Biso   1.000  O
  C55      1.0000 0.19263  0.72930  0.48912  Biso   1.000  C
  C56      1.0000 0.12170  0.52571  0.82737  Biso   1.000  C
  C57      1.0000 0.13680  0.71319  0.59971  Biso   1.000  C
  O47      1.0000 0.13413  0.73980  0.37142  Biso   1.000  O
  C58      1.0000 0.07233  0.50269  0.93367  Biso   1.000  C
  C59      1.0000 0.08659  0.56581  0.84149  Biso   1.000  C
  C60      1.0000 0.07718  0.68021  0.54875  Biso   1.000  C
  O48      1.0000 0.19529  0.70389  0.71333  Biso   1.000  O
  C61      1.0000 0.08827  0.70639  0.30393  Biso   1.000  C
  C62      1.0000 0.95962  0.50800  0.91243  Biso   1.000  C
  O49      1.0000 0.09312  0.46451  0.90511  Biso   1.000  O
  O50      1.0000 0.98413  0.56881  0.82936  Biso   1.000  O
  C63      1.0000 0.12563  0.59291  0.72547  Biso   1.000  C
  C64      1.0000 0.02451  0.68901  0.41546  Biso   1.000  C
  O51      1.0000 0.01552  0.66871  0.65097  Biso   1.000  O
  C65      1.0000 0.03020  0.72269  0.18173  Biso   1.000  C
  C66      1.0000 0.93490  0.54779  0.93178  Biso   1.000  C
  O52      1.0000 0.91419  0.48381  0.00722  Biso   1.000  O
  O53      1.0000 0.09747  0.58211  0.59228  Biso   1.000  O
  O54      1.0000 0.99831  0.65341  0.35771  Biso   1.000  O
  O55      1.0000 0.94593  0.74279  0.22683  Biso   1.000  O
  O56      1.0000 0.96103  0.55959  0.07146  Biso   1.000  O
  C67      1.0000 0.90169  0.64700  0.34128  Biso   1.000  C
  C68      1.0000 0.90000  0.58719  0.15212  Biso   1.000  C
  C69      1.0000 0.87683  0.61010  0.38784  Biso   1.000  C
  O57      1.0000 0.87029  0.65019  0.19764  Biso   1.000  O
  C70      1.0000 0.92809  0.58119  0.29881  Biso   1.000  C
  C71      1.0000 0.92367  0.62509  0.10567  Biso   1.000  C
  O58      1.0000 0.90583  0.60521  0.53107  Biso   1.000  O
  O59      1.0000 0.89529  0.54329  0.33783  Biso   1.000  O
  C72      1.0000 0.88448  0.63700  0.95909  Biso   1.000  C
  O60      1.0000 0.79017  0.62029  0.93367  Biso   1.000  O
  O61      1.0000 0.64017  0.28139  0.20695  Biso   1.000  O
  C73      1.0000 0.64979  0.24949  0.28395  Biso   1.000  C
  C74      1.0000 0.61299  0.21550  0.21040  Biso   1.000  C
  O62      1.0000 0.50948  0.21839  0.22285  Biso   1.000  O
  C75      1.0000 0.64698  0.21081  0.05953  Biso   1.000  C
  C76      1.0000 0.45737  0.18729  0.15411  Biso   1.000  C
  C77      1.0000 0.58933  0.18279  0.98399  Biso   1.000  C
  O63      1.0000 0.74087  0.20239  0.05493  Biso   1.000  O
  O64      1.0000 0.48652  0.15369  0.21992  Biso   1.000  O
  C78      1.0000 0.48441  0.18759  0.00513  Biso   1.000  C
  O65      1.0000 0.61362  0.18709  0.83647  Biso   1.000  O
  C79      1.0000 0.80737  0.22930  0.01088  Biso   1.000  C
  C80      1.0000 0.43013  0.13700  0.31670  Biso   1.000  C
  O66      1.0000 0.43617  0.15569  0.93796  Biso   1.000  O
  O67      1.0000 0.86587  0.23980  0.12858  Biso   1.000  O
  C81      1.0000 0.86320  0.21319  0.90029  Biso   1.000  C
  C82      1.0000 0.46088  0.14450  0.45982  Biso   1.000  C
  C83      1.0000 0.42978  0.09721  0.28060  Biso   1.000  C
  C84      1.0000 0.91173  0.20639  0.19607  Biso   1.000  C
  C85      1.0000 0.92282  0.18021  0.95125  Biso   1.000  C
  O68      1.0000 0.80471  0.20389  0.78667  Biso   1.000  O
  C86      1.0000 0.45239  0.18251  0.52176  Biso   1.000  C
  O69      1.0000 0.42022  0.12029  0.56570  Biso   1.000  O
  C87      1.0000 0.37219  0.07480  0.39150  Biso   1.000  C
  O70      1.0000 0.37458  0.09019  0.14815  Biso   1.000  O
  C88      1.0000 0.97549  0.18901  0.08454  Biso   1.000  C
  C89      1.0000 0.96980  0.22269  0.31827  Biso   1.000  C
  O71      1.0000 0.98448  0.16871  0.84903  Biso   1.000  O
  O72      1.0000 0.35667  0.19390  0.51716  Biso   1.000  O
  C90      1.0000 0.42409  0.08291  0.53285  Biso   1.000  C
  O73      1.0000 0.38167  0.03449  0.37194  Biso   1.000  O
  O74      1.0000 0.00169  0.15341  0.14229  Biso   1.000  O
  O75      1.0000 0.05407  0.24279  0.27317  Biso   1.000  O
  O76      1.0000 0.51461  0.07019  0.52773  Biso   1.000  O
  C91      1.0000 0.09831  0.14700  0.15872  Biso   1.000  C
  C92      1.0000 0.55527  0.04509  0.64302  Biso   1.000  C
  C93      1.0000 0.12317  0.11010  0.11216  Biso   1.000  C
  O77      1.0000 0.12971  0.15019  0.30236  Biso   1.000  O
  C94      1.0000 0.59277  0.01041  0.55744  Biso   1.000  C
  C95      1.0000 0.63279  0.06561  0.71542  Biso   1.000  C
  O78      1.0000 0.09417  0.10521  0.96893  Biso   1.000  O
  C96      1.0000 0.07191  0.08119  0.20119  Biso   1.000  C
  C97      1.0000 0.07633  0.12509  0.39433  Biso   1.000  C
  C98      1.0000 0.64930  0.98809  0.66123  Biso   1.000  C
  O79      1.0000 0.51798  0.99181  0.49456  Biso   1.000  O
  C99      1.0000 0.59677  0.09879  0.80257  Biso   1.000  C
  O80      1.0000 0.67521  0.04090  0.80791  Biso   1.000  O
  C100     1.0000 0.10000  0.08719  0.34788  Biso   1.000  C
  O81      1.0000 0.10471  0.04329  0.16217  Biso   1.000  O
  C101     1.0000 0.11552  0.13700  0.54091  Biso   1.000  C
  C102     1.0000 0.72338  0.01150  0.73017  Biso   1.000  C
  O82      1.0000 0.69642  0.96010  0.58883  Biso   1.000  O
  O83      1.0000 0.52830  0.08849  0.89799  Biso   1.000  O
  O84      1.0000 0.03897  0.05959  0.42854  Biso   1.000  O
  O85      1.0000 0.20983  0.12029  0.56633  Biso   1.000  O
  O86      1.0000 0.78139  0.02480  0.63559  Biso   1.000  O
  C103     1.0000 0.06510  0.04779  0.56822  Biso   1.000  C
  C104     1.0000 0.87830  0.02571  0.67263  Biso   1.000  C
  C105     1.0000 0.04038  0.00800  0.58757  Biso   1.000  C
  O87      1.0000 0.01587  0.06881  0.67064  Biso   1.000  O
  C106     1.0000 0.92767  0.00269  0.56633  Biso   1.000  C
  C107     1.0000 0.91341  0.06581  0.65851  Biso   1.000  C
  O88      1.0000 0.08581  0.98381  0.49278  Biso   1.000  O
  O89      1.0000 0.90688  0.96451  0.59489  Biso   1.000  O
  C108     1.0000 0.87437  0.09291  0.77453  Biso   1.000  C
  O90      1.0000 0.90253  0.08211  0.90772  Biso   1.000  O
  O91      1.0000 0.85983  0.71861  0.70695  Biso   1.000  O
  C109     1.0000 0.85021  0.75051  0.78395  Biso   1.000  C
  C110     1.0000 0.88701  0.78450  0.71040  Biso   1.000  C
  C111     1.0000 0.85302  0.78919  0.55953  Biso   1.000  C
  O92      1.0000 0.99052  0.78161  0.72285  Biso   1.000  O
  O93      1.0000 0.75913  0.79761  0.55493  Biso   1.000  O
  C112     1.0000 0.91067  0.81721  0.48399  Biso   1.000  C
  C113     1.0000 0.04263  0.81271  0.65411  Biso   1.000  C
  C114     1.0000 0.69263  0.77070  0.51088  Biso   1.000  C
  O94      1.0000 0.88638  0.81291  0.33647  Biso   1.000  O
  C115     1.0000 0.01559  0.81241  0.50513  Biso   1.000  C
  O95      1.0000 0.01348  0.84631  0.71992  Biso   1.000  O
  O96      1.0000 0.63413  0.76020  0.62858  Biso   1.000  O
  C116     1.0000 0.63680  0.78681  0.40029  Biso   1.000  C
  O97      1.0000 0.06383  0.84431  0.43796  Biso   1.000  O
  C117     1.0000 0.06987  0.86300  0.81670  Biso   1.000  C
  C118     1.0000 0.58827  0.79361  0.69607  Biso   1.000  C
  C119     1.0000 0.57718  0.81979  0.45125  Biso   1.000  C
  O98      1.0000 0.69529  0.79611  0.28667  Biso   1.000  O
  C120     1.0000 0.07022  0.90279  0.78060  Biso   1.000  C
  C121     1.0000 0.03912  0.85550  0.95982  Biso   1.000  C
  C122     1.0000 0.53020  0.77731  0.81827  Biso   1.000  C
  C123     1.0000 0.52451  0.81099  0.58454  Biso   1.000  C
  O99      1.0000 0.51552  0.83129  0.34903  Biso   1.000  O
  C124     1.0000 0.12781  0.92520  0.89150  Biso   1.000  C
  O100     1.0000 0.12542  0.90981  0.64815  Biso   1.000  O
  C125     1.0000 0.04761  0.81749  0.02176  Biso   1.000  C
  O101     1.0000 0.07978  0.87971  0.06570  Biso   1.000  O
  O102     1.0000 0.44593  0.75721  0.77317  Biso   1.000  O
  O103     1.0000 0.49831  0.84659  0.64229  Biso   1.000  O
  O104     1.0000 0.11833  0.96551  0.87194  Biso   1.000  O
  C126     1.0000 0.07591  0.91709  0.03285  Biso   1.000  C
  O105     1.0000 0.14333  0.80610  0.01716  Biso   1.000  O
  C127     1.0000 0.40169  0.85300  0.65872  Biso   1.000  C
  O106     1.0000 0.98539  0.92981  0.02773  Biso   1.000  O
  C128     1.0000 0.37683  0.88990  0.61216  Biso   1.000  C
  O107     1.0000 0.37029  0.84981  0.80236  Biso   1.000  O
  C129     1.0000 0.94473  0.95491  0.14302  Biso   1.000  C
  C130     1.0000 0.42809  0.91881  0.70119  Biso   1.000  C
  O108     1.0000 0.40583  0.89479  0.46893  Biso   1.000  O
  C131     1.0000 0.42367  0.87491  0.89433  Biso   1.000  C
  C132     1.0000 0.86721  0.93439  0.21542  Biso   1.000  C
  C133     1.0000 0.90723  0.98959  0.05744  Biso   1.000  C
  C134     1.0000 0.40000  0.91281  0.84788  Biso   1.000  C
  O109     1.0000 0.39529  0.95671  0.66217  Biso   1.000  O
  C135     1.0000 0.38448  0.86300  0.04091  Biso   1.000  C
  O110     1.0000 0.82479  0.95910  0.30791  Biso   1.000  O
  C136     1.0000 0.90323  0.90121  0.30257  Biso   1.000  C
  C137     1.0000 0.85070  0.01191  0.16123  Biso   1.000  C
  O111     1.0000 0.98202  0.00819  0.99456  Biso   1.000  O
  O112     1.0000 0.46103  0.94041  0.92854  Biso   1.000  O
  O113     1.0000 0.29017  0.87971  0.06633  Biso   1.000  O
  C138     1.0000 0.77662  0.98850  0.23017  Biso   1.000  C
  O114     1.0000 0.97170  0.91151  0.39799  Biso   1.000  O
  O115     1.0000 0.80358  0.03990  0.08883  Biso   1.000  O
  C139     1.0000 0.43490  0.95221  0.06822  Biso   1.000  C
  O116     1.0000 0.71861  0.97520  0.13559  Biso   1.000  O
  C140     1.0000 0.45962  0.99200  0.08757  Biso   1.000  C
  O117     1.0000 0.48413  0.93119  0.17064  Biso   1.000  O
  C141     1.0000 0.62170  0.97429  0.17263  Biso   1.000  C
  C142     1.0000 0.57233  0.99731  0.06633  Biso   1.000  C
  O118     1.0000 0.41419  0.01619  0.99278  Biso   1.000  O
  C143     1.0000 0.58659  0.93419  0.15851  Biso   1.000  C
  O119     1.0000 0.59312  0.03549  0.09489  Biso   1.000  O
  C144     1.0000 0.62563  0.90709  0.27453  Biso   1.000  C
  O120     1.0000 0.59747  0.91789  0.40772  Biso   1.000  O
