data_image0
_cell_length_a       24.569
_cell_length_b       13.681
_cell_length_c       15.475
_cell_angle_alpha    90
_cell_angle_beta     90
_cell_angle_gamma    90

_symmetry_space_group_name_H-M    "P 1"
_symmetry_int_tables_number       1

loop_
  _symmetry_equiv_pos_as_xyz
  'x, y, z'

loop_
  _atom_site_label
  _atom_site_occupancy
  _atom_site_fract_x
  _atom_site_fract_y
  _atom_site_fract_z
  _atom_site_thermal_displace_type
  _atom_site_B_iso_or_equiv
  _atom_site_type_symbol
  O1       1.0000 0.42981  0.50450  0.50850  Biso   1.000  O
  C1       1.0000 0.38801  0.43769  0.48711  Biso   1.000  C
  C2       1.0000 0.42118  0.60712  0.49758  Biso   1.000  C
  O2       1.0000 0.40352  0.37797  0.41641  Biso   1.000  O
  C3       1.0000 0.37759  0.37431  0.56679  Biso   1.000  C
  C4       1.0000 0.43449  0.65288  0.58468  Biso   1.000  C
  C5       1.0000 0.45948  0.64220  0.42708  Biso   1.000  C
  C6       1.0000 0.45452  0.32790  0.42960  Biso   1.000  C
  C7       1.0000 0.43058  0.32161  0.58908  Biso   1.000  C
  O3       1.0000 0.35870  0.43323  0.63780  Biso   1.000  O
  C8       1.0000 0.43722  0.76222  0.57467  Biso   1.000  C
  O4       1.0000 0.39281  0.62510  0.64381  Biso   1.000  O
  C9       1.0000 0.44259  0.60588  0.33648  Biso   1.000  C
  O5       1.0000 0.45920  0.74892  0.42352  Biso   1.000  O
  C10      1.0000 0.46298  0.26818  0.34817  Biso   1.000  C
  C11      1.0000 0.45358  0.26687  0.51218  Biso   1.000  C
  O6       1.0000 0.42179  0.25261  0.65887  Biso   1.000  O
  C12      1.0000 0.47690  0.79059  0.50307  Biso   1.000  C
  O7       1.0000 0.45488  0.80403  0.65622  Biso   1.000  O
  O8       1.0000 0.38512  0.62013  0.32239  Biso   1.000  O
  O9       1.0000 0.42700  0.18719  0.34139  Biso   1.000  O
  O10      1.0000 0.50820  0.24106  0.53712  Biso   1.000  O
  O11      1.0000 0.52908  0.75521  0.52627  Biso   1.000  O
  C13      1.0000 0.52721  0.14721  0.52013  Biso   1.000  C
  C14      1.0000 0.57328  0.82348  0.53383  Biso   1.000  C
  C15      1.0000 0.55599  0.11300  0.60368  Biso   1.000  C
  O12      1.0000 0.56351  0.14378  0.44931  Biso   1.000  O
  C16      1.0000 0.59840  0.80857  0.62300  Biso   1.000  C
  C17      1.0000 0.61439  0.80572  0.46417  Biso   1.000  C
  C18      1.0000 0.60821  0.17170  0.61829  Biso   1.000  C
  O13      1.0000 0.51988  0.11790  0.67528  Biso   1.000  O
  C19      1.0000 0.61158  0.20379  0.46068  Biso   1.000  C
  C20      1.0000 0.65001  0.86821  0.63212  Biso   1.000  C
  O14      1.0000 0.56099  0.83832  0.68879  Biso   1.000  O
  C21      1.0000 0.59282  0.82838  0.37221  Biso   1.000  C
  O15      1.0000 0.66201  0.86448  0.47767  Biso   1.000  O
  C22      1.0000 0.64362  0.16899  0.53719  Biso   1.000  C
  O16      1.0000 0.63759  0.12960  0.68950  Biso   1.000  O
  C23      1.0000 0.64268  0.19377  0.37409  Biso   1.000  C
  C24      1.0000 0.68859  0.84489  0.55813  Biso   1.000  C
  O17      1.0000 0.67809  0.84431  0.71121  Biso   1.000  O
  O18      1.0000 0.57198  0.92427  0.36543  Biso   1.000  O
  O19      1.0000 0.68839  0.23302  0.55742  Biso   1.000  O
  O20      1.0000 0.70459  0.74790  0.56472  Biso   1.000  O
  C25      1.0000 0.74199  0.20159  0.54029  Biso   1.000  C
  C26      1.0000 0.76120  0.72232  0.55522  Biso   1.000  C
  C27      1.0000 0.77651  0.22476  0.62113  Biso   1.000  C
  O21      1.0000 0.76458  0.24779  0.46708  Biso   1.000  O
  C28      1.0000 0.77712  0.67027  0.63929  Biso   1.000  C
  C29      1.0000 0.76641  0.66011  0.47593  Biso   1.000  C
  C30      1.0000 0.77960  0.33514  0.63412  Biso   1.000  C
  O22      1.0000 0.75359  0.17652  0.69447  Biso   1.000  O
  C31      1.0000 0.76238  0.35392  0.47399  Biso   1.000  C
  C32      1.0000 0.83341  0.62181  0.62740  Biso   1.000  C
  O23      1.0000 0.78021  0.74169  0.70850  Biso   1.000  O
  O24      1.0000 0.81900  0.61019  0.47431  Biso   1.000  O
  C33      1.0000 0.76190  0.71851  0.39218  Biso   1.000  C
  C34      1.0000 0.79682  0.38659  0.55050  Biso   1.000  C
  O25      1.0000 0.81701  0.35918  0.70268  Biso   1.000  O
  C35      1.0000 0.78172  0.39390  0.38727  Biso   1.000  C
  C36      1.0000 0.82999  0.55559  0.54882  Biso   1.000  C
  O26      1.0000 0.84892  0.56838  0.70158  Biso   1.000  O
  O27      1.0000 0.78969  0.80908  0.39612  Biso   1.000  O
  O28      1.0000 0.78819  0.48798  0.56498  Biso   1.000  O
  O29      1.0000 0.84090  0.38623  0.37977  Biso   1.000  O
  O30      1.0000 0.43901  0.33828  0.81118  Biso   1.000  O
  C37      1.0000 0.40160  0.30860  0.87703  Biso   1.000  C
  C38      1.0000 0.34999  0.36817  0.86792  Biso   1.000  C
  C39      1.0000 0.42672  0.32351  0.96620  Biso   1.000  C
  C40      1.0000 0.31141  0.34493  0.94191  Biso   1.000  C
  O31      1.0000 0.32191  0.34427  0.78882  Biso   1.000  O
  C41      1.0000 0.38561  0.30568  0.03580  Biso   1.000  C
  O32      1.0000 0.47092  0.25517  0.97370  Biso   1.000  O
  O33      1.0000 0.29541  0.24794  0.93532  Biso   1.000  O
  O34      1.0000 0.33799  0.36452  0.02229  Biso   1.000  O
  C42      1.0000 0.40718  0.32841  0.12782  Biso   1.000  C
  C43      1.0000 0.52310  0.29062  0.99690  Biso   1.000  C
  C44      1.0000 0.23880  0.22228  0.94481  Biso   1.000  C
  O35      1.0000 0.42802  0.42431  0.13460  Biso   1.000  O
  C45      1.0000 0.56278  0.26219  0.92530  Biso   1.000  C
  O36      1.0000 0.54080  0.24889  0.07651  Biso   1.000  O
  C46      1.0000 0.22288  0.17031  0.86068  Biso   1.000  C
  C47      1.0000 0.23359  0.16008  0.02410  Biso   1.000  C
  C48      1.0000 0.56551  0.15291  0.91528  Biso   1.000  C
  O37      1.0000 0.54512  0.30400  0.84381  Biso   1.000  O
  C49      1.0000 0.54052  0.14217  0.07289  Biso   1.000  C
  O38      1.0000 0.21979  0.24172  0.79147  Biso   1.000  O
  C50      1.0000 0.16659  0.12177  0.87257  Biso   1.000  C
  O39      1.0000 0.18100  0.11023  0.02572  Biso   1.000  O
  C51      1.0000 0.23810  0.21848  0.10779  Biso   1.000  C
  O40      1.0000 0.60719  0.12506  0.85622  Biso   1.000  O
  C52      1.0000 0.57882  0.10708  0.00239  Biso   1.000  C
  C53      1.0000 0.55741  0.10591  0.16349  Biso   1.000  C
  C54      1.0000 0.17001  0.05562  0.95121  Biso   1.000  C
  O41      1.0000 0.15108  0.06842  0.79838  Biso   1.000  O
  O42      1.0000 0.21031  0.30911  0.10391  Biso   1.000  O
  O43      1.0000 0.57019  0.00453  0.99147  Biso   1.000  O
  O44      1.0000 0.61488  0.12009  0.17758  Biso   1.000  O
  O45      1.0000 0.21181  0.98801  0.93499  Biso   1.000  O
  C55      1.0000 0.61199  0.93772  0.01292  Biso   1.000  C
  C56      1.0000 0.20318  0.88663  0.94953  Biso   1.000  C
  C57      1.0000 0.62241  0.87428  0.93318  Biso   1.000  C
  O46      1.0000 0.59648  0.87801  0.08362  Biso   1.000  O
  C58      1.0000 0.22040  0.83510  0.86591  Biso   1.000  C
  C59      1.0000 0.23762  0.85388  0.02598  Biso   1.000  C
  C60      1.0000 0.56942  0.82158  0.91089  Biso   1.000  C
  O47      1.0000 0.64130  0.93319  0.86223  Biso   1.000  O
  C61      1.0000 0.54548  0.82786  0.07037  Biso   1.000  C
  C62      1.0000 0.22349  0.72480  0.87890  Biso   1.000  C
  O48      1.0000 0.18299  0.85922  0.79729  Biso   1.000  O
  C63      1.0000 0.21828  0.89387  0.11270  Biso   1.000  C
  O49      1.0000 0.23542  0.74783  0.03289  Biso   1.000  O
  C64      1.0000 0.54642  0.76690  0.98779  Biso   1.000  C
  O50      1.0000 0.57821  0.75258  0.84110  Biso   1.000  O
  C65      1.0000 0.53702  0.76822  0.15179  Biso   1.000  C
  C66      1.0000 0.25801  0.70163  0.95968  Biso   1.000  C
  O51      1.0000 0.24641  0.67649  0.80549  Biso   1.000  O
  O52      1.0000 0.15910  0.88619  0.12019  Biso   1.000  O
  O53      1.0000 0.49180  0.74110  0.96291  Biso   1.000  O
  O54      1.0000 0.57300  0.68723  0.15858  Biso   1.000  O
  O55      1.0000 0.31161  0.73299  0.94262  Biso   1.000  O
  C67      1.0000 0.47279  0.64717  0.97990  Biso   1.000  C
  C68      1.0000 0.35638  0.66903  0.96278  Biso   1.000  C
  C69      1.0000 0.44401  0.61297  0.89628  Biso   1.000  C
  O56      1.0000 0.43649  0.64381  0.05073  Biso   1.000  O
  C70      1.0000 0.39179  0.67173  0.88168  Biso   1.000  C
  C71      1.0000 0.38842  0.70382  0.03929  Biso   1.000  C
  O57      1.0000 0.48012  0.61786  0.82468  Biso   1.000  O
  O58      1.0000 0.36241  0.62963  0.81047  Biso   1.000  O
  C72      1.0000 0.35732  0.69381  0.12588  Biso   1.000  C
  O59      1.0000 0.65111  0.43162  0.20162  Biso   1.000  O
  C73      1.0000 0.66661  0.37819  0.12743  Biso   1.000  C
  C74      1.0000 0.66999  0.44441  0.04879  Biso   1.000  C
  C75      1.0000 0.72290  0.32973  0.13932  Biso   1.000  C
  O60      1.0000 0.71179  0.51202  0.06501  Biso   1.000  O
  O61      1.0000 0.68098  0.38981  0.97428  Biso   1.000  O
  C76      1.0000 0.73882  0.27768  0.05519  Biso   1.000  C
  O62      1.0000 0.71981  0.25831  0.20853  Biso   1.000  O
  C77      1.0000 0.70320  0.61341  0.05047  Biso   1.000  C
  C78      1.0000 0.73361  0.33989  0.97590  Biso   1.000  C
  O63      1.0000 0.79539  0.25210  0.06468  Biso   1.000  O
  C79      1.0000 0.72042  0.66486  0.13409  Biso   1.000  C
  C80      1.0000 0.73760  0.64608  0.97402  Biso   1.000  C
  C81      1.0000 0.73808  0.28149  0.89221  Biso   1.000  C
  C82      1.0000 0.81139  0.15511  0.05809  Biso   1.000  C
  C83      1.0000 0.72351  0.77524  0.12110  Biso   1.000  C
  O64      1.0000 0.68302  0.64082  0.20271  Biso   1.000  O
  C84      1.0000 0.71830  0.60610  0.88730  Biso   1.000  C
  O65      1.0000 0.73540  0.75221  0.96711  Biso   1.000  O
  O66      1.0000 0.71029  0.19092  0.89609  Biso   1.000  O
  C85      1.0000 0.85001  0.13179  0.13208  Biso   1.000  C
  O67      1.0000 0.83801  0.13552  0.97771  Biso   1.000  O
  C86      1.0000 0.75799  0.79841  0.04032  Biso   1.000  C
  O68      1.0000 0.74639  0.82348  0.19451  Biso   1.000  O
  O69      1.0000 0.65908  0.61377  0.87981  Biso   1.000  O
  C87      1.0000 0.90158  0.19143  0.12297  Biso   1.000  C
  O70      1.0000 0.82189  0.15569  0.21118  Biso   1.000  O
  C88      1.0000 0.88559  0.19428  0.96420  Biso   1.000  C
  O71      1.0000 0.81159  0.76698  0.05738  Biso   1.000  O
  C89      1.0000 0.92670  0.17652  0.03380  Biso   1.000  C
  O72      1.0000 0.93899  0.16168  0.18882  Biso   1.000  O
  C90      1.0000 0.90720  0.17162  0.87218  Biso   1.000  C
  C91      1.0000 0.85640  0.83101  0.03722  Biso   1.000  C
  O73      1.0000 0.97090  0.24479  0.02630  Biso   1.000  O
  O74      1.0000 0.92800  0.07573  0.86540  Biso   1.000  O
  C92      1.0000 0.89181  0.82830  0.11832  Biso   1.000  C
  C93      1.0000 0.88840  0.79621  0.96071  Biso   1.000  C
  C94      1.0000 0.02312  0.20941  0.00310  Biso   1.000  C
  C95      1.0000 0.94399  0.88700  0.10372  Biso   1.000  C
  O75      1.0000 0.86239  0.87040  0.18953  Biso   1.000  O
  C96      1.0000 0.85730  0.80623  0.87412  Biso   1.000  C
  O76      1.0000 0.93651  0.85622  0.94927  Biso   1.000  O
  O77      1.0000 0.04078  0.25108  0.92349  Biso   1.000  O
  C97      1.0000 0.06280  0.23778  0.07470  Biso   1.000  C
  C98      1.0000 0.97281  0.85279  0.02010  Biso   1.000  C
  O78      1.0000 0.98010  0.88210  0.17532  Biso   1.000  O
  C99      1.0000 0.04050  0.35780  0.92711  Biso   1.000  C
  C100     1.0000 0.06549  0.34712  0.08472  Biso   1.000  C
  O79      1.0000 0.04510  0.19597  0.15619  Biso   1.000  O
  O80      1.0000 0.99182  0.75894  0.03709  Biso   1.000  O
  C101     1.0000 0.07880  0.39288  0.99761  Biso   1.000  C
  C102     1.0000 0.05739  0.39412  0.83651  Biso   1.000  C
  O81      1.0000 0.10721  0.37490  0.14378  Biso   1.000  O
  C103     1.0000 0.04640  0.73313  0.01221  Biso   1.000  C
  O82      1.0000 0.07021  0.49550  0.00853  Biso   1.000  O
  O83      1.0000 0.11490  0.37987  0.82242  Biso   1.000  O
  C104     1.0000 0.04550  0.67210  0.92963  Biso   1.000  C
  C105     1.0000 0.06940  0.67839  0.08911  Biso   1.000  C
  C106     1.0000 0.11201  0.56231  0.98708  Biso   1.000  C
  C107     1.0000 0.03700  0.73182  0.84821  Biso   1.000  C
  O84      1.0000 0.09650  0.62203  0.91638  Biso   1.000  O
  C108     1.0000 0.12239  0.62569  0.06682  Biso   1.000  C
  O85      1.0000 0.07819  0.74739  0.15890  Biso   1.000  O
  O86      1.0000 0.07302  0.81281  0.84142  Biso   1.000  O
  O87      1.0000 0.14132  0.56677  0.13777  Biso   1.000  O
  O88      1.0000 0.28971  0.69089  0.60388  Biso   1.000  O
  C109     1.0000 0.26192  0.78152  0.60782  Biso   1.000  C
  C110     1.0000 0.26639  0.83992  0.52407  Biso   1.000  C
  C111     1.0000 0.26118  0.77772  0.44478  Biso   1.000  C
  O89      1.0000 0.31902  0.88977  0.52569  Biso   1.000  O
  O90      1.0000 0.20461  0.75206  0.43528  Biso   1.000  O
  C112     1.0000 0.27710  0.82969  0.36071  Biso   1.000  C
  C113     1.0000 0.33001  0.94438  0.45118  Biso   1.000  C
  C114     1.0000 0.18861  0.65507  0.44187  Biso   1.000  C
  C115     1.0000 0.33339  0.87823  0.37260  Biso   1.000  C
  O91      1.0000 0.28019  0.75828  0.29150  Biso   1.000  O
  O92      1.0000 0.28821  0.01199  0.43502  Biso   1.000  O
  C116     1.0000 0.14999  0.63183  0.36788  Biso   1.000  C
  O93      1.0000 0.16199  0.63548  0.52233  Biso   1.000  O
  O94      1.0000 0.34889  0.93158  0.29842  Biso   1.000  O
  C117     1.0000 0.29680  0.11337  0.44950  Biso   1.000  C
  O95      1.0000 0.17811  0.65573  0.28879  Biso   1.000  O
  C118     1.0000 0.09842  0.69140  0.37700  Biso   1.000  C
  C119     1.0000 0.11441  0.69432  0.53583  Biso   1.000  C
  C120     1.0000 0.27958  0.16490  0.36588  Biso   1.000  C
  C121     1.0000 0.26240  0.14612  0.52601  Biso   1.000  C
  C122     1.0000 0.07330  0.67649  0.46617  Biso   1.000  C
  O96      1.0000 0.06101  0.66172  0.31121  Biso   1.000  O
  C123     1.0000 0.09280  0.67159  0.62779  Biso   1.000  C
  C124     1.0000 0.27649  0.27520  0.37887  Biso   1.000  C
  O97      1.0000 0.31698  0.14078  0.29732  Biso   1.000  O
  C125     1.0000 0.28170  0.10613  0.61273  Biso   1.000  C
  O98      1.0000 0.26460  0.25217  0.53292  Biso   1.000  O
  O99      1.0000 0.02910  0.74483  0.47373  Biso   1.000  O
  O100     1.0000 0.07200  0.57569  0.63457  Biso   1.000  O
  C126     1.0000 0.24201  0.29837  0.45971  Biso   1.000  C
  O101     1.0000 0.25361  0.32351  0.30553  Biso   1.000  O
  O102     1.0000 0.34092  0.11381  0.62023  Biso   1.000  O
  C127     1.0000 0.97688  0.70938  0.49693  Biso   1.000  C
  O103     1.0000 0.18841  0.26701  0.44258  Biso   1.000  O
  C128     1.0000 0.93720  0.73781  0.42533  Biso   1.000  C
  O104     1.0000 0.95922  0.75111  0.57648  Biso   1.000  O
  C129     1.0000 0.14360  0.33097  0.46281  Biso   1.000  C
  C130     1.0000 0.93451  0.84709  0.41532  Biso   1.000  C
  O105     1.0000 0.95490  0.69600  0.34378  Biso   1.000  O
  C131     1.0000 0.95950  0.85783  0.57292  Biso   1.000  C
  C132     1.0000 0.10819  0.32827  0.38171  Biso   1.000  C
  C133     1.0000 0.11160  0.29618  0.53932  Biso   1.000  C
  C134     1.0000 0.92120  0.89292  0.50242  Biso   1.000  C
  O106     1.0000 0.89279  0.87494  0.35619  Biso   1.000  O
  C135     1.0000 0.94261  0.89409  0.66352  Biso   1.000  C
  C136     1.0000 0.05601  0.38703  0.39632  Biso   1.000  C
  O107     1.0000 0.13761  0.37037  0.31050  Biso   1.000  O
  C137     1.0000 0.14270  0.30619  0.62591  Biso   1.000  C
  O108     1.0000 0.06349  0.35619  0.55069  Biso   1.000  O
  O109     1.0000 0.92979  0.99547  0.49150  Biso   1.000  O
  O110     1.0000 0.88510  0.87991  0.67761  Biso   1.000  O
  C138     1.0000 0.02719  0.35283  0.47987  Biso   1.000  C
  O111     1.0000 0.01990  0.38214  0.32472  Biso   1.000  O
  C139     1.0000 0.88799  0.06228  0.51289  Biso   1.000  C
  O112     1.0000 0.00818  0.25890  0.46288  Biso   1.000  O
  C140     1.0000 0.87761  0.12572  0.43321  Biso   1.000  C
  O113     1.0000 0.90350  0.12199  0.58359  Biso   1.000  O
  C141     1.0000 0.95360  0.23310  0.48782  Biso   1.000  C
  C142     1.0000 0.93060  0.17842  0.41092  Biso   1.000  C
  O114     1.0000 0.85868  0.06681  0.36220  Biso   1.000  O
  C143     1.0000 0.95450  0.17214  0.57040  Biso   1.000  C
  O115     1.0000 0.92181  0.24742  0.34113  Biso   1.000  O
  C144     1.0000 0.96300  0.23178  0.65183  Biso   1.000  C
  O116     1.0000 0.92698  0.31277  0.65861  Biso   1.000  O
