data_image0
_cell_length_a       18.865
_cell_length_b       17.828
_cell_length_c       20.315
_cell_angle_alpha    90
_cell_angle_beta     107.06
_cell_angle_gamma    90

_symmetry_space_group_name_H-M    "P 1"
_symmetry_int_tables_number       1

loop_
  _symmetry_equiv_pos_as_xyz
  'x, y, z'

loop_
  _atom_site_label
  _atom_site_occupancy
  _atom_site_fract_x
  _atom_site_fract_y
  _atom_site_fract_z
  _atom_site_thermal_displace_type
  _atom_site_B_iso_or_equiv
  _atom_site_type_symbol
  O1       1.0000 0.56116  0.41642  0.47706  Biso   1.000  O
  C1       1.0000 0.62269  0.46096  0.50152  Biso   1.000  C
  H1       1.0000 0.57015  0.38282  0.45167  Biso   1.000  H
  C2       1.0000 0.66677  0.47711  0.45883  Biso   1.000  C
  C3       1.0000 0.63897  0.49035  0.56748  Biso   1.000  C
  C4       1.0000 0.65176  0.44161  0.38849  Biso   1.000  C
  C5       1.0000 0.72780  0.52317  0.48391  Biso   1.000  C
  C6       1.0000 0.70203  0.53506  0.59075  Biso   1.000  C
  C7       1.0000 0.59273  0.47128  0.61510  Biso   1.000  C
  C8       1.0000 0.69049  0.36678  0.39364  Biso   1.000  C
  H2       1.0000 0.66950  0.47532  0.35791  Biso   1.000  H
  H3       1.0000 0.59766  0.43449  0.36810  Biso   1.000  H
  C9       1.0000 0.74606  0.55166  0.54940  Biso   1.000  C
  H4       1.0000 0.75776  0.53528  0.45507  Biso   1.000  H
  H5       1.0000 0.71484  0.55458  0.63616  Biso   1.000  H
  H6       1.0000 0.54076  0.46231  0.58751  Biso   1.000  H
  H7       1.0000 0.59334  0.51419  0.64620  Biso   1.000  H
  C10      1.0000 0.62260  0.40246  0.65727  Biso   1.000  C
  C11      1.0000 0.65446  0.29846  0.39385  Biso   1.000  C
  C12      1.0000 0.76728  0.36460  0.40384  Biso   1.000  C
  H8       1.0000 0.78865  0.58251  0.56609  Biso   1.000  H
  C13      1.0000 0.59393  0.33133  0.63786  Biso   1.000  C
  C14      1.0000 0.68405  0.40722  0.71556  Biso   1.000  C
  O2       1.0000 0.57730  0.29886  0.38067  Biso   1.000  O
  C15      1.0000 0.69136  0.23070  0.40847  Biso   1.000  C
  C16      1.0000 0.80463  0.29801  0.41599  Biso   1.000  C
  H9       1.0000 0.79346  0.40969  0.40229  Biso   1.000  H
  C17      1.0000 0.62689  0.26604  0.67071  Biso   1.000  C
  O3       1.0000 0.53140  0.32483  0.58071  Biso   1.000  O
  C18      1.0000 0.71570  0.34384  0.75063  Biso   1.000  C
  H10      1.0000 0.70446  0.45501  0.73116  Biso   1.000  H
  C19      1.0000 0.53923  0.30177  0.30832  Biso   1.000  C
  C20      1.0000 0.76841  0.23188  0.41949  Biso   1.000  C
  C21      1.0000 0.65171  0.15818  0.41501  Biso   1.000  C
  H11      1.0000 0.85646  0.29729  0.42217  Biso   1.000  H
  C22      1.0000 0.59882  0.18847  0.64476  Biso   1.000  C
  C23      1.0000 0.68822  0.27395  0.72807  Biso   1.000  C
  C24      1.0000 0.46198  0.32247  0.59636  Biso   1.000  C
  H12      1.0000 0.75682  0.34838  0.79069  Biso   1.000  H
  C25      1.0000 0.45865  0.31512  0.30209  Biso   1.000  C
  H13      1.0000 0.55898  0.34311  0.28629  Biso   1.000  H
  H14      1.0000 0.54546  0.25398  0.28577  Biso   1.000  H
  H15      1.0000 0.79574  0.18650  0.42948  Biso   1.000  H
  C26      1.0000 0.66554  0.13507  0.48916  Biso   1.000  C
  H16      1.0000 0.66889  0.11790  0.38989  Biso   1.000  H
  H17      1.0000 0.59775  0.16480  0.39339  Biso   1.000  H
  C27      1.0000 0.64141  0.15156  0.60038  Biso   1.000  C
  H18      1.0000 0.60174  0.15582  0.68487  Biso   1.000  H
  H19      1.0000 0.54595  0.19228  0.61768  Biso   1.000  H
  H20      1.0000 0.71154  0.23059  0.75207  Biso   1.000  H
  C28      1.0000 0.40387  0.30979  0.52855  Biso   1.000  C
  H21      1.0000 0.46168  0.28107  0.62880  Biso   1.000  H
  H22      1.0000 0.45295  0.37032  0.61727  Biso   1.000  H
  O4       1.0000 0.42622  0.33913  0.23351  Biso   1.000  O
  H23      1.0000 0.45335  0.35422  0.33500  Biso   1.000  H
  H24      1.0000 0.43498  0.26840  0.31141  Biso   1.000  H
  C29      1.0000 0.62709  0.16962  0.53056  Biso   1.000  C
  C30      1.0000 0.71797  0.08072  0.52005  Biso   1.000  C
  C31      1.0000 0.69446  0.09771  0.62787  Biso   1.000  C
  O5       1.0000 0.33999  0.28231  0.54430  Biso   1.000  O
  H25      1.0000 0.42146  0.27277  0.50049  Biso   1.000  H
  H26      1.0000 0.39238  0.35730  0.50239  Biso   1.000  H
  C32      1.0000 0.35322  0.36112  0.21569  Biso   1.000  C
  O6       1.0000 0.57307  0.22033  0.50085  Biso   1.000  O
  H27      1.0000 0.74453  0.05598  0.49307  Biso   1.000  H
  C33      1.0000 0.73221  0.06181  0.58828  Biso   1.000  C
  H28      1.0000 0.70526  0.08520  0.67530  Biso   1.000  H
  C34      1.0000 0.28397  0.25353  0.49096  Biso   1.000  C
  C35      1.0000 0.30552  0.34519  0.25380  Biso   1.000  C
  C36      1.0000 0.32773  0.40178  0.15514  Biso   1.000  C
  H29      1.0000 0.55885  0.21360  0.45801  Biso   1.000  H
  H30      1.0000 0.76786  0.02429  0.60800  Biso   1.000  H
  C37      1.0000 0.22761  0.21747  0.50836  Biso   1.000  C
  C38      1.0000 0.28053  0.25982  0.42268  Biso   1.000  C
  C39      1.0000 0.23265  0.37020  0.23088  Biso   1.000  C
  H31      1.0000 0.32227  0.31742  0.29540  Biso   1.000  H
  C40      1.0000 0.25505  0.42540  0.13279  Biso   1.000  C
  H32      1.0000 0.36060  0.41351  0.12898  Biso   1.000  H
  C41      1.0000 0.16956  0.18521  0.45837  Biso   1.000  C
  H33      1.0000 0.22854  0.21472  0.55527  Biso   1.000  H
  C42      1.0000 0.22205  0.22678  0.37248  Biso   1.000  C
  H34      1.0000 0.31788  0.28652  0.40971  Biso   1.000  H
  C43      1.0000 0.20574  0.41048  0.17054  Biso   1.000  C
  H35      1.0000 0.20017  0.35921  0.25761  Biso   1.000  H
  H36      1.0000 0.23819  0.45238  0.09067  Biso   1.000  H
  C44      1.0000 0.16597  0.18779  0.38911  Biso   1.000  C
  H37      1.0000 0.13118  0.16070  0.47160  Biso   1.000  H
  H38      1.0000 0.22045  0.23110  0.32547  Biso   1.000  H
  C45      1.0000 0.12292  0.43174  0.14345  Biso   1.000  C
  C46      1.0000 0.09984  0.15212  0.33464  Biso   1.000  C
  C47      1.0000 0.09220  0.44503  0.20359  Biso   1.000  C
  C48      1.0000 0.08230  0.36802  0.09876  Biso   1.000  C
  C49      1.0000 0.11171  0.50460  0.10025  Biso   1.000  C
  C50      1.0000 0.03258  0.20215  0.32526  Biso   1.000  C
  C51      1.0000 0.11741  0.14113  0.26677  Biso   1.000  C
  C52      1.0000 0.08147  0.07438  0.35940  Biso   1.000  C
  N1       1.0000 0.03340  0.40526  0.21312  Biso   1.000  N
  C53      1.0000 0.11428  0.49490  0.25704  Biso   1.000  C
  N2       1.0000 0.09897  0.29426  0.11611  Biso   1.000  N
  C54      1.0000 0.02338  0.36729  0.04011  Biso   1.000  C
  H39      1.0000 0.14288  0.54448  0.12708  Biso   1.000  H
  H40      1.0000 0.12550  0.49568  0.05798  Biso   1.000  H
  H41      1.0000 0.05949  0.51980  0.08831  Biso   1.000  H
  N3       1.0000 0.03677  0.27866  0.31790  Biso   1.000  N
  C55      1.0000 0.96017  0.18561  0.31924  Biso   1.000  C
  N4       1.0000 0.06972  0.16109  0.20390  Biso   1.000  N
  C56      1.0000 0.17824  0.10882  0.25411  Biso   1.000  C
  H42      1.0000 0.04090  0.05132  0.32341  Biso   1.000  H
  H43      1.0000 0.12535  0.04212  0.36908  Biso   1.000  H
  H44      1.0000 0.06648  0.08038  0.40137  Biso   1.000  H
  H45      1.0000 0.00910  0.36970  0.18552  Biso   1.000  H
  C57      1.0000 0.01811  0.42893  0.27192  Biso   1.000  C
  C58      1.0000 0.06814  0.48457  0.30024  Biso   1.000  C
  H46      1.0000 0.15355  0.53012  0.26389  Biso   1.000  H
  H47      1.0000 0.13499  0.27939  0.15210  Biso   1.000  H
  C59      1.0000 0.05258  0.24697  0.07028  Biso   1.000  C
  C60      1.0000 0.00488  0.29151  0.02183  Biso   1.000  C
  H48      1.0000 0.99909  0.41009  0.01591  Biso   1.000  H
  C61      1.0000 0.96816  0.31131  0.30693  Biso   1.000  C
  H49      1.0000 0.07780  0.30329  0.31991  Biso   1.000  H
  C62      1.0000 0.91970  0.25426  0.30776  Biso   1.000  C
  H50      1.0000 0.94037  0.13709  0.32218  Biso   1.000  H
  C63      1.0000 0.10003  0.14281  0.15185  Biso   1.000  C
  H51      1.0000 0.02617  0.18252  0.19777  Biso   1.000  H
  C64      1.0000 0.16757  0.11044  0.18243  Biso   1.000  C
  H52      1.0000 0.22015  0.08879  0.28778  Biso   1.000  H
  C65      1.0000 0.95641  0.39494  0.29592  Biso   1.000  C
  H53      1.0000 0.07127  0.51139  0.34138  Biso   1.000  H
  C66      1.0000 0.06181  0.16239  0.07770  Biso   1.000  C
  H54      1.0000 0.96636  0.27462  0.98311  Biso   1.000  H
  H55      1.0000 0.86806  0.25959  0.30168  Biso   1.000  H
  H56      1.0000 0.20128  0.09233  0.15941  Biso   1.000  H
  C67      1.0000 0.95515  0.43280  0.36342  Biso   1.000  C
  C68      1.0000 0.88081  0.40840  0.24252  Biso   1.000  C
  C69      1.0000 0.10866  0.13479  0.03218  Biso   1.000  C
  C70      1.0000 0.98510  0.12458  0.05267  Biso   1.000  C
  H57      1.0000 0.00295  0.42529  0.39828  Biso   1.000  H
  H58      1.0000 0.94595  0.48659  0.35559  Biso   1.000  H
  H59      1.0000 0.91565  0.41070  0.37948  Biso   1.000  H
  H60      1.0000 0.88106  0.38692  0.19819  Biso   1.000  H
  H61      1.0000 0.84181  0.38428  0.25802  Biso   1.000  H
  H62      1.0000 0.87118  0.46242  0.23722  Biso   1.000  H
  H63      1.0000 0.11299  0.07999  0.03532  Biso   1.000  H
  H64      1.0000 0.15820  0.15728  0.04789  Biso   1.000  H
  H65      1.0000 0.08462  0.14932  0.98430  Biso   1.000  H
  H66      1.0000 0.95557  0.13860  0.08321  Biso   1.000  H
  H67      1.0000 0.95972  0.14113  0.00572  Biso   1.000  H
  H68      1.0000 0.99129  0.07000  0.05329  Biso   1.000  H
  O7       1.0000 0.43878  0.58358  0.52294  Biso   1.000  O
  C71      1.0000 0.37724  0.53904  0.49843  Biso   1.000  C
  H69      1.0000 0.42977  0.61718  0.54827  Biso   1.000  H
  C72      1.0000 0.36090  0.50965  0.43247  Biso   1.000  C
  C73      1.0000 0.33317  0.52289  0.54116  Biso   1.000  C
  C74      1.0000 0.29791  0.46494  0.40925  Biso   1.000  C
  C75      1.0000 0.40719  0.52872  0.38484  Biso   1.000  C
  C76      1.0000 0.27212  0.47683  0.51604  Biso   1.000  C
  C77      1.0000 0.34818  0.55839  0.61150  Biso   1.000  C
  H70      1.0000 0.28508  0.44542  0.36378  Biso   1.000  H
  C78      1.0000 0.25383  0.44834  0.45059  Biso   1.000  C
  H71      1.0000 0.45918  0.53769  0.41249  Biso   1.000  H
  H72      1.0000 0.40655  0.48581  0.35379  Biso   1.000  H
  C79      1.0000 0.37733  0.59754  0.34267  Biso   1.000  C
  H73      1.0000 0.24216  0.46472  0.54487  Biso   1.000  H
  C80      1.0000 0.30945  0.63322  0.60635  Biso   1.000  C
  H74      1.0000 0.33044  0.52468  0.64209  Biso   1.000  H
  H75      1.0000 0.40223  0.56551  0.63189  Biso   1.000  H
  H76      1.0000 0.21129  0.41749  0.43391  Biso   1.000  H
  C81      1.0000 0.40599  0.66867  0.36208  Biso   1.000  C
  C82      1.0000 0.31583  0.59278  0.28443  Biso   1.000  C
  C83      1.0000 0.34548  0.70154  0.60614  Biso   1.000  C
  C84      1.0000 0.23264  0.63540  0.59610  Biso   1.000  C
  O8       1.0000 0.46853  0.67517  0.41929  Biso   1.000  O
  C85      1.0000 0.37303  0.73396  0.32923  Biso   1.000  C
  C86      1.0000 0.28424  0.65616  0.24937  Biso   1.000  C
  H77      1.0000 0.29546  0.54499  0.26878  Biso   1.000  H
  O9       1.0000 0.42264  0.70114  0.61933  Biso   1.000  O
  C87      1.0000 0.30858  0.76930  0.59152  Biso   1.000  C
  C88      1.0000 0.19530  0.70199  0.58395  Biso   1.000  C
  H78      1.0000 0.20648  0.59031  0.59770  Biso   1.000  H
  C89      1.0000 0.53794  0.67753  0.40358  Biso   1.000  C
  C90      1.0000 0.31170  0.72605  0.27187  Biso   1.000  C
  C91      1.0000 0.40112  0.81153  0.35523  Biso   1.000  C
  H79      1.0000 0.24307  0.65162  0.20931  Biso   1.000  H
  C92      1.0000 0.46071  0.69823  0.69167  Biso   1.000  C
  C93      1.0000 0.23153  0.76812  0.58050  Biso   1.000  C
  C94      1.0000 0.34823  0.84182  0.58498  Biso   1.000  C
  H80      1.0000 0.14346  0.70271  0.57777  Biso   1.000  H
  H81      1.0000 0.53826  0.71893  0.37119  Biso   1.000  H
  H82      1.0000 0.54698  0.62968  0.38268  Biso   1.000  H
  C95      1.0000 0.59606  0.69021  0.47145  Biso   1.000  C
  H83      1.0000 0.28838  0.76941  0.24787  Biso   1.000  H
  H84      1.0000 0.39819  0.84418  0.31507  Biso   1.000  H
  H85      1.0000 0.45399  0.80772  0.38232  Biso   1.000  H
  C96      1.0000 0.35853  0.84844  0.39962  Biso   1.000  C
  C97      1.0000 0.54127  0.68488  0.69785  Biso   1.000  C
  H86      1.0000 0.44095  0.65689  0.71371  Biso   1.000  H
  H87      1.0000 0.45446  0.74602  0.71417  Biso   1.000  H
  H88      1.0000 0.20414  0.81350  0.57051  Biso   1.000  H
  C98      1.0000 0.33439  0.86493  0.51078  Biso   1.000  C
  H89      1.0000 0.33105  0.88210  0.61011  Biso   1.000  H
  H90      1.0000 0.40214  0.83520  0.60661  Biso   1.000  H
  O10      1.0000 0.65994  0.71769  0.45569  Biso   1.000  O
  H91      1.0000 0.57848  0.72723  0.49951  Biso   1.000  H
  H92      1.0000 0.60756  0.64270  0.49760  Biso   1.000  H
  C99      1.0000 0.37283  0.83038  0.46939  Biso   1.000  C
  C100     1.0000 0.30541  0.90229  0.37207  Biso   1.000  C
  O11      1.0000 0.57372  0.66087  0.76649  Biso   1.000  O
  H93      1.0000 0.54653  0.64578  0.66500  Biso   1.000  H
  H94      1.0000 0.56495  0.73160  0.68858  Biso   1.000  H
  C101     1.0000 0.28192  0.91928  0.47994  Biso   1.000  C
  C102     1.0000 0.71597  0.74647  0.50903  Biso   1.000  C
  O12      1.0000 0.42687  0.77967  0.49915  Biso   1.000  O
  C103     1.0000 0.26768  0.93819  0.41172  Biso   1.000  C
  H95      1.0000 0.29468  0.91480  0.32470  Biso   1.000  H
  C104     1.0000 0.64670  0.63888  0.78425  Biso   1.000  C
  H96      1.0000 0.25533  0.94402  0.50687  Biso   1.000  H
  C105     1.0000 0.77233  0.78253  0.49163  Biso   1.000  C
  C106     1.0000 0.71941  0.74018  0.57731  Biso   1.000  C
  H97      1.0000 0.44104  0.78640  0.54199  Biso   1.000  H
  H98      1.0000 0.23208  0.97571  0.39200  Biso   1.000  H
  C107     1.0000 0.69442  0.65481  0.74620  Biso   1.000  C
  C108     1.0000 0.67219  0.59822  0.84480  Biso   1.000  C
  H99      1.0000 0.77139  0.78528  0.44467  Biso   1.000  H
  C109     1.0000 0.83032  0.81479  0.54163  Biso   1.000  C
  C110     1.0000 0.77789  0.77322  0.62751  Biso   1.000  C
  H100     1.0000 0.68206  0.71348  0.59029  Biso   1.000  H
  C111     1.0000 0.76728  0.62980  0.76911  Biso   1.000  C
  H101     1.0000 0.67767  0.68258  0.70459  Biso   1.000  H
  H102     1.0000 0.63932  0.58649  0.87096  Biso   1.000  H
  C112     1.0000 0.74489  0.57460  0.86720  Biso   1.000  C
  H103     1.0000 0.86876  0.83930  0.52839  Biso   1.000  H
  C113     1.0000 0.83391  0.81221  0.61088  Biso   1.000  C
  H104     1.0000 0.77942  0.76890  0.67447  Biso   1.000  H
  C114     1.0000 0.79418  0.58952  0.82941  Biso   1.000  C
  H105     1.0000 0.79976  0.64079  0.74239  Biso   1.000  H
  H106     1.0000 0.76173  0.54762  0.90927  Biso   1.000  H
  C115     1.0000 0.90005  0.84788  0.66536  Biso   1.000  C
  C116     1.0000 0.87696  0.56826  0.85654  Biso   1.000  C
  C117     1.0000 0.96735  0.79785  0.67468  Biso   1.000  C
  C118     1.0000 0.88251  0.85887  0.73317  Biso   1.000  C
  C119     1.0000 0.91847  0.92562  0.64059  Biso   1.000  C
  C120     1.0000 0.90774  0.55497  0.79640  Biso   1.000  C
  C121     1.0000 0.91757  0.63198  0.90118  Biso   1.000  C
  C122     1.0000 0.88822  0.49540  0.89974  Biso   1.000  C
  N5       1.0000 0.96315  0.72134  0.68204  Biso   1.000  N
  C123     1.0000 0.03977  0.81439  0.68075  Biso   1.000  C
  N6       1.0000 0.93020  0.83891  0.79604  Biso   1.000  N
  C124     1.0000 0.82170  0.89118  0.74589  Biso   1.000  C
  H107     1.0000 0.95904  0.94868  0.67658  Biso   1.000  H
  H108     1.0000 0.87454  0.95788  0.63091  Biso   1.000  H
  H109     1.0000 0.93344  0.91962  0.59858  Biso   1.000  H
  N7       1.0000 0.96653  0.59474  0.78688  Biso   1.000  N
  C125     1.0000 0.88566  0.50510  0.74295  Biso   1.000  C
  N8       1.0000 0.90092  0.70574  0.88388  Biso   1.000  N
  C126     1.0000 0.97656  0.63271  0.95988  Biso   1.000  C
  H110     1.0000 0.85705  0.45552  0.87287  Biso   1.000  H
  H111     1.0000 0.87442  0.50432  0.94197  Biso   1.000  H
  H112     1.0000 0.94045  0.48020  0.91169  Biso   1.000  H
  H113     1.0000 0.92214  0.69671  0.68009  Biso   1.000  H
  C127     1.0000 0.03173  0.68869  0.69306  Biso   1.000  C
  H114     1.0000 0.05955  0.86291  0.67777  Biso   1.000  H
  C128     1.0000 0.08024  0.74574  0.69224  Biso   1.000  C
  H115     1.0000 0.97375  0.81748  0.80217  Biso   1.000  H
  C129     1.0000 0.89990  0.85719  0.84810  Biso   1.000  C
  C130     1.0000 0.83231  0.88956  0.81756  Biso   1.000  C
  H116     1.0000 0.77972  0.91121  0.71216  Biso   1.000  H
  H117     1.0000 0.99084  0.63030  0.81447  Biso   1.000  H
  C131     1.0000 0.98183  0.57107  0.72807  Biso   1.000  C
  C132     1.0000 0.93179  0.51543  0.69970  Biso   1.000  C
  H118     1.0000 0.84633  0.46988  0.73611  Biso   1.000  H
  H119     1.0000 0.86495  0.72061  0.84789  Biso   1.000  H
  C133     1.0000 0.94729  0.75303  0.92966  Biso   1.000  C
  C134     1.0000 0.99506  0.70849  0.97816  Biso   1.000  C
  H120     1.0000 0.00085  0.58991  0.98408  Biso   1.000  H
  C135     1.0000 0.04353  0.60506  0.70408  Biso   1.000  C
  H121     1.0000 0.13186  0.74041  0.69826  Biso   1.000  H
  C136     1.0000 0.93813  0.83761  0.92230  Biso   1.000  C
  H122     1.0000 0.79861  0.90767  0.84058  Biso   1.000  H
  H123     1.0000 0.92865  0.48861  0.65856  Biso   1.000  H
  H124     1.0000 0.03358  0.72538  0.01688  Biso   1.000  H
  C137     1.0000 0.04479  0.56720  0.63658  Biso   1.000  C
  C138     1.0000 0.11913  0.59160  0.75748  Biso   1.000  C
  C139     1.0000 0.89128  0.86521  0.96781  Biso   1.000  C
  C140     1.0000 0.01482  0.87542  0.94727  Biso   1.000  C
  H125     1.0000 0.99697  0.57471  0.60167  Biso   1.000  H
  H126     1.0000 0.05394  0.51341  0.64440  Biso   1.000  H
  H127     1.0000 0.08424  0.58930  0.62051  Biso   1.000  H
  H128     1.0000 0.11883  0.61308  0.80181  Biso   1.000  H
  H129     1.0000 0.15813  0.61572  0.74198  Biso   1.000  H
  H130     1.0000 0.12876  0.53758  0.76278  Biso   1.000  H
  H131     1.0000 0.88690  0.92001  0.96467  Biso   1.000  H
  H132     1.0000 0.84172  0.84272  0.95206  Biso   1.000  H
  H133     1.0000 0.91526  0.85068  0.01570  Biso   1.000  H
  H134     1.0000 0.04431  0.86140  0.91679  Biso   1.000  H
  H135     1.0000 0.04022  0.85887  0.99428  Biso   1.000  H
  H136     1.0000 0.00865  0.93000  0.94670  Biso   1.000  H
  C141     1.0000 0.89128  0.63479  0.46779  Biso   1.000  C
  C142     1.0000 0.93812  0.66239  0.42227  Biso   1.000  C
  H137     1.0000 0.88696  0.57999  0.46470  Biso   1.000  H
  H138     1.0000 0.91526  0.64932  0.51568  Biso   1.000  H
  H139     1.0000 0.84174  0.65728  0.45209  Biso   1.000  H
  C143     1.0000 0.94736  0.74697  0.42969  Biso   1.000  C
  C144     1.0000 0.89991  0.64281  0.34813  Biso   1.000  C
  C145     1.0000 0.01483  0.62458  0.44730  Biso   1.000  C
  N9       1.0000 0.90098  0.79426  0.38391  Biso   1.000  N
  C146     1.0000 0.99510  0.79151  0.47814  Biso   1.000  C
  N10      1.0000 0.93027  0.66109  0.29607  Biso   1.000  N
  C147     1.0000 0.83236  0.61044  0.31754  Biso   1.000  C
  H140     1.0000 0.04438  0.63860  0.41681  Biso   1.000  H
  H141     1.0000 0.04029  0.64113  0.49431  Biso   1.000  H
  H142     1.0000 0.00865  0.57000  0.44668  Biso   1.000  H
  C148     1.0000 0.91763  0.86802  0.40121  Biso   1.000  C
  H143     1.0000 0.86495  0.77939  0.34787  Biso   1.000  H
  C149     1.0000 0.97657  0.86729  0.45991  Biso   1.000  C
  H144     1.0000 0.03359  0.77462  0.51691  Biso   1.000  H
  C150     1.0000 0.88253  0.64113  0.23320  Biso   1.000  C
  H145     1.0000 0.97376  0.68252  0.30220  Biso   1.000  H
  C151     1.0000 0.82170  0.60882  0.24587  Biso   1.000  C
  H146     1.0000 0.79867  0.59233  0.34061  Biso   1.000  H
  C152     1.0000 0.87703  0.93174  0.35657  Biso   1.000  C
  H147     1.0000 0.00086  0.91009  0.48411  Biso   1.000  H
  C153     1.0000 0.90010  0.65212  0.16534  Biso   1.000  C
  H148     1.0000 0.77978  0.58879  0.21219  Biso   1.000  H
  C154     1.0000 0.79419  0.91048  0.32944  Biso   1.000  C
  C155     1.0000 0.90773  0.94503  0.29638  Biso   1.000  C
  C156     1.0000 0.88827  0.00460  0.39972  Biso   1.000  C
  C157     1.0000 0.83396  0.68779  0.11086  Biso   1.000  C
  C158     1.0000 0.96736  0.70215  0.17471  Biso   1.000  C
  C159     1.0000 0.91848  0.57438  0.14062  Biso   1.000  C
  C160     1.0000 0.76735  0.87020  0.26914  Biso   1.000  C
  C161     1.0000 0.74496  0.92540  0.36723  Biso   1.000  C
  N11      1.0000 0.96653  0.90526  0.28685  Biso   1.000  N
  C162     1.0000 0.88565  0.99490  0.24293  Biso   1.000  C
  H149     1.0000 0.87449  0.99568  0.44199  Biso   1.000  H
  H150     1.0000 0.85706  0.04448  0.37289  Biso   1.000  H
  H151     1.0000 0.94044  0.01980  0.41167  Biso   1.000  H
  C163     1.0000 0.77796  0.72678  0.12754  Biso   1.000  C
  C164     1.0000 0.83039  0.68521  0.04166  Biso   1.000  C
  N12      1.0000 0.96317  0.77866  0.18207  Biso   1.000  N
  C165     1.0000 0.03982  0.68561  0.18073  Biso   1.000  C
  H152     1.0000 0.95911  0.55132  0.17661  Biso   1.000  H
  H153     1.0000 0.87459  0.54212  0.13089  Biso   1.000  H
  H154     1.0000 0.93351  0.58038  0.09860  Biso   1.000  H
  C166     1.0000 0.69447  0.84519  0.24618  Biso   1.000  C
  H155     1.0000 0.79978  0.85921  0.24242  Biso   1.000  H
  C167     1.0000 0.67226  0.90178  0.34483  Biso   1.000  C
  H156     1.0000 0.76175  0.95238  0.40930  Biso   1.000  H
  H157     1.0000 0.99090  0.86970  0.31450  Biso   1.000  H
  C168     1.0000 0.98188  0.92893  0.22805  Biso   1.000  C
  C169     1.0000 0.93185  0.98457  0.19973  Biso   1.000  C
  H158     1.0000 0.84638  0.03012  0.23608  Biso   1.000  H
  C170     1.0000 0.71942  0.75982  0.07734  Biso   1.000  C
  H159     1.0000 0.77949  0.73110  0.17450  Biso   1.000  H
  C171     1.0000 0.77233  0.71747  0.99161  Biso   1.000  C
  H160     1.0000 0.86883  0.66070  0.02842  Biso   1.000  H
  C172     1.0000 0.03178  0.81131  0.19304  Biso   1.000  C
  H161     1.0000 0.92221  0.80329  0.18011  Biso   1.000  H
  C173     1.0000 0.08030  0.75426  0.19227  Biso   1.000  C
  H162     1.0000 0.05956  0.63709  0.17780  Biso   1.000  H
  C174     1.0000 0.64677  0.86112  0.28428  Biso   1.000  C
  H163     1.0000 0.67767  0.81742  0.20457  Biso   1.000  H
  H164     1.0000 0.63939  0.91351  0.37099  Biso   1.000  H
  C175     1.0000 0.04360  0.89494  0.20411  Biso   1.000  C
  H165     1.0000 0.92866  0.01139  0.15859  Biso   1.000  H
  C176     1.0000 0.71597  0.75353  0.00901  Biso   1.000  C
  H166     1.0000 0.68212  0.78652  0.09031  Biso   1.000  H
  H167     1.0000 0.77134  0.71472  0.94470  Biso   1.000  H
  H168     1.0000 0.13187  0.75959  0.19829  Biso   1.000  H
  O13      1.0000 0.57377  0.83913  0.26646  Biso   1.000  O
  C177     1.0000 0.04484  0.93280  0.13655  Biso   1.000  C
  C178     1.0000 0.11920  0.90840  0.25750  Biso   1.000  C
  O14      1.0000 0.65994  0.78231  0.95567  Biso   1.000  O
  C179     1.0000 0.54128  0.81512  0.19788  Biso   1.000  C
  H169     1.0000 0.99698  0.92529  0.10169  Biso   1.000  H
  H170     1.0000 0.05399  0.98659  0.14438  Biso   1.000  H
  H171     1.0000 0.08429  0.91070  0.12049  Biso   1.000  H
  H172     1.0000 0.11888  0.88692  0.30179  Biso   1.000  H
  H173     1.0000 0.15819  0.88428  0.24200  Biso   1.000  H
  H174     1.0000 0.12877  0.96242  0.26281  Biso   1.000  H
  C180     1.0000 0.59608  0.80979  0.97147  Biso   1.000  C
  C181     1.0000 0.46076  0.80177  0.19165  Biso   1.000  C
  H175     1.0000 0.54658  0.85422  0.16498  Biso   1.000  H
  H176     1.0000 0.56497  0.76840  0.18861  Biso   1.000  H
  C182     1.0000 0.53796  0.82247  0.90361  Biso   1.000  C
  H177     1.0000 0.57842  0.77277  0.99949  Biso   1.000  H
  H178     1.0000 0.60756  0.85730  0.99758  Biso   1.000  H
  O15      1.0000 0.42269  0.79886  0.11930  Biso   1.000  O
  H179     1.0000 0.44100  0.84311  0.21369  Biso   1.000  H
  H180     1.0000 0.45447  0.75398  0.21420  Biso   1.000  H
  O16      1.0000 0.46848  0.82483  0.91926  Biso   1.000  O
  H181     1.0000 0.53827  0.78107  0.87122  Biso   1.000  H
  H182     1.0000 0.54694  0.87032  0.88270  Biso   1.000  H
  C183     1.0000 0.34548  0.79846  0.10612  Biso   1.000  C
  C184     1.0000 0.40600  0.83133  0.86211  Biso   1.000  C
  C185     1.0000 0.30858  0.73070  0.09150  Biso   1.000  C
  C186     1.0000 0.30945  0.86678  0.10633  Biso   1.000  C
  C187     1.0000 0.37304  0.76604  0.82926  Biso   1.000  C
  C188     1.0000 0.37734  0.90246  0.84270  Biso   1.000  C
  C189     1.0000 0.34823  0.65818  0.08496  Biso   1.000  C
  C190     1.0000 0.23159  0.73188  0.08053  Biso   1.000  C
  C191     1.0000 0.23265  0.86460  0.09613  Biso   1.000  C
  C192     1.0000 0.34823  0.94161  0.11148  Biso   1.000  C
  C193     1.0000 0.40106  0.68847  0.85521  Biso   1.000  C
  C194     1.0000 0.31166  0.77395  0.77190  Biso   1.000  C
  C195     1.0000 0.40715  0.97128  0.88487  Biso   1.000  C
  C196     1.0000 0.31585  0.90722  0.78446  Biso   1.000  C
  C197     1.0000 0.33445  0.63507  0.01081  Biso   1.000  C
  H183     1.0000 0.33109  0.61790  0.11009  Biso   1.000  H
  H184     1.0000 0.40219  0.66480  0.10659  Biso   1.000  H
  H185     1.0000 0.20419  0.68650  0.07049  Biso   1.000  H
  C198     1.0000 0.19536  0.79801  0.08398  Biso   1.000  C
  H186     1.0000 0.20647  0.90969  0.09768  Biso   1.000  H
  H187     1.0000 0.33051  0.97532  0.14211  Biso   1.000  H
  H188     1.0000 0.40229  0.93449  0.13192  Biso   1.000  H
  C199     1.0000 0.33318  0.97711  0.04119  Biso   1.000  C
  C200     1.0000 0.35853  0.65156  0.89959  Biso   1.000  C
  H189     1.0000 0.39815  0.65582  0.81510  Biso   1.000  H
  H190     1.0000 0.45393  0.69228  0.88229  Biso   1.000  H
  H191     1.0000 0.28834  0.73059  0.74790  Biso   1.000  H
  C201     1.0000 0.28425  0.84384  0.74940  Biso   1.000  C
  C202     1.0000 0.36092  0.99035  0.93250  Biso   1.000  C
  H192     1.0000 0.45914  0.96231  0.91252  Biso   1.000  H
  H193     1.0000 0.40656  0.01419  0.85382  Biso   1.000  H
  H194     1.0000 0.29547  0.95501  0.76881  Biso   1.000  H
  C203     1.0000 0.37284  0.66962  0.96941  Biso   1.000  C
  C204     1.0000 0.28193  0.58072  0.97997  Biso   1.000  C
  H195     1.0000 0.14348  0.79729  0.07780  Biso   1.000  H
  C205     1.0000 0.37725  0.96096  0.99846  Biso   1.000  C
  C206     1.0000 0.27213  0.02317  0.01607  Biso   1.000  C
  C207     1.0000 0.30542  0.59771  0.87210  Biso   1.000  C
  H196     1.0000 0.24306  0.84838  0.70929  Biso   1.000  H
  C208     1.0000 0.29792  0.03506  0.90927  Biso   1.000  C
  O17      1.0000 0.42688  0.72033  0.99918  Biso   1.000  O
  H197     1.0000 0.25540  0.55598  0.00690  Biso   1.000  H
  C209     1.0000 0.26769  0.56181  0.91175  Biso   1.000  C
  O18      1.0000 0.43883  0.91642  0.02291  Biso   1.000  O
  C210     1.0000 0.25384  0.05166  0.95062  Biso   1.000  C
  H198     1.0000 0.24217  0.03528  0.04490  Biso   1.000  H
  H199     1.0000 0.29469  0.58520  0.82473  Biso   1.000  H
  H200     1.0000 0.28504  0.05458  0.86381  Biso   1.000  H
  H201     1.0000 0.44110  0.71360  0.04202  Biso   1.000  H
  H202     1.0000 0.23204  0.52429  0.89202  Biso   1.000  H
  H203     1.0000 0.42978  0.88282  0.04830  Biso   1.000  H
  H204     1.0000 0.21124  0.08251  0.93389  Biso   1.000  H
  C211     1.0000 0.10859  0.36521  0.53215  Biso   1.000  C
  C212     1.0000 0.06182  0.33761  0.57772  Biso   1.000  C
  H205     1.0000 0.11298  0.42001  0.53529  Biso   1.000  H
  H206     1.0000 0.08466  0.35068  0.48427  Biso   1.000  H
  H207     1.0000 0.15815  0.34272  0.54791  Biso   1.000  H
  C213     1.0000 0.05258  0.25303  0.57031  Biso   1.000  C
  C214     1.0000 0.10003  0.35719  0.65187  Biso   1.000  C
  C215     1.0000 0.98511  0.37542  0.55270  Biso   1.000  C
  N13      1.0000 0.09895  0.20574  0.61608  Biso   1.000  N
  C216     1.0000 0.00482  0.20849  0.52180  Biso   1.000  C
  N14      1.0000 0.06967  0.33891  0.70393  Biso   1.000  N
  C217     1.0000 0.16756  0.38956  0.68240  Biso   1.000  C
  H208     1.0000 0.95556  0.36140  0.58318  Biso   1.000  H
  H209     1.0000 0.95965  0.35887  0.50569  Biso   1.000  H
  H210     1.0000 0.99127  0.43000  0.55326  Biso   1.000  H
  H211     1.0000 0.13492  0.22061  0.65207  Biso   1.000  H
  C218     1.0000 0.08230  0.13198  0.59878  Biso   1.000  C
  C219     1.0000 0.02331  0.13271  0.54008  Biso   1.000  C
  H212     1.0000 0.96635  0.22538  0.48308  Biso   1.000  H
  H213     1.0000 0.02617  0.31748  0.69780  Biso   1.000  H
  C220     1.0000 0.11741  0.35887  0.76679  Biso   1.000  C
  H214     1.0000 0.20126  0.40767  0.65939  Biso   1.000  H
  C221     1.0000 0.17822  0.39118  0.75408  Biso   1.000  C
  C222     1.0000 0.12291  0.06826  0.64342  Biso   1.000  C
  H215     1.0000 0.99908  0.08991  0.51588  Biso   1.000  H
  C223     1.0000 0.09982  0.34788  0.83461  Biso   1.000  C
  H216     1.0000 0.22015  0.41121  0.78780  Biso   1.000  H
  C224     1.0000 0.09219  0.05497  0.70356  Biso   1.000  C
  C225     1.0000 0.20570  0.08952  0.67056  Biso   1.000  C
  C226     1.0000 0.11165  0.99540  0.60022  Biso   1.000  C
  C227     1.0000 0.03253  0.29785  0.82529  Biso   1.000  C
  C228     1.0000 0.08141  0.42562  0.85937  Biso   1.000  C
  C229     1.0000 0.16598  0.31221  0.88914  Biso   1.000  C
  N15      1.0000 0.03334  0.09474  0.71309  Biso   1.000  N
  C230     1.0000 0.11427  0.00510  0.75701  Biso   1.000  C
  C231     1.0000 0.23259  0.12980  0.73085  Biso   1.000  C
  C232     1.0000 0.25498  0.07460  0.63277  Biso   1.000  C
  H217     1.0000 0.12545  0.00432  0.55800  Biso   1.000  H
  H218     1.0000 0.14288  0.95552  0.62710  Biso   1.000  H
  H219     1.0000 0.05943  0.98020  0.58828  Biso   1.000  H
  N16      1.0000 0.03677  0.22134  0.81792  Biso   1.000  N
  C233     1.0000 0.96011  0.31439  0.81921  Biso   1.000  C
  H220     1.0000 0.04083  0.44868  0.82338  Biso   1.000  H
  H221     1.0000 0.12535  0.45788  0.86911  Biso   1.000  H
  H222     1.0000 0.06643  0.41962  0.90139  Biso   1.000  H
  C234     1.0000 0.16955  0.31479  0.95834  Biso   1.000  C
  C235     1.0000 0.22198  0.27322  0.87245  Biso   1.000  C
  H223     1.0000 0.00903  0.13030  0.68549  Biso   1.000  H
  C236     1.0000 0.01804  0.07107  0.77189  Biso   1.000  C
  C237     1.0000 0.06809  0.01543  0.80026  Biso   1.000  C
  H224     1.0000 0.15354  0.96988  0.76386  Biso   1.000  H
  H225     1.0000 0.20016  0.14079  0.75758  Biso   1.000  H
  C238     1.0000 0.30545  0.15481  0.75377  Biso   1.000  C
  C239     1.0000 0.32768  0.09822  0.65516  Biso   1.000  C
  H226     1.0000 0.23814  0.04762  0.59070  Biso   1.000  H
  H227     1.0000 0.07773  0.19671  0.81988  Biso   1.000  H
  C240     1.0000 0.96816  0.18869  0.80696  Biso   1.000  C
  H228     1.0000 0.94032  0.36291  0.82220  Biso   1.000  H
  C241     1.0000 0.91964  0.24574  0.80773  Biso   1.000  C
  H229     1.0000 0.13111  0.33930  0.97157  Biso   1.000  H
  C242     1.0000 0.22759  0.28253  0.00834  Biso   1.000  C
  H230     1.0000 0.22045  0.26890  0.82549  Biso   1.000  H
  C243     1.0000 0.28046  0.24018  0.92266  Biso   1.000  C
  C244     1.0000 0.95634  0.10506  0.79589  Biso   1.000  C
  H231     1.0000 0.07123  0.98861  0.84140  Biso   1.000  H
  H232     1.0000 0.32225  0.18258  0.79537  Biso   1.000  H
  C245     1.0000 0.35317  0.13888  0.71572  Biso   1.000  C
  H233     1.0000 0.36055  0.08649  0.62901  Biso   1.000  H
  H234     1.0000 0.86807  0.24041  0.80171  Biso   1.000  H
  C246     1.0000 0.28396  0.24647  0.99093  Biso   1.000  C
  H235     1.0000 0.22859  0.28528  0.05530  Biso   1.000  H
  H236     1.0000 0.31782  0.21348  0.90968  Biso   1.000  H
  C247     1.0000 0.95509  0.06720  0.86339  Biso   1.000  C
  C248     1.0000 0.88074  0.09160  0.74249  Biso   1.000  C
  O19      1.0000 0.42616  0.16087  0.73348  Biso   1.000  O
  O20      1.0000 0.33998  0.21769  0.04428  Biso   1.000  O
  H237     1.0000 0.00296  0.07471  0.89830  Biso   1.000  H
  H238     1.0000 0.94593  0.01341  0.85556  Biso   1.000  H
  H239     1.0000 0.91563  0.08930  0.87946  Biso   1.000  H
  H240     1.0000 0.88106  0.11308  0.69821  Biso   1.000  H
  H241     1.0000 0.84175  0.11572  0.75799  Biso   1.000  H
  H242     1.0000 0.87117  0.03758  0.73719  Biso   1.000  H
  C249     1.0000 0.45865  0.18488  0.80212  Biso   1.000  C
  C250     1.0000 0.40386  0.19021  0.02852  Biso   1.000  C
  H243     1.0000 0.45334  0.14578  0.83497  Biso   1.000  H
  H244     1.0000 0.43492  0.23160  0.81139  Biso   1.000  H
  C251     1.0000 0.53918  0.19823  0.80835  Biso   1.000  C
  C252     1.0000 0.46198  0.17753  0.09638  Biso   1.000  C
  H245     1.0000 0.42145  0.22723  0.00046  Biso   1.000  H
  H246     1.0000 0.39236  0.14270  0.00236  Biso   1.000  H
  O21      1.0000 0.57723  0.20114  0.88064  Biso   1.000  O
  H247     1.0000 0.55892  0.15689  0.78626  Biso   1.000  H
  H248     1.0000 0.54547  0.24602  0.78579  Biso   1.000  H
  O22      1.0000 0.53141  0.17517  0.08073  Biso   1.000  O
  H249     1.0000 0.46167  0.21893  0.12877  Biso   1.000  H
  H250     1.0000 0.45295  0.12968  0.11729  Biso   1.000  H
  C253     1.0000 0.65444  0.20154  0.89382  Biso   1.000  C
  C254     1.0000 0.59394  0.16867  0.13789  Biso   1.000  C
  C255     1.0000 0.69134  0.26930  0.90844  Biso   1.000  C
  C256     1.0000 0.69042  0.13322  0.89362  Biso   1.000  C
  C257     1.0000 0.62260  0.09754  0.15730  Biso   1.000  C
  C258     1.0000 0.62690  0.23396  0.17074  Biso   1.000  C
  C259     1.0000 0.76835  0.26812  0.91946  Biso   1.000  C
  C260     1.0000 0.65166  0.34182  0.91504  Biso   1.000  C
  C261     1.0000 0.76724  0.13540  0.90386  Biso   1.000  C
  C262     1.0000 0.65169  0.05839  0.88847  Biso   1.000  C
  C263     1.0000 0.59279  0.02872  0.11513  Biso   1.000  C
  C264     1.0000 0.68409  0.09278  0.21553  Biso   1.000  C
  C265     1.0000 0.68822  0.22605  0.22810  Biso   1.000  C
  C266     1.0000 0.59886  0.31153  0.14473  Biso   1.000  C
  H251     1.0000 0.79574  0.31350  0.92950  Biso   1.000  H
  C267     1.0000 0.80458  0.20199  0.91601  Biso   1.000  C
  C268     1.0000 0.66549  0.36493  0.98918  Biso   1.000  C
  H252     1.0000 0.66883  0.38210  0.88986  Biso   1.000  H
  H253     1.0000 0.59774  0.33520  0.89336  Biso   1.000  H
  H254     1.0000 0.79345  0.09031  0.90227  Biso   1.000  H
  H255     1.0000 0.66943  0.02468  0.85788  Biso   1.000  H
  H256     1.0000 0.59765  0.06551  0.86808  Biso   1.000  H
  C269     1.0000 0.66676  0.02289  0.95880  Biso   1.000  C
  H257     1.0000 0.59338  0.98581  0.14618  Biso   1.000  H
  C270     1.0000 0.63902  0.00965  0.06750  Biso   1.000  C
  H258     1.0000 0.54075  0.03769  0.08748  Biso   1.000  H
  C271     1.0000 0.71569  0.15616  0.25060  Biso   1.000  C
  H259     1.0000 0.70446  0.04499  0.23119  Biso   1.000  H
  H260     1.0000 0.71155  0.26941  0.25209  Biso   1.000  H
  H261     1.0000 0.60174  0.34418  0.18490  Biso   1.000  H
  H262     1.0000 0.54593  0.30772  0.11765  Biso   1.000  H
  C272     1.0000 0.64141  0.34844  0.10040  Biso   1.000  C
  H263     1.0000 0.85641  0.20271  0.92219  Biso   1.000  H
  C273     1.0000 0.62709  0.33038  0.03058  Biso   1.000  C
  C274     1.0000 0.71801  0.41928  0.02002  Biso   1.000  C
  C275     1.0000 0.72775  0.97683  0.98393  Biso   1.000  C
  C276     1.0000 0.62269  0.03904  0.00154  Biso   1.000  C
  C277     1.0000 0.70202  0.96494  0.09072  Biso   1.000  C
  H264     1.0000 0.75686  0.15162  0.29066  Biso   1.000  H
  C278     1.0000 0.69452  0.40229  0.12790  Biso   1.000  C
  O23      1.0000 0.57306  0.27967  0.00082  Biso   1.000  O
  H265     1.0000 0.74454  0.44402  0.99310  Biso   1.000  H
  C279     1.0000 0.73225  0.43819  0.08825  Biso   1.000  C
  H266     1.0000 0.75771  0.96472  0.95510  Biso   1.000  H
  C280     1.0000 0.74610  0.94834  0.04937  Biso   1.000  C
  O24      1.0000 0.56109  0.08358  0.97703  Biso   1.000  O
  H267     1.0000 0.71484  0.94542  0.13619  Biso   1.000  H
  H268     1.0000 0.70525  0.41480  0.17527  Biso   1.000  H
  H269     1.0000 0.55884  0.28640  0.95798  Biso   1.000  H
  H270     1.0000 0.76784  0.47571  0.10797  Biso   1.000  H
  H271     1.0000 0.78869  0.91749  0.06606  Biso   1.000  H
  H272     1.0000 0.57016  0.11718  0.95170  Biso   1.000  H
