data_image0
_cell_length_a       10.638
_cell_length_b       30.647
_cell_length_c       11.215
_cell_angle_alpha    90
_cell_angle_beta     95.92
_cell_angle_gamma    90

_symmetry_space_group_name_H-M    "P 1"
_symmetry_int_tables_number       1

loop_
  _symmetry_equiv_pos_as_xyz
  'x, y, z'

loop_
  _atom_site_label
  _atom_site_occupancy
  _atom_site_fract_x
  _atom_site_fract_y
  _atom_site_fract_z
  _atom_site_thermal_displace_type
  _atom_site_B_iso_or_equiv
  _atom_site_type_symbol
  C1       1.0000 0.58551  0.46944  0.61182  Biso   1.000  C
  C2       1.0000 0.50506  0.43394  0.58430  Biso   1.000  C
  C3       1.0000 0.68903  0.47740  0.54889  Biso   1.000  C
  H1       1.0000 0.56890  0.48850  0.67511  Biso   1.000  H
  C4       1.0000 0.52751  0.40608  0.48901  Biso   1.000  C
  C5       1.0000 0.39591  0.42732  0.66023  Biso   1.000  C
  C6       1.0000 0.70943  0.44996  0.45378  Biso   1.000  C
  O1       1.0000 0.77819  0.50961  0.57175  Biso   1.000  O
  C7       1.0000 0.45260  0.36464  0.45629  Biso   1.000  C
  C8       1.0000 0.62958  0.41498  0.42402  Biso   1.000  C
  C9       1.0000 0.42931  0.40347  0.77892  Biso   1.000  C
  H2       1.0000 0.36075  0.45629  0.67744  Biso   1.000  H
  H3       1.0000 0.32865  0.41071  0.61227  Biso   1.000  H
  Br1      1.0000 0.84652  0.46106  0.36243  Biso   1.000  Br
  C10      1.0000 0.76346  0.54217  0.65853  Biso   1.000  C
  C11      1.0000 0.51720  0.32594  0.52128  Biso   1.000  C
  H4       1.0000 0.44730  0.35981  0.36862  Biso   1.000  H
  H5       1.0000 0.36560  0.36770  0.47915  Biso   1.000  H
  H6       1.0000 0.64462  0.39681  0.35831  Biso   1.000  H
  C12      1.0000 0.41575  0.35831  0.79425  Biso   1.000  C
  C13      1.0000 0.47047  0.42846  0.87995  Biso   1.000  C
  O2       1.0000 0.73910  0.52739  0.77166  Biso   1.000  O
  H7       1.0000 0.69314  0.56149  0.62733  Biso   1.000  H
  H8       1.0000 0.84130  0.56009  0.66803  Biso   1.000  H
  C14      1.0000 0.62169  0.30838  0.47252  Biso   1.000  C
  C15      1.0000 0.48394  0.30982  0.63038  Biso   1.000  C
  C16      1.0000 0.37311  0.32728  0.69170  Biso   1.000  C
  C17      1.0000 0.44249  0.34020  0.90792  Biso   1.000  C
  C18      1.0000 0.49864  0.40957  0.99120  Biso   1.000  C
  H9       1.0000 0.47918  0.45910  0.87188  Biso   1.000  H
  C19      1.0000 0.81954  0.49786  0.83540  Biso   1.000  C
  Br2      1.0000 0.70600  0.53209  0.96000  Biso   1.000  Br
  C20      1.0000 0.69587  0.27631  0.53052  Biso   1.000  C
  H10      1.0000 0.64245  0.31879  0.39712  Biso   1.000  H
  C21      1.0000 0.55629  0.27601  0.68542  Biso   1.000  C
  H11      1.0000 0.31426  0.34281  0.63208  Biso   1.000  H
  H12      1.0000 0.32690  0.30251  0.72325  Biso   1.000  H
  H13      1.0000 0.42985  0.30979  0.91787  Biso   1.000  H
  C22      1.0000 0.48653  0.36496  0.00689  Biso   1.000  C
  Br3      1.0000 0.54899  0.44458  0.12746  Biso   1.000  Br
  Br4      1.0000 0.61794  0.43609  0.14001  Biso   1.000  Br
  C23      1.0000 0.92276  0.47734  0.79389  Biso   1.000  C
  C24      1.0000 0.78601  0.48860  0.94799  Biso   1.000  C
  O3       1.0000 0.80126  0.25914  0.48399  Biso   1.000  O
  C25      1.0000 0.65974  0.25941  0.63656  Biso   1.000  C
  H14      1.0000 0.53349  0.26410  0.75839  Biso   1.000  H
  O4       1.0000 0.50989  0.34835  0.12145  Biso   1.000  O
  C26      1.0000 0.99493  0.44738  0.86632  Biso   1.000  C
  H15      1.0000 0.94473  0.48360  0.71581  Biso   1.000  H
  H16      1.0000 0.71513  0.50250  0.97650  Biso   1.000  H
  C27      1.0000 0.85608  0.45920  0.01836  Biso   1.000  C
  C28      1.0000 0.87463  0.28685  0.41873  Biso   1.000  C
  Br5      1.0000 0.74842  0.21137  0.71213  Biso   1.000  Br
  C29      1.0000 0.56548  0.30649  0.13732  Biso   1.000  C
  C30      1.0000 0.10843  0.42673  0.81648  Biso   1.000  C
  C31      1.0000 0.96036  0.43795  0.98062  Biso   1.000  C
  H17      1.0000 0.83247  0.45309  0.09608  Biso   1.000  H
  O5       1.0000 0.99810  0.28965  0.47619  Biso   1.000  O
  H18      1.0000 0.83610  0.31631  0.41272  Biso   1.000  H
  H19      1.0000 0.87688  0.27530  0.33653  Biso   1.000  H
  O6       1.0000 0.69163  0.31011  0.18743  Biso   1.000  O
  H20      1.0000 0.56232  0.29151  0.05897  Biso   1.000  H
  H21      1.0000 0.51714  0.28880  0.19075  Biso   1.000  H
  C32      1.0000 0.07496  0.38927  0.73006  Biso   1.000  C
  H22      1.0000 0.15333  0.44951  0.77471  Biso   1.000  H
  H23      1.0000 0.16720  0.41580  0.88416  Biso   1.000  H
  C33      1.0000 0.02612  0.40399  0.06498  Biso   1.000  C
  C34      1.0000 0.01826  0.32342  0.56046  Biso   1.000  C
  C35      1.0000 0.78283  0.31657  0.10720  Biso   1.000  C
  C36      1.0000 0.06861  0.34568  0.76673  Biso   1.000  C
  C37      1.0000 0.05210  0.39893  0.60707  Biso   1.000  C
  C38      1.0000 0.95612  0.36092  0.05144  Biso   1.000  C
  H24      1.0000 0.02857  0.41430  0.14888  Biso   1.000  H
  H25      1.0000 0.11421  0.39991  0.04606  Biso   1.000  H
  C39      1.0000 0.03984  0.31337  0.68112  Biso   1.000  C
  C40      1.0000 0.02409  0.36637  0.52245  Biso   1.000  C
  C41      1.0000 0.85583  0.35377  0.12073  Biso   1.000  C
  C42      1.0000 0.80482  0.28551  0.02248  Biso   1.000  C
  C43      1.0000 0.09731  0.33113  0.89662  Biso   1.000  C
  H26      1.0000 0.05598  0.42839  0.58143  Biso   1.000  H
  C44      1.0000 0.98318  0.32861  0.96834  Biso   1.000  C
  H27      1.0000 0.03484  0.28381  0.70595  Biso   1.000  H
  H28      1.0000 0.00909  0.37341  0.43980  Biso   1.000  H
  Br6      1.0000 0.05257  0.36402  0.36154  Biso   1.000  Br
  H29      1.0000 0.83776  0.37501  0.17838  Biso   1.000  H
  C45      1.0000 0.90611  0.29177  0.95462  Biso   1.000  C
  H30      1.0000 0.75224  0.26051  0.01092  Biso   1.000  H
  Br7      1.0000 0.70199  0.23408  0.02598  Biso   1.000  Br
  H31      1.0000 0.13751  0.30199  0.89725  Biso   1.000  H
  H32      1.0000 0.15948  0.35158  0.93759  Biso   1.000  H
  H33      1.0000 0.92299  0.27030  0.89716  Biso   1.000  H
  C46      1.0000 0.58551  0.46944  0.61182  Biso   1.000  C
  C47      1.0000 0.50506  0.43394  0.58430  Biso   1.000  C
  C48      1.0000 0.68903  0.47740  0.54889  Biso   1.000  C
  H34      1.0000 0.56890  0.48850  0.67511  Biso   1.000  H
  C49      1.0000 0.52751  0.40608  0.48901  Biso   1.000  C
  C50      1.0000 0.39591  0.42732  0.66023  Biso   1.000  C
  C51      1.0000 0.70943  0.44996  0.45378  Biso   1.000  C
  O7       1.0000 0.77819  0.50961  0.57175  Biso   1.000  O
  C52      1.0000 0.45260  0.36464  0.45629  Biso   1.000  C
  C53      1.0000 0.62958  0.41498  0.42402  Biso   1.000  C
  C54      1.0000 0.42931  0.40347  0.77892  Biso   1.000  C
  H35      1.0000 0.36075  0.45629  0.67744  Biso   1.000  H
  H36      1.0000 0.32865  0.41071  0.61227  Biso   1.000  H
  Br8      1.0000 0.84652  0.46106  0.36243  Biso   1.000  Br
  C55      1.0000 0.76346  0.54217  0.65853  Biso   1.000  C
  C56      1.0000 0.51720  0.32594  0.52128  Biso   1.000  C
  H37      1.0000 0.44730  0.35981  0.36862  Biso   1.000  H
  H38      1.0000 0.36560  0.36770  0.47915  Biso   1.000  H
  H39      1.0000 0.64462  0.39681  0.35831  Biso   1.000  H
  C57      1.0000 0.41575  0.35831  0.79425  Biso   1.000  C
  C58      1.0000 0.47047  0.42846  0.87995  Biso   1.000  C
  O8       1.0000 0.73910  0.52739  0.77166  Biso   1.000  O
  H40      1.0000 0.69314  0.56149  0.62733  Biso   1.000  H
  H41      1.0000 0.84130  0.56009  0.66803  Biso   1.000  H
  C59      1.0000 0.62169  0.30838  0.47252  Biso   1.000  C
  C60      1.0000 0.48394  0.30982  0.63038  Biso   1.000  C
  C61      1.0000 0.37311  0.32728  0.69170  Biso   1.000  C
  C62      1.0000 0.44249  0.34020  0.90792  Biso   1.000  C
  C63      1.0000 0.49864  0.40957  0.99120  Biso   1.000  C
  H42      1.0000 0.47918  0.45910  0.87188  Biso   1.000  H
  C64      1.0000 0.81954  0.49786  0.83540  Biso   1.000  C
  Br9      1.0000 0.70600  0.53209  0.96000  Biso   1.000  Br
  C65      1.0000 0.69587  0.27631  0.53052  Biso   1.000  C
  H43      1.0000 0.64245  0.31879  0.39712  Biso   1.000  H
  C66      1.0000 0.55629  0.27601  0.68542  Biso   1.000  C
  H44      1.0000 0.31426  0.34281  0.63208  Biso   1.000  H
  H45      1.0000 0.32690  0.30251  0.72325  Biso   1.000  H
  H46      1.0000 0.42985  0.30979  0.91787  Biso   1.000  H
  C67      1.0000 0.48653  0.36496  0.00689  Biso   1.000  C
  Br10     1.0000 0.54899  0.44458  0.12746  Biso   1.000  Br
  Br11     1.0000 0.61794  0.43609  0.14001  Biso   1.000  Br
  C68      1.0000 0.92276  0.47734  0.79389  Biso   1.000  C
  C69      1.0000 0.78601  0.48860  0.94799  Biso   1.000  C
  O9       1.0000 0.80126  0.25914  0.48399  Biso   1.000  O
  C70      1.0000 0.65974  0.25941  0.63656  Biso   1.000  C
  H47      1.0000 0.53349  0.26410  0.75839  Biso   1.000  H
  O10      1.0000 0.50989  0.34835  0.12145  Biso   1.000  O
  C71      1.0000 0.99493  0.44738  0.86632  Biso   1.000  C
  H48      1.0000 0.94473  0.48360  0.71581  Biso   1.000  H
  C72      1.0000 0.85608  0.45920  0.01836  Biso   1.000  C
  H49      1.0000 0.71513  0.50250  0.97650  Biso   1.000  H
  C73      1.0000 0.87463  0.28685  0.41873  Biso   1.000  C
  Br12     1.0000 0.74842  0.21137  0.71213  Biso   1.000  Br
  C74      1.0000 0.56548  0.30649  0.13732  Biso   1.000  C
  C75      1.0000 0.10843  0.42673  0.81648  Biso   1.000  C
  C76      1.0000 0.96036  0.43795  0.98062  Biso   1.000  C
  H50      1.0000 0.83247  0.45309  0.09608  Biso   1.000  H
  O11      1.0000 0.99810  0.28965  0.47619  Biso   1.000  O
  H51      1.0000 0.83610  0.31631  0.41272  Biso   1.000  H
  H52      1.0000 0.87688  0.27530  0.33653  Biso   1.000  H
  O12      1.0000 0.69163  0.31011  0.18743  Biso   1.000  O
  H53      1.0000 0.56232  0.29151  0.05897  Biso   1.000  H
  H54      1.0000 0.51714  0.28880  0.19075  Biso   1.000  H
  C77      1.0000 0.07496  0.38927  0.73006  Biso   1.000  C
  H55      1.0000 0.15333  0.44951  0.77471  Biso   1.000  H
  H56      1.0000 0.16720  0.41580  0.88416  Biso   1.000  H
  C78      1.0000 0.02612  0.40399  0.06498  Biso   1.000  C
  C79      1.0000 0.01826  0.32342  0.56046  Biso   1.000  C
  C80      1.0000 0.78283  0.31657  0.10720  Biso   1.000  C
  C81      1.0000 0.06861  0.34568  0.76673  Biso   1.000  C
  C82      1.0000 0.05210  0.39893  0.60707  Biso   1.000  C
  C83      1.0000 0.95612  0.36092  0.05144  Biso   1.000  C
  H57      1.0000 0.02857  0.41430  0.14888  Biso   1.000  H
  H58      1.0000 0.11421  0.39991  0.04606  Biso   1.000  H
  C84      1.0000 0.03984  0.31337  0.68112  Biso   1.000  C
  C85      1.0000 0.02409  0.36637  0.52245  Biso   1.000  C
  C86      1.0000 0.80482  0.28551  0.02248  Biso   1.000  C
  C87      1.0000 0.85583  0.35377  0.12073  Biso   1.000  C
  C88      1.0000 0.09731  0.33113  0.89662  Biso   1.000  C
  H59      1.0000 0.05598  0.42839  0.58143  Biso   1.000  H
  C89      1.0000 0.98318  0.32861  0.96834  Biso   1.000  C
  H60      1.0000 0.03484  0.28381  0.70595  Biso   1.000  H
  H61      1.0000 0.00909  0.37341  0.43980  Biso   1.000  H
  Br13     1.0000 0.05257  0.36402  0.36154  Biso   1.000  Br
  C90      1.0000 0.90611  0.29177  0.95462  Biso   1.000  C
  H62      1.0000 0.75224  0.26051  0.01092  Biso   1.000  H
  Br14     1.0000 0.70199  0.23408  0.02598  Biso   1.000  Br
  H63      1.0000 0.83776  0.37501  0.17838  Biso   1.000  H
  H64      1.0000 0.13751  0.30199  0.89725  Biso   1.000  H
  H65      1.0000 0.15948  0.35158  0.93759  Biso   1.000  H
  H66      1.0000 0.92299  0.27030  0.89716  Biso   1.000  H
  C91      1.0000 0.41455  0.53056  0.38816  Biso   1.000  C
  C92      1.0000 0.31103  0.52260  0.45109  Biso   1.000  C
  H67      1.0000 0.43108  0.51150  0.32487  Biso   1.000  H
  C93      1.0000 0.49500  0.56606  0.41568  Biso   1.000  C
  O13      1.0000 0.22178  0.49039  0.42823  Biso   1.000  O
  C94      1.0000 0.29064  0.55004  0.54620  Biso   1.000  C
  C95      1.0000 0.47256  0.59392  0.51097  Biso   1.000  C
  C96      1.0000 0.60406  0.57268  0.33975  Biso   1.000  C
  C97      1.0000 0.23660  0.45783  0.34146  Biso   1.000  C
  Br15     1.0000 0.15346  0.53894  0.63755  Biso   1.000  Br
  C98      1.0000 0.37039  0.58502  0.57597  Biso   1.000  C
  C99      1.0000 0.54746  0.63536  0.54369  Biso   1.000  C
  C100     1.0000 0.57066  0.59653  0.22106  Biso   1.000  C
  H68      1.0000 0.63931  0.54371  0.32245  Biso   1.000  H
  H69      1.0000 0.67141  0.58929  0.38771  Biso   1.000  H
  O14      1.0000 0.26096  0.47261  0.22832  Biso   1.000  O
  H70      1.0000 0.30692  0.43851  0.37265  Biso   1.000  H
  H71      1.0000 0.15867  0.43991  0.33195  Biso   1.000  H
  H72      1.0000 0.35545  0.60319  0.64167  Biso   1.000  H
  C101     1.0000 0.48277  0.67406  0.47870  Biso   1.000  C
  H73      1.0000 0.55276  0.64019  0.63137  Biso   1.000  H
  H74      1.0000 0.63437  0.63230  0.52083  Biso   1.000  H
  C102     1.0000 0.58432  0.64169  0.20573  Biso   1.000  C
  C103     1.0000 0.52960  0.57154  0.12003  Biso   1.000  C
  C104     1.0000 0.18052  0.50214  0.16459  Biso   1.000  C
  Br16     1.0000 0.29397  0.46791  0.03998  Biso   1.000  Br
  C105     1.0000 0.37828  0.69162  0.52747  Biso   1.000  C
  C106     1.0000 0.51612  0.69018  0.36960  Biso   1.000  C
  C107     1.0000 0.55758  0.65980  0.09206  Biso   1.000  C
  C108     1.0000 0.62687  0.67272  0.30829  Biso   1.000  C
  H75      1.0000 0.52089  0.54090  0.12810  Biso   1.000  H
  C109     1.0000 0.50133  0.59043  0.00879  Biso   1.000  C
  C110     1.0000 0.07731  0.52266  0.20609  Biso   1.000  C
  C111     1.0000 0.21396  0.51140  0.05199  Biso   1.000  C
  C112     1.0000 0.30410  0.72369  0.46947  Biso   1.000  C
  H76      1.0000 0.35762  0.68121  0.60286  Biso   1.000  H
  C113     1.0000 0.44368  0.72399  0.31456  Biso   1.000  C
  H77      1.0000 0.57022  0.69021  0.08211  Biso   1.000  H
  C114     1.0000 0.51344  0.63504  0.99310  Biso   1.000  C
  H78      1.0000 0.68580  0.65719  0.36790  Biso   1.000  H
  H79      1.0000 0.67307  0.69749  0.27673  Biso   1.000  H
  Br17     1.0000 0.45108  0.55542  0.87253  Biso   1.000  Br
  Br18     1.0000 0.38203  0.56391  0.85998  Biso   1.000  Br
  H80      1.0000 0.05534  0.51640  0.28417  Biso   1.000  H
  C115     1.0000 0.00513  0.55262  0.13366  Biso   1.000  C
  H81      1.0000 0.28484  0.49750  0.02349  Biso   1.000  H
  C116     1.0000 0.14399  0.54080  0.98162  Biso   1.000  C
  O15      1.0000 0.19871  0.74086  0.51599  Biso   1.000  O
  C117     1.0000 0.34032  0.74059  0.36342  Biso   1.000  C
  H82      1.0000 0.46648  0.73590  0.24159  Biso   1.000  H
  O16      1.0000 0.49018  0.65165  0.87853  Biso   1.000  O
  C118     1.0000 0.03971  0.56205  0.01936  Biso   1.000  C
  C119     1.0000 0.89164  0.57327  0.18350  Biso   1.000  C
  H83      1.0000 0.16759  0.54691  0.90390  Biso   1.000  H
  C120     1.0000 0.12543  0.71315  0.58125  Biso   1.000  C
  Br19     1.0000 0.25164  0.78863  0.28785  Biso   1.000  Br
  C121     1.0000 0.43459  0.69351  0.86266  Biso   1.000  C
  C122     1.0000 0.97385  0.59601  0.93501  Biso   1.000  C
  C123     1.0000 0.92501  0.61073  0.26992  Biso   1.000  C
  H84      1.0000 0.84674  0.55049  0.22528  Biso   1.000  H
  H85      1.0000 0.83286  0.58420  0.11582  Biso   1.000  H
  O17      1.0000 0.00196  0.71035  0.52379  Biso   1.000  O
  H86      1.0000 0.16397  0.68369  0.58726  Biso   1.000  H
  H87      1.0000 0.12318  0.72470  0.66346  Biso   1.000  H
  O18      1.0000 0.30844  0.68989  0.81255  Biso   1.000  O
  H88      1.0000 0.43765  0.70849  0.94101  Biso   1.000  H
  H89      1.0000 0.48283  0.71120  0.80924  Biso   1.000  H
  H90      1.0000 0.97150  0.58570  0.85110  Biso   1.000  H
  H91      1.0000 0.88576  0.60009  0.95392  Biso   1.000  H
  C124     1.0000 0.04385  0.63908  0.94854  Biso   1.000  C
  C125     1.0000 0.93145  0.65432  0.23325  Biso   1.000  C
  C126     1.0000 0.94797  0.60107  0.39291  Biso   1.000  C
  C127     1.0000 0.98171  0.67658  0.43953  Biso   1.000  C
  C128     1.0000 0.21714  0.68343  0.89279  Biso   1.000  C
  C129     1.0000 0.01678  0.67139  0.03155  Biso   1.000  C
  C130     1.0000 0.14413  0.64623  0.87916  Biso   1.000  C
  C131     1.0000 0.96022  0.68663  0.31887  Biso   1.000  C
  C132     1.0000 0.90267  0.66887  0.10336  Biso   1.000  C
  H92      1.0000 0.94399  0.57161  0.41855  Biso   1.000  H
  C133     1.0000 0.97596  0.63363  0.47745  Biso   1.000  C
  C134     1.0000 0.19515  0.71449  0.97750  Biso   1.000  C
  C135     1.0000 0.09386  0.70823  0.04536  Biso   1.000  C
  H93      1.0000 0.16231  0.62499  0.82161  Biso   1.000  H
  H94      1.0000 0.96523  0.71619  0.29403  Biso   1.000  H
  H95      1.0000 0.86255  0.69801  0.10273  Biso   1.000  H
  H96      1.0000 0.84049  0.64842  0.06239  Biso   1.000  H
  H97      1.0000 0.99097  0.62659  0.56019  Biso   1.000  H
  Br20     1.0000 0.94741  0.63598  0.63845  Biso   1.000  Br
  H98      1.0000 0.24782  0.73949  0.98906  Biso   1.000  H
  Br21     1.0000 0.29808  0.76592  0.97400  Biso   1.000  Br
  H99      1.0000 0.07698  0.72970  0.10282  Biso   1.000  H
  C136     1.0000 0.41455  0.53056  0.38816  Biso   1.000  C
  C137     1.0000 0.49500  0.56606  0.41568  Biso   1.000  C
  C138     1.0000 0.31103  0.52260  0.45109  Biso   1.000  C
  H100     1.0000 0.43108  0.51150  0.32487  Biso   1.000  H
  C139     1.0000 0.47256  0.59392  0.51097  Biso   1.000  C
  C140     1.0000 0.60406  0.57268  0.33975  Biso   1.000  C
  C141     1.0000 0.29064  0.55004  0.54620  Biso   1.000  C
  O19      1.0000 0.22178  0.49039  0.42823  Biso   1.000  O
  C142     1.0000 0.54746  0.63536  0.54369  Biso   1.000  C
  C143     1.0000 0.37039  0.58502  0.57597  Biso   1.000  C
  C144     1.0000 0.57066  0.59653  0.22106  Biso   1.000  C
  H101     1.0000 0.63931  0.54371  0.32245  Biso   1.000  H
  H102     1.0000 0.67141  0.58929  0.38771  Biso   1.000  H
  Br22     1.0000 0.15346  0.53894  0.63755  Biso   1.000  Br
  C145     1.0000 0.23660  0.45783  0.34146  Biso   1.000  C
  C146     1.0000 0.48277  0.67406  0.47870  Biso   1.000  C
  H103     1.0000 0.55276  0.64019  0.63137  Biso   1.000  H
  H104     1.0000 0.63437  0.63230  0.52083  Biso   1.000  H
  H105     1.0000 0.35545  0.60319  0.64167  Biso   1.000  H
  C147     1.0000 0.58432  0.64169  0.20573  Biso   1.000  C
  C148     1.0000 0.52960  0.57154  0.12003  Biso   1.000  C
  O20      1.0000 0.26096  0.47261  0.22832  Biso   1.000  O
  H106     1.0000 0.30692  0.43851  0.37265  Biso   1.000  H
  H107     1.0000 0.15867  0.43991  0.33195  Biso   1.000  H
  C149     1.0000 0.37828  0.69162  0.52747  Biso   1.000  C
  C150     1.0000 0.51612  0.69018  0.36960  Biso   1.000  C
  C151     1.0000 0.62687  0.67272  0.30829  Biso   1.000  C
  C152     1.0000 0.55758  0.65980  0.09206  Biso   1.000  C
  C153     1.0000 0.50133  0.59043  0.00879  Biso   1.000  C
  H108     1.0000 0.52089  0.54090  0.12810  Biso   1.000  H
  C154     1.0000 0.18052  0.50214  0.16459  Biso   1.000  C
  Br23     1.0000 0.29397  0.46791  0.03998  Biso   1.000  Br
  C155     1.0000 0.30410  0.72369  0.46947  Biso   1.000  C
  H109     1.0000 0.35762  0.68121  0.60286  Biso   1.000  H
  C156     1.0000 0.44368  0.72399  0.31456  Biso   1.000  C
  H110     1.0000 0.68580  0.65719  0.36790  Biso   1.000  H
  H111     1.0000 0.67307  0.69749  0.27673  Biso   1.000  H
  C157     1.0000 0.51344  0.63504  0.99310  Biso   1.000  C
  H112     1.0000 0.57022  0.69021  0.08211  Biso   1.000  H
  Br24     1.0000 0.45108  0.55542  0.87253  Biso   1.000  Br
  Br25     1.0000 0.38203  0.56391  0.85998  Biso   1.000  Br
  C158     1.0000 0.07731  0.52266  0.20609  Biso   1.000  C
  C159     1.0000 0.21396  0.51140  0.05199  Biso   1.000  C
  O21      1.0000 0.19871  0.74086  0.51599  Biso   1.000  O
  C160     1.0000 0.34032  0.74059  0.36342  Biso   1.000  C
  H113     1.0000 0.46648  0.73590  0.24159  Biso   1.000  H
  O22      1.0000 0.49018  0.65165  0.87853  Biso   1.000  O
  C161     1.0000 0.00513  0.55262  0.13366  Biso   1.000  C
  H114     1.0000 0.05534  0.51640  0.28417  Biso   1.000  H
  C162     1.0000 0.14399  0.54080  0.98162  Biso   1.000  C
  H115     1.0000 0.28484  0.49750  0.02349  Biso   1.000  H
  C163     1.0000 0.12543  0.71315  0.58125  Biso   1.000  C
  Br26     1.0000 0.25164  0.78863  0.28785  Biso   1.000  Br
  C164     1.0000 0.43459  0.69351  0.86266  Biso   1.000  C
  C165     1.0000 0.89164  0.57327  0.18350  Biso   1.000  C
  C166     1.0000 0.03971  0.56205  0.01936  Biso   1.000  C
  H116     1.0000 0.16759  0.54691  0.90390  Biso   1.000  H
  O23      1.0000 0.00196  0.71035  0.52379  Biso   1.000  O
  H117     1.0000 0.16397  0.68369  0.58726  Biso   1.000  H
  H118     1.0000 0.12318  0.72470  0.66346  Biso   1.000  H
  O24      1.0000 0.30844  0.68989  0.81255  Biso   1.000  O
  H119     1.0000 0.43765  0.70849  0.94101  Biso   1.000  H
  H120     1.0000 0.48283  0.71120  0.80924  Biso   1.000  H
  C167     1.0000 0.92501  0.61073  0.26992  Biso   1.000  C
  H121     1.0000 0.84674  0.55049  0.22528  Biso   1.000  H
  H122     1.0000 0.83286  0.58420  0.11582  Biso   1.000  H
  C168     1.0000 0.97385  0.59601  0.93501  Biso   1.000  C
  C169     1.0000 0.98171  0.67658  0.43953  Biso   1.000  C
  C170     1.0000 0.21714  0.68343  0.89279  Biso   1.000  C
  C171     1.0000 0.93145  0.65432  0.23325  Biso   1.000  C
  C172     1.0000 0.94797  0.60107  0.39291  Biso   1.000  C
  C173     1.0000 0.04385  0.63908  0.94854  Biso   1.000  C
  H123     1.0000 0.97150  0.58570  0.85110  Biso   1.000  H
  H124     1.0000 0.88576  0.60009  0.95392  Biso   1.000  H
  C174     1.0000 0.96022  0.68663  0.31887  Biso   1.000  C
  C175     1.0000 0.97596  0.63363  0.47745  Biso   1.000  C
  C176     1.0000 0.14413  0.64623  0.87916  Biso   1.000  C
  C177     1.0000 0.19515  0.71449  0.97750  Biso   1.000  C
  C178     1.0000 0.90267  0.66887  0.10336  Biso   1.000  C
  H125     1.0000 0.94399  0.57161  0.41855  Biso   1.000  H
  C179     1.0000 0.01678  0.67139  0.03155  Biso   1.000  C
  H126     1.0000 0.96523  0.71619  0.29403  Biso   1.000  H
  H127     1.0000 0.99097  0.62659  0.56019  Biso   1.000  H
  Br27     1.0000 0.94741  0.63598  0.63845  Biso   1.000  Br
  H128     1.0000 0.16231  0.62499  0.82161  Biso   1.000  H
  C180     1.0000 0.09386  0.70823  0.04536  Biso   1.000  C
  H129     1.0000 0.24782  0.73949  0.98906  Biso   1.000  H
  Br28     1.0000 0.29808  0.76592  0.97400  Biso   1.000  Br
  H130     1.0000 0.86255  0.69801  0.10273  Biso   1.000  H
  H131     1.0000 0.84049  0.64842  0.06239  Biso   1.000  H
  H132     1.0000 0.07698  0.72970  0.10282  Biso   1.000  H
  C181     1.0000 0.69508  0.78553  0.47745  Biso   1.000  C
  C182     1.0000 0.71709  0.81659  0.39282  Biso   1.000  C
  C183     1.0000 0.59390  0.79176  0.54540  Biso   1.000  C
  H133     1.0000 0.74767  0.76050  0.48910  Biso   1.000  H
  Br29     1.0000 0.79801  0.73410  0.47395  Biso   1.000  Br
  O25      1.0000 0.80828  0.81010  0.31250  Biso   1.000  O
  C184     1.0000 0.64407  0.85375  0.37920  Biso   1.000  C
  C185     1.0000 0.51682  0.82863  0.53159  Biso   1.000  C
  H134     1.0000 0.57701  0.77029  0.60277  Biso   1.000  H
  C186     1.0000 0.93444  0.80651  0.36270  Biso   1.000  C
  H135     1.0000 0.66215  0.87500  0.32155  Biso   1.000  H
  C187     1.0000 0.54378  0.86090  0.44849  Biso   1.000  C
  C188     1.0000 0.40270  0.83111  0.60340  Biso   1.000  C
  O26      1.0000 0.99011  0.84834  0.37848  Biso   1.000  O
  H136     1.0000 0.93759  0.79150  0.44096  Biso   1.000  H
  H137     1.0000 0.98276  0.78879  0.30918  Biso   1.000  H
  C189     1.0000 0.47378  0.90397  0.43495  Biso   1.000  C
  C190     1.0000 0.43140  0.84569  0.73329  Biso   1.000  C
  H138     1.0000 0.36249  0.80200  0.60268  Biso   1.000  H
  H139     1.0000 0.34053  0.85160  0.56243  Biso   1.000  H
  C191     1.0000 0.01339  0.86495  0.49313  Biso   1.000  C
  C192     1.0000 0.53974  0.93794  0.51940  Biso   1.000  C
  H140     1.0000 0.47144  0.91431  0.35114  Biso   1.000  H
  H141     1.0000 0.38569  0.89989  0.45387  Biso   1.000  H
  C193     1.0000 0.46026  0.81336  0.81890  Biso   1.000  C
  C194     1.0000 0.42503  0.88926  0.76987  Biso   1.000  C
  C195     1.0000 0.05761  0.84018  0.59210  Biso   1.000  C
  C196     1.0000 0.00137  0.90958  0.50882  Biso   1.000  C
  C197     1.0000 0.50517  0.94740  0.63370  Biso   1.000  C
  C198     1.0000 0.64392  0.95921  0.48157  Biso   1.000  C
  C199     1.0000 0.48174  0.82344  0.93947  Biso   1.000  C
  H142     1.0000 0.46526  0.78380  0.79398  Biso   1.000  H
  C200     1.0000 0.44790  0.89891  0.89286  Biso   1.000  C
  C201     1.0000 0.39167  0.92675  0.68345  Biso   1.000  C
  H143     1.0000 0.07015  0.80980  0.58206  Biso   1.000  H
  C202     1.0000 0.08435  0.85829  0.70568  Biso   1.000  C
  Br30     1.0000 0.95102  0.94456  0.37256  Biso   1.000  Br
  Br31     1.0000 0.88197  0.93611  0.36001  Biso   1.000  Br
  C203     1.0000 0.02972  0.92844  0.61998  Biso   1.000  C
  C204     1.0000 0.57734  0.97732  0.70613  Biso   1.000  C
  H144     1.0000 0.66753  0.95311  0.40385  Biso   1.000  H
  C205     1.0000 0.71400  0.98861  0.55203  Biso   1.000  C
  C206     1.0000 0.47590  0.86638  0.97748  Biso   1.000  C
  O27      1.0000 0.50191  0.78964  0.02383  Biso   1.000  O
  O28      1.0000 0.50181  0.78964  0.02383  Biso   1.000  O
  H145     1.0000 0.44403  0.92841  0.91859  Biso   1.000  H
  H146     1.0000 0.34677  0.94949  0.72531  Biso   1.000  H
  H147     1.0000 0.33279  0.91582  0.61577  Biso   1.000  H
  C207     1.0000 0.07070  0.90345  0.72110  Biso   1.000  C
  C208     1.0000 0.12690  0.82726  0.80832  Biso   1.000  C
  H148     1.0000 0.02091  0.95912  0.62805  Biso   1.000  H
  C209     1.0000 0.68056  0.99785  0.66462  Biso   1.000  C
  H149     1.0000 0.55538  0.98359  0.78421  Biso   1.000  H
  H150     1.0000 0.78488  0.00251  0.52352  Biso   1.000  H
  Br32     1.0000 0.79401  0.03211  0.54002  Biso   1.000  Br
  H151     1.0000 0.49082  0.87340  0.06022  Biso   1.000  H
  Br33     1.0000 0.44735  0.86400  0.13848  Biso   1.000  Br
  C210     1.0000 0.62538  0.78686  0.08129  Biso   1.000  C
  C211     1.0000 0.10410  0.92730  0.83979  Biso   1.000  C
  C212     1.0000 0.01615  0.80983  0.86955  Biso   1.000  C
  H152     1.0000 0.18592  0.84279  0.86785  Biso   1.000  H
  H153     1.0000 0.17310  0.80249  0.77668  Biso   1.000  H
  O29      1.0000 0.76099  0.02738  0.72827  Biso   1.000  O
  O30      1.0000 0.69864  0.75913  0.01594  Biso   1.000  O
  H154     1.0000 0.66382  0.81630  0.08730  Biso   1.000  H
  H155     1.0000 0.62303  0.77531  0.16349  Biso   1.000  H
  C213     1.0000 0.99504  0.93393  0.91572  Biso   1.000  C
  H156     1.0000 0.13944  0.95631  0.82249  Biso   1.000  H
  H157     1.0000 0.17144  0.91069  0.88766  Biso   1.000  H
  C214     1.0000 0.98280  0.82592  0.97865  Biso   1.000  C
  C215     1.0000 0.94372  0.77600  0.81460  Biso   1.000  C
  C216     1.0000 0.73664  0.04216  0.84149  Biso   1.000  C
  C217     1.0000 0.80414  0.77632  0.96950  Biso   1.000  C
  C218     1.0000 0.91449  0.96943  0.88820  Biso   1.000  C
  C219     1.0000 0.97241  0.90609  0.01101  Biso   1.000  C
  C220     1.0000 0.87822  0.80840  0.02750  Biso   1.000  C
  C221     1.0000 0.04730  0.86465  0.04364  Biso   1.000  C
  H158     1.0000 0.96652  0.76409  0.74163  Biso   1.000  H
  C222     1.0000 0.84035  0.75942  0.86337  Biso   1.000  C
  O31      1.0000 0.72182  0.00963  0.92827  Biso   1.000  O
  H159     1.0000 0.80696  0.06151  0.87269  Biso   1.000  H
  H160     1.0000 0.65871  0.06010  0.83199  Biso   1.000  H
  C223     1.0000 0.81106  0.97739  0.95104  Biso   1.000  C
  H161     1.0000 0.93111  0.98851  0.82491  Biso   1.000  H
  C224     1.0000 0.87034  0.91497  0.07600  Biso   1.000  C
  H162     1.0000 0.85756  0.81881  0.10289  Biso   1.000  H
  H163     1.0000 0.05261  0.85979  0.13140  Biso   1.000  H
  H164     1.0000 0.13431  0.86769  0.02078  Biso   1.000  H
  Br34     1.0000 0.75167  0.71136  0.78779  Biso   1.000  Br
  C225     1.0000 0.79057  0.94995  0.04615  Biso   1.000  C
  H165     1.0000 0.85539  0.89679  0.14171  Biso   1.000  H
  Br35     1.0000 0.65339  0.96107  0.13750  Biso   1.000  Br
  C226     1.0000 0.30488  0.21447  0.52245  Biso   1.000  C
  C227     1.0000 0.40608  0.20824  0.45459  Biso   1.000  C
  C228     1.0000 0.28288  0.18341  0.60716  Biso   1.000  C
  H166     1.0000 0.25230  0.23950  0.51088  Biso   1.000  H
  Br36     1.0000 0.20206  0.26590  0.52603  Biso   1.000  Br
  C229     1.0000 0.48325  0.17137  0.46839  Biso   1.000  C
  H167     1.0000 0.42306  0.22971  0.39721  Biso   1.000  H
  O32      1.0000 0.19169  0.18990  0.68748  Biso   1.000  O
  C230     1.0000 0.35590  0.14625  0.62079  Biso   1.000  C
  C231     1.0000 0.59727  0.16889  0.39659  Biso   1.000  C
  C232     1.0000 0.45619  0.13910  0.55149  Biso   1.000  C
  C233     1.0000 0.06553  0.19349  0.63728  Biso   1.000  C
  H168     1.0000 0.33782  0.12500  0.67843  Biso   1.000  H
  C234     1.0000 0.56857  0.15431  0.26669  Biso   1.000  C
  H169     1.0000 0.63749  0.19800  0.39730  Biso   1.000  H
  H170     1.0000 0.65953  0.14840  0.43755  Biso   1.000  H
  C235     1.0000 0.52619  0.09603  0.56503  Biso   1.000  C
  O33      1.0000 0.00996  0.15166  0.62150  Biso   1.000  O
  H171     1.0000 0.06248  0.20850  0.55902  Biso   1.000  H
  H172     1.0000 0.01721  0.21121  0.69080  Biso   1.000  H
  C236     1.0000 0.53981  0.18664  0.18108  Biso   1.000  C
  C237     1.0000 0.57503  0.11074  0.23012  Biso   1.000  C
  C238     1.0000 0.46032  0.06206  0.48058  Biso   1.000  C
  H173     1.0000 0.52863  0.08569  0.64885  Biso   1.000  H
  H174     1.0000 0.61428  0.10011  0.54611  Biso   1.000  H
  C239     1.0000 0.98668  0.13505  0.50685  Biso   1.000  C
  C240     1.0000 0.51824  0.17656  0.06051  Biso   1.000  C
  H175     1.0000 0.53481  0.21620  0.20600  Biso   1.000  H
  C241     1.0000 0.55207  0.10109  0.10713  Biso   1.000  C
  C242     1.0000 0.60840  0.07325  0.31653  Biso   1.000  C
  C243     1.0000 0.49489  0.05260  0.36629  Biso   1.000  C
  C244     1.0000 0.35614  0.04079  0.51841  Biso   1.000  C
  C245     1.0000 0.94245  0.15982  0.40788  Biso   1.000  C
  C246     1.0000 0.99860  0.09042  0.49116  Biso   1.000  C
  O34      1.0000 0.49816  0.21036  0.97615  Biso   1.000  O
  C247     1.0000 0.52407  0.13362  0.02250  Biso   1.000  C
  H176     1.0000 0.55595  0.07159  0.08140  Biso   1.000  H
  H177     1.0000 0.65329  0.05051  0.27467  Biso   1.000  H
  H178     1.0000 0.66718  0.08418  0.38422  Biso   1.000  H
  C248     1.0000 0.42272  0.02268  0.29385  Biso   1.000  C
  C249     1.0000 0.28597  0.01139  0.44795  Biso   1.000  C
  H179     1.0000 0.33253  0.04689  0.59605  Biso   1.000  H
  C250     1.0000 0.91572  0.14171  0.29430  Biso   1.000  C
  H180     1.0000 0.92982  0.19020  0.41792  Biso   1.000  H
  C251     1.0000 0.97044  0.07156  0.38000  Biso   1.000  C
  Br37     1.0000 0.04905  0.05544  0.62742  Biso   1.000  Br
  Br38     1.0000 0.11800  0.06389  0.63997  Biso   1.000  Br
  C252     1.0000 0.37469  0.21314  0.91869  Biso   1.000  C
  H181     1.0000 0.50915  0.12660  0.93976  Biso   1.000  H
  Br39     1.0000 0.55262  0.13600  0.86150  Biso   1.000  Br
  C253     1.0000 0.31951  0.00215  0.33536  Biso   1.000  C
  H182     1.0000 0.44469  0.01641  0.21577  Biso   1.000  H
  Br40     1.0000 0.20606  0.96789  0.45997  Biso   1.000  Br
  H183     1.0000 0.21509  0.99749  0.47646  Biso   1.000  H
  C254     1.0000 0.87316  0.17274  0.19166  Biso   1.000  C
  C255     1.0000 0.92937  0.09655  0.27888  Biso   1.000  C
  H184     1.0000 0.97915  0.04088  0.37193  Biso   1.000  H
  O35      1.0000 0.30142  0.24087  0.98404  Biso   1.000  O
  H185     1.0000 0.33615  0.18370  0.91269  Biso   1.000  H
  H186     1.0000 0.37694  0.22469  0.83649  Biso   1.000  H
  O36      1.0000 0.23908  0.97262  0.27171  Biso   1.000  O
  C256     1.0000 0.98391  0.19017  0.13043  Biso   1.000  C
  H187     1.0000 0.81424  0.15721  0.13214  Biso   1.000  H
  H188     1.0000 0.82697  0.19751  0.22330  Biso   1.000  H
  C257     1.0000 0.89587  0.07270  0.16019  Biso   1.000  C
  C258     1.0000 0.19593  0.22368  0.03048  Biso   1.000  C
  C259     1.0000 0.26343  0.95784  0.15849  Biso   1.000  C
  C260     1.0000 0.05635  0.22400  0.18538  Biso   1.000  C
  C261     1.0000 0.01717  0.17408  0.02134  Biso   1.000  C
  C262     1.0000 0.00503  0.06607  0.08427  Biso   1.000  C
  H189     1.0000 0.86062  0.04369  0.17750  Biso   1.000  H
  H190     1.0000 0.82863  0.08931  0.11232  Biso   1.000  H
  C263     1.0000 0.15971  0.24058  0.13662  Biso   1.000  C
  C264     1.0000 0.12175  0.19160  0.97248  Biso   1.000  C
  O37      1.0000 0.27824  0.99037  0.07172  Biso   1.000  O
  H191     1.0000 0.19310  0.93849  0.12730  Biso   1.000  H
  H192     1.0000 0.34126  0.93990  0.16799  Biso   1.000  H
  H193     1.0000 0.03354  0.23591  0.25836  Biso   1.000  H
  C265     1.0000 0.95267  0.13535  0.95634  Biso   1.000  C
  C266     1.0000 0.02757  0.09391  0.98897  Biso   1.000  C
  C267     1.0000 0.08548  0.03057  0.11179  Biso   1.000  C
  Br41     1.0000 0.24840  0.28864  0.21219  Biso   1.000  Br
  H194     1.0000 0.14250  0.18119  0.89709  Biso   1.000  H
  C268     1.0000 0.18899  0.02261  0.04886  Biso   1.000  C
  H195     1.0000 0.94736  0.14021  0.86858  Biso   1.000  H
  H196     1.0000 0.86566  0.13231  0.97920  Biso   1.000  H
  C269     1.0000 0.12964  0.08503  0.92398  Biso   1.000  C
  H197     1.0000 0.06895  0.01149  0.17508  Biso   1.000  H
  C270     1.0000 0.20949  0.05005  0.95383  Biso   1.000  C
  H198     1.0000 0.14468  0.10321  0.85827  Biso   1.000  H
  Br42     1.0000 0.34658  0.03893  0.86249  Biso   1.000  Br
