data_image0
_cell_length_a       12.109
_cell_length_b       16.382
_cell_length_c       18.9
_cell_angle_alpha    92.32
_cell_angle_beta     107.54
_cell_angle_gamma    92.41

_symmetry_space_group_name_H-M    "P 1"
_symmetry_int_tables_number       1

loop_
  _symmetry_equiv_pos_as_xyz
  'x, y, z'

loop_
  _atom_site_label
  _atom_site_occupancy
  _atom_site_fract_x
  _atom_site_fract_y
  _atom_site_fract_z
  _atom_site_thermal_displace_type
  _atom_site_B_iso_or_equiv
  _atom_site_type_symbol
  C1       1.0000 0.81028  0.74291  0.67292  Biso   1.000  C
  C2       1.0000 0.86077  0.80239  0.64158  Biso   1.000  C
  H1       1.0000 0.73333  0.72102  0.64980  Biso   1.000  H
  C3       1.0000 0.87809  0.71679  0.74000  Biso   1.000  C
  O1       1.0000 0.79672  0.83412  0.57127  Biso   1.000  O
  C4       1.0000 0.97241  0.83587  0.67348  Biso   1.000  C
  O2       1.0000 0.83066  0.65402  0.77351  Biso   1.000  O
  C5       1.0000 0.99088  0.74660  0.77568  Biso   1.000  C
  C6       1.0000 0.74589  0.90599  0.57461  Biso   1.000  C
  C7       1.0000 0.03717  0.80699  0.74039  Biso   1.000  C
  H2       1.0000 0.00368  0.87752  0.65030  Biso   1.000  H
  C8       1.0000 0.77819  0.67899  0.82592  Biso   1.000  C
  H3       1.0000 0.03467  0.72713  0.82181  Biso   1.000  H
  N1       1.0000 0.73669  0.93372  0.63913  Biso   1.000  N
  N2       1.0000 0.70799  0.94181  0.50936  Biso   1.000  N
  O3       1.0000 0.15313  0.83874  0.77379  Biso   1.000  O
  N3       1.0000 0.75034  0.61918  0.86472  Biso   1.000  N
  N4       1.0000 0.75897  0.75842  0.83092  Biso   1.000  N
  C9       1.0000 0.68452  0.00377  0.63580  Biso   1.000  C
  C10      1.0000 0.65872  0.01317  0.51431  Biso   1.000  C
  C11      1.0000 0.16755  0.90921  0.81998  Biso   1.000  C
  C12      1.0000 0.70002  0.64520  0.91629  Biso   1.000  C
  C13      1.0000 0.70721  0.77531  0.88300  Biso   1.000  C
  O4       1.0000 0.67044  0.03937  0.69899  Biso   1.000  O
  N5       1.0000 0.64171  0.04652  0.57577  Biso   1.000  N
  C14      1.0000 0.62521  0.06249  0.44589  Biso   1.000  C
  N6       1.0000 0.27805  0.93893  0.84326  Biso   1.000  N
  N7       1.0000 0.07607  0.93498  0.83570  Biso   1.000  N
  N8       1.0000 0.67402  0.72299  0.92552  Biso   1.000  N
  C15      1.0000 0.67820  0.58589  0.96820  Biso   1.000  C
  O5       1.0000 0.68693  0.85577  0.89495  Biso   1.000  O
  C16      1.0000 0.73302  0.00493  0.76701  Biso   1.000  C
  C17      1.0000 0.66154  0.04188  0.38481  Biso   1.000  C
  C18      1.0000 0.56698  0.13581  0.44700  Biso   1.000  C
  C19      1.0000 0.29340  0.00801  0.88878  Biso   1.000  C
  C20      1.0000 0.10504  0.99878  0.88272  Biso   1.000  C
  C21      1.0000 0.70243  0.50403  0.96042  Biso   1.000  C
  C22      1.0000 0.63607  0.61059  0.02628  Biso   1.000  C
  C23      1.0000 0.74211  0.91349  0.86183  Biso   1.000  C
  C24      1.0000 0.67961  0.94213  0.79591  Biso   1.000  C
  C25      1.0000 0.84298  0.03610  0.80091  Biso   1.000  C
  H4       1.0000 0.69923  0.99248  0.38331  Biso   1.000  H
  C26      1.0000 0.64343  0.09263  0.32579  Biso   1.000  C
  H5       1.0000 0.54035  0.14988  0.48807  Biso   1.000  H
  C27      1.0000 0.54868  0.18671  0.38842  Biso   1.000  C
  N9       1.0000 0.20800  0.04190  0.91029  Biso   1.000  N
  C28      1.0000 0.40939  0.05180  0.91640  Biso   1.000  C
  O6       1.0000 0.01802  0.03490  0.90579  Biso   1.000  O
  H6       1.0000 0.73344  0.48701  0.92201  Biso   1.000  H
  C29      1.0000 0.68174  0.44651  0.00871  Biso   1.000  C
  C30      1.0000 0.61962  0.55449  0.07568  Biso   1.000  C
  H7       1.0000 0.61879  0.66599  0.03200  Biso   1.000  H
  C31      1.0000 0.85258  0.94122  0.89951  Biso   1.000  C
  H8       1.0000 0.60318  0.92053  0.77051  Biso   1.000  H
  C32      1.0000 0.90280  0.00251  0.86788  Biso   1.000  C
  H9       1.0000 0.87764  0.07833  0.78029  Biso   1.000  H
  C33      1.0000 0.58789  0.16771  0.32679  Biso   1.000  C
  H10      1.0000 0.66809  0.07718  0.28422  Biso   1.000  H
  H11      1.0000 0.50891  0.23523  0.38948  Biso   1.000  H
  C34      1.0000 0.50753  0.02191  0.90217  Biso   1.000  C
  C35      1.0000 0.42223  0.12523  0.95992  Biso   1.000  C
  C36      1.0000 0.64178  0.47361  0.06990  Biso   1.000  C
  H12      1.0000 0.69370  0.39032  0.00110  Biso   1.000  H
  H13      1.0000 0.59180  0.57298  0.11509  Biso   1.000  H
  H14      1.0000 0.89377  0.91979  0.94541  Biso   1.000  H
  B1       1.0000 0.57195  0.22501  0.26088  Biso   1.000  B
  H15      1.0000 0.49960  0.97318  0.87172  Biso   1.000  H
  C37      1.0000 0.61426  0.06139  0.93118  Biso   1.000  C
  H16      1.0000 0.35678  0.14659  0.97042  Biso   1.000  H
  C38      1.0000 0.53122  0.16720  0.98782  Biso   1.000  C
  B2       1.0000 0.61728  0.40588  0.12309  Biso   1.000  B
  O7       1.0000 0.59422  0.20625  0.19619  Biso   1.000  O
  O8       1.0000 0.52814  0.30193  0.26393  Biso   1.000  O
  C39      1.0000 0.63227  0.13671  0.97370  Biso   1.000  C
  H17      1.0000 0.67942  0.03727  0.92251  Biso   1.000  H
  H18      1.0000 0.53832  0.21700  0.01672  Biso   1.000  H
  O9       1.0000 0.64251  0.32949  0.11275  Biso   1.000  O
  O10      1.0000 0.57121  0.43072  0.17928  Biso   1.000  O
  H19      1.0000 0.62938  0.16678  0.18529  Biso   1.000  H
  H20      1.0000 0.50951  0.30819  0.30311  Biso   1.000  H
  B3       1.0000 0.75968  0.17798  0.00799  Biso   1.000  B
  H21      1.0000 0.62571  0.30062  0.14410  Biso   1.000  H
  H22      1.0000 0.56080  0.38999  0.20262  Biso   1.000  H
  O11      1.0000 0.84554  0.13963  0.98854  Biso   1.000  O
  O12      1.0000 0.78784  0.24610  0.05279  Biso   1.000  O
  H23      1.0000 0.90352  0.17240  0.99582  Biso   1.000  H
  H24      1.0000 0.72936  0.26061  0.06418  Biso   1.000  H
  C40      1.0000 0.18972  0.25709  0.32712  Biso   1.000  C
  C41      1.0000 0.12189  0.28321  0.25999  Biso   1.000  C
  C42      1.0000 0.13920  0.19761  0.35841  Biso   1.000  C
  H25      1.0000 0.26673  0.27897  0.35019  Biso   1.000  H
  O13      1.0000 0.16932  0.34597  0.22647  Biso   1.000  O
  C43      1.0000 0.00910  0.25340  0.22431  Biso   1.000  C
  O14      1.0000 0.20325  0.16588  0.42872  Biso   1.000  O
  C44      1.0000 0.02757  0.16412  0.32651  Biso   1.000  C
  C45      1.0000 0.22181  0.32101  0.17412  Biso   1.000  C
  C46      1.0000 0.96280  0.19301  0.25960  Biso   1.000  C
  H26      1.0000 0.96531  0.27293  0.17818  Biso   1.000  H
  C47      1.0000 0.25408  0.09401  0.42538  Biso   1.000  C
  H27      1.0000 0.99630  0.12247  0.34969  Biso   1.000  H
  N10      1.0000 0.24101  0.24158  0.16906  Biso   1.000  N
  N11      1.0000 0.24972  0.38082  0.13527  Biso   1.000  N
  O15      1.0000 0.84685  0.16126  0.22620  Biso   1.000  O
  N12      1.0000 0.26328  0.06628  0.36086  Biso   1.000  N
  N13      1.0000 0.29199  0.05818  0.49063  Biso   1.000  N
  C48      1.0000 0.29277  0.22469  0.11699  Biso   1.000  C
  C49      1.0000 0.30004  0.35480  0.08370  Biso   1.000  C
  C50      1.0000 0.83243  0.09079  0.18001  Biso   1.000  C
  C51      1.0000 0.31554  0.99622  0.36419  Biso   1.000  C
  C52      1.0000 0.34126  0.98682  0.48568  Biso   1.000  C
  O16      1.0000 0.31313  0.14423  0.10504  Biso   1.000  O
  N14      1.0000 0.32596  0.27700  0.07447  Biso   1.000  N
  C53      1.0000 0.32177  0.41411  0.03179  Biso   1.000  C
  N15      1.0000 0.92390  0.06502  0.16428  Biso   1.000  N
  N16      1.0000 0.72192  0.06107  0.15673  Biso   1.000  N
  O17      1.0000 0.32962  0.96063  0.30100  Biso   1.000  O
  N17      1.0000 0.35827  0.95348  0.42422  Biso   1.000  N
  C54      1.0000 0.37477  0.93751  0.55410  Biso   1.000  C
  C55      1.0000 0.25790  0.08651  0.13822  Biso   1.000  C
  C56      1.0000 0.29758  0.49597  0.03963  Biso   1.000  C
  C57      1.0000 0.36390  0.38940  0.97371  Biso   1.000  C
  C58      1.0000 0.89504  0.00122  0.11732  Biso   1.000  C
  C59      1.0000 0.70657  0.99199  0.11121  Biso   1.000  C
  C60      1.0000 0.26696  0.99513  0.23298  Biso   1.000  C
  C61      1.0000 0.33852  0.95812  0.61518  Biso   1.000  C
  C62      1.0000 0.43300  0.86418  0.55299  Biso   1.000  C
  C63      1.0000 0.32036  0.05787  0.20408  Biso   1.000  C
  C64      1.0000 0.14740  0.05878  0.10048  Biso   1.000  C
  H28      1.0000 0.26662  0.51299  0.07797  Biso   1.000  H
  C65      1.0000 0.31832  0.55349  0.99127  Biso   1.000  C
  C66      1.0000 0.38044  0.44551  0.92430  Biso   1.000  C
  H29      1.0000 0.38118  0.33400  0.96799  Biso   1.000  H
  O18      1.0000 0.98196  0.96510  0.09420  Biso   1.000  O
  N18      1.0000 0.79198  0.95810  0.08970  Biso   1.000  N
  C67      1.0000 0.59059  0.94819  0.08359  Biso   1.000  C
  C68      1.0000 0.15699  0.96390  0.19908  Biso   1.000  C
  H30      1.0000 0.30083  0.00752  0.61668  Biso   1.000  H
  C69      1.0000 0.35663  0.90737  0.67420  Biso   1.000  C
  H31      1.0000 0.45962  0.85011  0.51192  Biso   1.000  H
  C70      1.0000 0.45133  0.81329  0.61162  Biso   1.000  C
  H32      1.0000 0.39680  0.07947  0.22948  Biso   1.000  H
  H33      1.0000 0.10621  0.08021  0.05458  Biso   1.000  H
  C71      1.0000 0.09718  0.99748  0.13211  Biso   1.000  C
  C72      1.0000 0.35819  0.52639  0.93008  Biso   1.000  C
  H34      1.0000 0.30627  0.60968  0.99889  Biso   1.000  H
  H35      1.0000 0.40817  0.42702  0.88490  Biso   1.000  H
  C73      1.0000 0.49253  0.97809  0.09781  Biso   1.000  C
  C74      1.0000 0.57778  0.87477  0.04013  Biso   1.000  C
  H36      1.0000 0.12242  0.92173  0.21969  Biso   1.000  H
  C75      1.0000 0.41209  0.83228  0.67320  Biso   1.000  C
  H37      1.0000 0.33191  0.92282  0.71583  Biso   1.000  H
  H38      1.0000 0.49107  0.76483  0.61051  Biso   1.000  H
  B4       1.0000 0.38270  0.59412  0.87690  Biso   1.000  B
  C76      1.0000 0.38571  0.93861  0.06880  Biso   1.000  C
  H39      1.0000 0.50041  0.02682  0.12833  Biso   1.000  H
  H40      1.0000 0.64322  0.85342  0.02962  Biso   1.000  H
  C77      1.0000 0.46878  0.83280  0.01223  Biso   1.000  C
  B5       1.0000 0.42802  0.77499  0.73911  Biso   1.000  B
  O19      1.0000 0.35750  0.67052  0.88729  Biso   1.000  O
  O20      1.0000 0.42877  0.56928  0.82071  Biso   1.000  O
  C78      1.0000 0.36771  0.86329  0.02629  Biso   1.000  C
  H41      1.0000 0.32056  0.96272  0.07747  Biso   1.000  H
  H42      1.0000 0.46169  0.78300  0.98333  Biso   1.000  H
  O21      1.0000 0.40578  0.79375  0.80386  Biso   1.000  O
  O22      1.0000 0.47192  0.69807  0.73606  Biso   1.000  O
  H43      1.0000 0.37426  0.69938  0.85589  Biso   1.000  H
  H44      1.0000 0.43921  0.61001  0.79742  Biso   1.000  H
  B6       1.0000 0.24030  0.82202  0.99200  Biso   1.000  B
  H45      1.0000 0.37060  0.83322  0.81470  Biso   1.000  H
  H46      1.0000 0.49046  0.69181  0.69687  Biso   1.000  H
  O23      1.0000 0.21222  0.75390  0.94720  Biso   1.000  O
  O24      1.0000 0.15451  0.86036  0.01145  Biso   1.000  O
  H47      1.0000 0.27061  0.73939  0.93581  Biso   1.000  H
  H48      1.0000 0.09648  0.82760  0.00422  Biso   1.000  H
