data_image0
_cell_length_a       13.901
_cell_length_b       18.133
_cell_length_c       19.24
_cell_angle_alpha    113.85
_cell_angle_beta     95.97
_cell_angle_gamma    103.08

_symmetry_space_group_name_H-M    "P 1"
_symmetry_int_tables_number       1

loop_
  _symmetry_equiv_pos_as_xyz
  'x, y, z'

loop_
  _atom_site_label
  _atom_site_occupancy
  _atom_site_fract_x
  _atom_site_fract_y
  _atom_site_fract_z
  _atom_site_thermal_displace_type
  _atom_site_B_iso_or_equiv
  _atom_site_type_symbol
  C1       1.0000 0.61448  0.44318  0.46033  Biso   1.000  C
  S1       1.0000 0.49955  0.36597  0.43150  Biso   1.000  S
  C2       1.0000 0.67512  0.44283  0.52103  Biso   1.000  C
  C3       1.0000 0.63836  0.49312  0.41740  Biso   1.000  C
  C4       1.0000 0.53510  0.33253  0.49959  Biso   1.000  C
  C5       1.0000 0.62999  0.38118  0.54386  Biso   1.000  C
  H1       1.0000 0.73993  0.47994  0.54485  Biso   1.000  H
  C6       1.0000 0.56546  0.51346  0.38100  Biso   1.000  C
  C7       1.0000 0.74097  0.51981  0.41129  Biso   1.000  C
  C8       1.0000 0.46761  0.25781  0.50186  Biso   1.000  C
  H2       1.0000 0.66132  0.37402  0.58475  Biso   1.000  H
  C9       1.0000 0.59050  0.55906  0.33749  Biso   1.000  C
  H3       1.0000 0.49870  0.49707  0.38508  Biso   1.000  H
  C10      1.0000 0.76636  0.56307  0.36906  Biso   1.000  C
  H4       1.0000 0.79112  0.50727  0.43657  Biso   1.000  H
  C11      1.0000 0.36837  0.25668  0.50990  Biso   1.000  C
  C12      1.0000 0.50008  0.18780  0.49470  Biso   1.000  C
  N1       1.0000 0.51720  0.57936  0.30289  Biso   1.000  N
  C13      1.0000 0.69232  0.58334  0.33085  Biso   1.000  C
  H5       1.0000 0.83339  0.57937  0.36550  Biso   1.000  H
  C14      1.0000 0.30175  0.19011  0.51491  Biso   1.000  C
  H6       1.0000 0.34625  0.30207  0.51200  Biso   1.000  H
  C15      1.0000 0.43361  0.12202  0.50064  Biso   1.000  C
  C16      1.0000 0.60251  0.17889  0.47845  Biso   1.000  C
  C17      1.0000 0.54439  0.62105  0.26235  Biso   1.000  C
  N2       1.0000 0.71857  0.62643  0.28838  Biso   1.000  N
  C18      1.0000 0.19213  0.18880  0.51619  Biso   1.000  C
  C19      1.0000 0.33697  0.12275  0.51293  Biso   1.000  C
  H7       1.0000 0.45462  0.07543  0.49627  Biso   1.000  H
  H8       1.0000 0.65245  0.23407  0.50478  Biso   1.000  H
  H9       1.0000 0.62234  0.14318  0.50000  Biso   1.000  H
  C20      1.0000 0.60291  0.14188  0.39271  Biso   1.000  C
  C21      1.0000 0.64723  0.64573  0.25501  Biso   1.000  C
  C22      1.0000 0.46045  0.63630  0.22111  Biso   1.000  C
  C23      1.0000 0.12769  0.14421  0.43435  Biso   1.000  C
  H10      1.0000 0.16640  0.16004  0.54636  Biso   1.000  H
  H11      1.0000 0.18844  0.24611  0.54095  Biso   1.000  H
  C24      1.0000 0.27531  0.05204  0.52394  Biso   1.000  C
  C25      1.0000 0.62859  0.19393  0.35642  Biso   1.000  C
  C26      1.0000 0.57688  0.05455  0.34745  Biso   1.000  C
  C27      1.0000 0.67931  0.69307  0.20934  Biso   1.000  C
  N3       1.0000 0.44607  0.60048  0.14376  Biso   1.000  N
  C28      1.0000 0.39929  0.68078  0.26177  Biso   1.000  C
  C29      1.0000 0.12137  0.18774  0.38962  Biso   1.000  C
  C30      1.0000 0.07342  0.05862  0.40127  Biso   1.000  C
  C31      1.0000 0.23649  0.05327  0.58661  Biso   1.000  C
  S2       1.0000 0.24969  0.95012  0.45305  Biso   1.000  S
  C32      1.0000 0.62936  0.16086  0.27761  Biso   1.000  C
  H12      1.0000 0.64567  0.25217  0.38560  Biso   1.000  H
  O1       1.0000 0.54572  0.00519  0.38414  Biso   1.000  O
  C33      1.0000 0.58354  0.02224  0.27009  Biso   1.000  C
  N4       1.0000 0.64471  0.75844  0.21971  Biso   1.000  N
  C34      1.0000 0.74523  0.66950  0.16140  Biso   1.000  C
  C35      1.0000 0.36774  0.60772  0.10351  Biso   1.000  C
  H13      1.0000 0.41200  0.70475  0.31588  Biso   1.000  H
  C36      1.0000 0.31902  0.68838  0.21930  Biso   1.000  C
  O2       1.0000 0.17609  0.27192  0.42474  Biso   1.000  O
  C37      1.0000 0.05954  0.14795  0.31559  Biso   1.000  C
  C38      1.0000 0.01396  0.01791  0.32613  Biso   1.000  C
  H14      1.0000 0.07727  0.02837  0.43010  Biso   1.000  H
  H15      1.0000 0.24282  0.10265  0.63077  Biso   1.000  H
  C39      1.0000 0.18623  0.97266  0.57764  Biso   1.000  C
  C40      1.0000 0.18541  0.90875  0.50763  Biso   1.000  C
  O3       1.0000 0.64947  0.20898  0.23771  Biso   1.000  O
  C41      1.0000 0.61011  0.07428  0.23404  Biso   1.000  C
  C42      1.0000 0.50167  0.91658  0.33586  Biso   1.000  C
  H16      1.0000 0.57008  0.96428  0.24150  Biso   1.000  H
  C43      1.0000 0.67628  0.80222  0.17987  Biso   1.000  C
  C44      1.0000 0.77574  0.71493  0.12075  Biso   1.000  C
  H17      1.0000 0.76862  0.62388  0.15657  Biso   1.000  H
  C45      1.0000 0.30374  0.65127  0.13927  Biso   1.000  C
  H18      1.0000 0.35596  0.58250  0.04939  Biso   1.000  H
  H19      1.0000 0.27611  0.71777  0.24417  Biso   1.000  H
  C46      1.0000 0.19279  0.31282  0.37593  Biso   1.000  C
  H20      1.0000 0.05427  0.17868  0.28739  Biso   1.000  H
  C47      1.0000 0.00498  0.06254  0.28262  Biso   1.000  C
  O4       1.0000 0.95837  0.93399  0.29095  Biso   1.000  O
  H21      1.0000 0.15620  0.96334  0.61556  Biso   1.000  H
  C48      1.0000 0.14114  0.81788  0.47839  Biso   1.000  C
  C49      1.0000 0.64928  0.29461  0.27516  Biso   1.000  C
  C50      1.0000 0.60972  0.03643  0.14807  Biso   1.000  C
  H22      1.0000 0.45133  0.90784  0.29287  Biso   1.000  H
  H23      1.0000 0.47062  0.89059  0.36580  Biso   1.000  H
  H24      1.0000 0.55333  0.89195  0.31646  Biso   1.000  H
  C51      1.0000 0.73977  0.78300  0.13059  Biso   1.000  C
  H25      1.0000 0.65318  0.84842  0.18651  Biso   1.000  H
  H26      1.0000 0.81933  0.70021  0.08749  Biso   1.000  H
  H27      1.0000 0.25011  0.65571  0.10939  Biso   1.000  H
  H28      1.0000 0.21414  0.27797  0.33137  Biso   1.000  H
  H29      1.0000 0.24429  0.36594  0.40436  Biso   1.000  H
  H30      1.0000 0.13106  0.32204  0.35898  Biso   1.000  H
  C52      1.0000 0.93950  0.02029  0.20072  Biso   1.000  C
  C53      1.0000 0.97356  0.88410  0.32986  Biso   1.000  C
  C54      1.0000 0.16419  0.76052  0.41437  Biso   1.000  C
  C55      1.0000 0.07402  0.78706  0.51811  Biso   1.000  C
  H31      1.0000 0.65907  0.31979  0.24010  Biso   1.000  H
  H32      1.0000 0.70310  0.32498  0.32089  Biso   1.000  H
  H33      1.0000 0.58560  0.29674  0.28967  Biso   1.000  H
  C56      1.0000 0.50316  0.00941  0.10083  Biso   1.000  C
  H34      1.0000 0.65364  0.07779  0.13642  Biso   1.000  H
  H35      1.0000 0.63550  0.98812  0.13432  Biso   1.000  H
  H36      1.0000 0.75873  0.81487  0.10397  Biso   1.000  H
  H37      1.0000 0.88932  0.96970  0.19379  Biso   1.000  H
  H38      1.0000 0.90424  0.05816  0.19397  Biso   1.000  H
  C57      1.0000 0.00248  0.99731  0.13968  Biso   1.000  C
  H39      1.0000 0.93380  0.82656  0.29811  Biso   1.000  H
  H40      1.0000 0.95326  0.90508  0.37867  Biso   1.000  H
  H41      1.0000 0.04384  0.88714  0.33906  Biso   1.000  H
  H42      1.0000 0.20620  0.77975  0.38688  Biso   1.000  H
  C58      1.0000 0.12494  0.67331  0.38997  Biso   1.000  C
  H43      1.0000 0.05860  0.82515  0.56174  Biso   1.000  H
  C59      1.0000 0.03221  0.70252  0.49301  Biso   1.000  C
  C60      1.0000 0.46656  0.06694  0.08394  Biso   1.000  C
  C61      1.0000 0.43870  0.92838  0.07607  Biso   1.000  C
  C62      1.0000 0.05038  0.05629  0.11562  Biso   1.000  C
  C63      1.0000 0.01682  0.91755  0.10799  Biso   1.000  C
  N5       1.0000 0.15827  0.61889  0.33184  Biso   1.000  N
  C64      1.0000 0.05793  0.64375  0.42934  Biso   1.000  C
  H44      1.0000 0.98626  0.68365  0.51829  Biso   1.000  H
  C65      1.0000 0.36802  0.04477  0.04305  Biso   1.000  C
  H45      1.0000 0.50880  0.12131  0.10042  Biso   1.000  H
  C66      1.0000 0.34071  0.90596  0.03454  Biso   1.000  C
  O5       1.0000 0.47922  0.87400  0.09483  Biso   1.000  O
  O6       1.0000 0.03288  0.13379  0.14696  Biso   1.000  O
  C67      1.0000 0.11096  0.03583  0.06221  Biso   1.000  C
  H46      1.0000 0.98501  0.87730  0.12302  Biso   1.000  H
  C68      1.0000 0.07801  0.89706  0.05440  Biso   1.000  C
  C69      1.0000 0.12050  0.53757  0.31122  Biso   1.000  C
  N6       1.0000 0.01457  0.55910  0.40424  Biso   1.000  N
  C70      1.0000 0.30384  0.96315  0.01742  Biso   1.000  C
  O7       1.0000 0.32799  0.09878  0.02446  Biso   1.000  O
  H47      1.0000 0.29868  0.85142  0.01782  Biso   1.000  H
  C71      1.0000 0.41118  0.79775  0.08481  Biso   1.000  C
  C72      1.0000 0.09660  0.19924  0.13502  Biso   1.000  C
  H48      1.0000 0.14229  0.07588  0.04677  Biso   1.000  H
  C73      1.0000 0.12584  0.95665  0.03105  Biso   1.000  C
  O8       1.0000 0.09493  0.81943  0.02079  Biso   1.000  O
  C74      1.0000 0.17144  0.48147  0.25740  Biso   1.000  C
  C75      1.0000 0.04279  0.50726  0.34477  Biso   1.000  C
  C76      1.0000 0.19512  0.93797  0.97449  Biso   1.000  C
  C77      1.0000 0.38962  0.18349  0.05301  Biso   1.000  C
  H49      1.0000 0.38239  0.76260  0.03041  Biso   1.000  H
  H50      1.0000 0.35813  0.80986  0.11178  Biso   1.000  H
  H51      1.0000 0.44677  0.76886  0.10549  Biso   1.000  H
  H52      1.0000 0.08100  0.18711  0.08102  Biso   1.000  H
  H53      1.0000 0.16619  0.20256  0.14987  Biso   1.000  H
  H54      1.0000 0.08559  0.25209  0.16606  Biso   1.000  H
  C78      1.0000 0.04444  0.75576  0.04048  Biso   1.000  C
  N7       1.0000 0.21095  0.43537  0.28506  Biso   1.000  N
  C79      1.0000 0.18370  0.48433  0.18931  Biso   1.000  C
  C80      1.0000 0.98555  0.41621  0.31174  Biso   1.000  C
  H55      1.0000 0.19083  0.96872  0.94362  Biso   1.000  H
  H56      1.0000 0.17341  0.87813  0.93936  Biso   1.000  H
  H57      1.0000 0.44899  0.18428  0.03157  Biso   1.000  H
  H58      1.0000 0.40924  0.20838  0.10881  Biso   1.000  H
  H59      1.0000 0.35236  0.21523  0.03792  Biso   1.000  H
  H60      1.0000 0.97263  0.74320  0.02417  Biso   1.000  H
  H61      1.0000 0.06423  0.70576  0.01468  Biso   1.000  H
  H62      1.0000 0.06226  0.77528  0.09582  Biso   1.000  H
  C81      1.0000 0.26688  0.39136  0.24266  Biso   1.000  C
  H63      1.0000 0.15569  0.51778  0.17247  Biso   1.000  H
  C82      1.0000 0.23958  0.43557  0.14527  Biso   1.000  C
  N8       1.0000 0.96360  0.37524  0.23381  Biso   1.000  N
  C83      1.0000 0.95347  0.37864  0.35782  Biso   1.000  C
  H64      1.0000 0.29655  0.35994  0.26136  Biso   1.000  H
  C84      1.0000 0.28258  0.39018  0.17428  Biso   1.000  C
  H65      1.0000 0.24755  0.43401  0.09739  Biso   1.000  H
  C85      1.0000 0.91001  0.29319  0.20066  Biso   1.000  C
  C86      1.0000 0.89858  0.29347  0.32159  Biso   1.000  C
  H66      1.0000 0.96786  0.40918  0.41170  Biso   1.000  H
  H67      1.0000 0.32234  0.35879  0.14702  Biso   1.000  H
  H68      1.0000 0.89425  0.26421  0.14661  Biso   1.000  H
  C87      1.0000 0.87756  0.25042  0.24190  Biso   1.000  C
  H69      1.0000 0.87630  0.26596  0.35118  Biso   1.000  H
  H70      1.0000 0.84189  0.19328  0.21668  Biso   1.000  H
  C88      1.0000 0.38546  0.55669  0.53961  Biso   1.000  C
  C89      1.0000 0.32483  0.55709  0.47891  Biso   1.000  C
  S3       1.0000 0.50040  0.63396  0.56844  Biso   1.000  S
  C90      1.0000 0.36158  0.50675  0.58254  Biso   1.000  C
  C91      1.0000 0.36998  0.61878  0.45614  Biso   1.000  C
  H71      1.0000 0.25995  0.51999  0.45509  Biso   1.000  H
  C92      1.0000 0.46484  0.66733  0.50035  Biso   1.000  C
  C93      1.0000 0.43440  0.48640  0.61894  Biso   1.000  C
  C94      1.0000 0.25892  0.48012  0.58865  Biso   1.000  C
  H72      1.0000 0.33862  0.62585  0.41519  Biso   1.000  H
  C95      1.0000 0.53234  0.74211  0.49808  Biso   1.000  C
  C96      1.0000 0.40947  0.44090  0.66251  Biso   1.000  C
  H73      1.0000 0.50126  0.50285  0.61486  Biso   1.000  H
  C97      1.0000 0.23352  0.43686  0.63088  Biso   1.000  C
  H74      1.0000 0.20884  0.49265  0.56337  Biso   1.000  H
  C98      1.0000 0.49982  0.81215  0.50530  Biso   1.000  C
  C99      1.0000 0.63159  0.74325  0.49004  Biso   1.000  C
  N9       1.0000 0.48274  0.42051  0.69705  Biso   1.000  N
  C100     1.0000 0.30764  0.41659  0.66909  Biso   1.000  C
  H75      1.0000 0.16656  0.42053  0.63449  Biso   1.000  H
  C101     1.0000 0.39744  0.82103  0.52149  Biso   1.000  C
  C102     1.0000 0.56626  0.87784  0.49930  Biso   1.000  C
  H76      1.0000 0.65373  0.69789  0.48800  Biso   1.000  H
  C103     1.0000 0.69821  0.80981  0.48503  Biso   1.000  C
  C104     1.0000 0.45549  0.37888  0.73759  Biso   1.000  C
  N10      1.0000 0.28137  0.37344  0.71155  Biso   1.000  N
  H77      1.0000 0.34751  0.76586  0.49516  Biso   1.000  H
  H78      1.0000 0.37764  0.85678  0.50000  Biso   1.000  H
  C105     1.0000 0.39704  0.85801  0.60729  Biso   1.000  C
  H79      1.0000 0.54532  0.92443  0.50367  Biso   1.000  H
  C106     1.0000 0.66299  0.87714  0.48707  Biso   1.000  C
  C107     1.0000 0.80783  0.81112  0.48375  Biso   1.000  C
  C108     1.0000 0.35272  0.35419  0.74493  Biso   1.000  C
  C109     1.0000 0.53951  0.36362  0.77883  Biso   1.000  C
  C110     1.0000 0.37135  0.80594  0.64352  Biso   1.000  C
  C111     1.0000 0.42308  0.94537  0.65249  Biso   1.000  C
  C112     1.0000 0.72458  0.94788  0.47600  Biso   1.000  C
  H80      1.0000 0.83349  0.83988  0.45358  Biso   1.000  H
  H81      1.0000 0.81150  0.75376  0.45899  Biso   1.000  H
  C113     1.0000 0.87225  0.85566  0.56559  Biso   1.000  C
  C114     1.0000 0.32065  0.30686  0.79060  Biso   1.000  C
  N11      1.0000 0.55388  0.39945  0.85618  Biso   1.000  N
  C115     1.0000 0.60065  0.31908  0.73817  Biso   1.000  C
  C116     1.0000 0.37060  0.83906  0.72233  Biso   1.000  C
  H82      1.0000 0.35429  0.74775  0.61434  Biso   1.000  H
  O9       1.0000 0.45424  0.99473  0.61580  Biso   1.000  O
  C117     1.0000 0.41633  0.97763  0.72984  Biso   1.000  C
  C118     1.0000 0.76348  0.94668  0.41338  Biso   1.000  C
  S4       1.0000 0.75025  0.04974  0.54689  Biso   1.000  S
  C119     1.0000 0.87857  0.81213  0.61032  Biso   1.000  C
  C120     1.0000 0.92652  0.94125  0.59867  Biso   1.000  C
  N12      1.0000 0.35527  0.24152  0.78029  Biso   1.000  N
  C121     1.0000 0.25474  0.33045  0.83859  Biso   1.000  C
  C122     1.0000 0.63221  0.39221  0.89643  Biso   1.000  C
  H83      1.0000 0.58794  0.29512  0.68406  Biso   1.000  H
  C123     1.0000 0.68092  0.31149  0.78064  Biso   1.000  C
  O10      1.0000 0.35049  0.79095  0.76223  Biso   1.000  O
  C124     1.0000 0.38984  0.92564  0.76590  Biso   1.000  C
  C125     1.0000 0.49827  0.08329  0.66408  Biso   1.000  C
  H84      1.0000 0.42988  0.03565  0.75844  Biso   1.000  H
  H85      1.0000 0.75713  0.89728  0.36917  Biso   1.000  H
  C126     1.0000 0.81371  0.02721  0.42230  Biso   1.000  C
  C127     1.0000 0.81455  0.09117  0.49231  Biso   1.000  C
  O11      1.0000 0.82386  0.72800  0.57520  Biso   1.000  O
  C128     1.0000 0.94043  0.85200  0.68441  Biso   1.000  C
  H86      1.0000 0.92270  0.97158  0.56990  Biso   1.000  H
  C129     1.0000 0.98597  0.98196  0.67381  Biso   1.000  C
  C130     1.0000 0.32367  0.19771  0.82007  Biso   1.000  C
  C131     1.0000 0.22422  0.28499  0.87919  Biso   1.000  C
  H87      1.0000 0.23134  0.37605  0.84337  Biso   1.000  H
  C132     1.0000 0.69620  0.34860  0.86067  Biso   1.000  C
  H88      1.0000 0.64399  0.41742  0.95055  Biso   1.000  H
  H89      1.0000 0.72385  0.28215  0.75576  Biso   1.000  H
  C133     1.0000 0.35068  0.70531  0.72478  Biso   1.000  C
  C134     1.0000 0.39021  0.96344  0.85187  Biso   1.000  C
  H90      1.0000 0.54861  0.09203  0.70707  Biso   1.000  H
  H91      1.0000 0.52934  0.10933  0.63414  Biso   1.000  H
  H92      1.0000 0.44662  0.10797  0.68348  Biso   1.000  H
  H93      1.0000 0.84375  0.03658  0.38438  Biso   1.000  H
  C135     1.0000 0.85882  0.18205  0.52155  Biso   1.000  C
  C136     1.0000 0.80716  0.68710  0.62401  Biso   1.000  C
  H94      1.0000 0.94569  0.82124  0.71255  Biso   1.000  H
  C137     1.0000 0.99498  0.93739  0.71732  Biso   1.000  C
  O12      1.0000 0.04158  0.06594  0.70899  Biso   1.000  O
  C138     1.0000 0.26019  0.21693  0.86935  Biso   1.000  C
  H95      1.0000 0.34677  0.15150  0.81343  Biso   1.000  H
  H96      1.0000 0.18055  0.29972  0.91245  Biso   1.000  H
  H97      1.0000 0.74978  0.34421  0.89055  Biso   1.000  H
  H98      1.0000 0.34081  0.68014  0.75984  Biso   1.000  H
  H99      1.0000 0.29686  0.67494  0.67905  Biso   1.000  H
  H100     1.0000 0.41434  0.70313  0.71027  Biso   1.000  H
  C139     1.0000 0.49671  0.99046  0.89911  Biso   1.000  C
  H101     1.0000 0.34632  0.92211  0.86358  Biso   1.000  H
  H102     1.0000 0.36447  0.01183  0.86568  Biso   1.000  H
  C140     1.0000 0.83578  0.23943  0.58562  Biso   1.000  C
  C141     1.0000 0.92585  0.21281  0.48183  Biso   1.000  C
  H103     1.0000 0.78574  0.72195  0.66857  Biso   1.000  H
  H104     1.0000 0.75565  0.63392  0.59558  Biso   1.000  H
  H105     1.0000 0.86888  0.67783  0.64096  Biso   1.000  H
  C142     1.0000 0.06044  0.97957  0.79922  Biso   1.000  C
  C143     1.0000 0.02638  0.11577  0.67008  Biso   1.000  C
  H106     1.0000 0.24114  0.18499  0.89597  Biso   1.000  H
  C144     1.0000 0.53339  0.93298  0.91600  Biso   1.000  C
  C145     1.0000 0.56126  0.07155  0.92387  Biso   1.000  C
  H107     1.0000 0.79374  0.22012  0.61306  Biso   1.000  H
  C146     1.0000 0.87500  0.32655  0.60997  Biso   1.000  C
  H108     1.0000 0.94136  0.17478  0.43820  Biso   1.000  H
  C147     1.0000 0.96773  0.29735  0.50693  Biso   1.000  C
  C148     1.0000 0.99748  0.00258  0.86032  Biso   1.000  C
  H109     1.0000 0.09572  0.94176  0.80597  Biso   1.000  H
  H110     1.0000 0.11063  0.03022  0.80615  Biso   1.000  H
  H111     1.0000 0.95610  0.11273  0.66088  Biso   1.000  H
  H112     1.0000 0.06615  0.17334  0.70189  Biso   1.000  H
  H113     1.0000 0.04670  0.09485  0.62127  Biso   1.000  H
  C149     1.0000 0.63193  0.95515  0.95689  Biso   1.000  C
  H114     1.0000 0.49118  0.87864  0.89958  Biso   1.000  H
  O13      1.0000 0.52072  0.12587  0.90511  Biso   1.000  O
  C150     1.0000 0.65923  0.09391  0.96540  Biso   1.000  C
  N13      1.0000 0.84169  0.38104  0.66810  Biso   1.000  N
  C151     1.0000 0.94203  0.35618  0.57060  Biso   1.000  C
  H115     1.0000 0.01370  0.31628  0.48165  Biso   1.000  H
  C152     1.0000 0.94956  0.94358  0.88432  Biso   1.000  C
  C153     1.0000 0.98305  0.08232  0.89195  Biso   1.000  C
  O14      1.0000 0.67197  0.90114  0.97548  Biso   1.000  O
  C154     1.0000 0.69612  0.03677  0.98252  Biso   1.000  C
  C155     1.0000 0.58878  0.20217  0.91513  Biso   1.000  C
  H116     1.0000 0.70129  0.14854  0.98217  Biso   1.000  H
  C156     1.0000 0.87944  0.46230  0.68872  Biso   1.000  C
  N14      1.0000 0.98538  0.44083  0.59570  Biso   1.000  N
  O15      1.0000 0.96707  0.86614  0.85298  Biso   1.000  O
  C157     1.0000 0.88901  0.96413  0.93779  Biso   1.000  C
  C158     1.0000 0.92194  0.10287  0.94554  Biso   1.000  C
  H117     1.0000 0.01496  0.12266  0.87698  Biso   1.000  H
  C159     1.0000 0.61032  0.81637  0.94693  Biso   1.000  C
  C160     1.0000 0.80483  0.06196  0.02545  Biso   1.000  C
  H118     1.0000 0.61756  0.23732  0.96953  Biso   1.000  H
  H119     1.0000 0.64181  0.19000  0.88816  Biso   1.000  H
  H120     1.0000 0.55317  0.23100  0.89445  Biso   1.000  H
  C161     1.0000 0.82850  0.51840  0.74254  Biso   1.000  C
  C162     1.0000 0.95716  0.49267  0.65517  Biso   1.000  C
  C163     1.0000 0.90336  0.80068  0.86492  Biso   1.000  C
  H121     1.0000 0.85766  0.92404  0.95317  Biso   1.000  H
  C164     1.0000 0.87412  0.04327  0.96889  Biso   1.000  C
  O16      1.0000 0.90503  0.18046  0.97920  Biso   1.000  O
  H122     1.0000 0.55095  0.81559  0.96837  Biso   1.000  H
  H123     1.0000 0.59070  0.79148  0.89113  Biso   1.000  H
  H124     1.0000 0.64760  0.78470  0.96202  Biso   1.000  H
  H125     1.0000 0.80912  0.03121  0.05632  Biso   1.000  H
  H126     1.0000 0.82655  0.12179  0.06058  Biso   1.000  H
  N15      1.0000 0.78894  0.56455  0.71487  Biso   1.000  N
  C165     1.0000 0.81625  0.51560  0.81063  Biso   1.000  C
  C166     1.0000 0.01441  0.58372  0.68820  Biso   1.000  C
  H127     1.0000 0.91897  0.81285  0.91898  Biso   1.000  H
  H128     1.0000 0.83375  0.79731  0.85007  Biso   1.000  H
  H129     1.0000 0.91436  0.74784  0.83388  Biso   1.000  H
  C167     1.0000 0.95550  0.24411  0.95946  Biso   1.000  C
  C168     1.0000 0.73307  0.60856  0.75728  Biso   1.000  C
  H130     1.0000 0.84427  0.48215  0.82747  Biso   1.000  H
  C169     1.0000 0.76035  0.56430  0.85467  Biso   1.000  C
  N16      1.0000 0.03635  0.62466  0.76619  Biso   1.000  N
  C170     1.0000 0.04651  0.62132  0.64218  Biso   1.000  C
  H131     1.0000 0.93570  0.29410  0.98526  Biso   1.000  H
  H132     1.0000 0.93769  0.22462  0.90418  Biso   1.000  H
  H133     1.0000 0.02732  0.25672  0.97577  Biso   1.000  H
  H134     1.0000 0.70331  0.63993  0.73858  Biso   1.000  H
  C171     1.0000 0.71737  0.60975  0.82566  Biso   1.000  C
  H135     1.0000 0.75240  0.56592  0.90255  Biso   1.000  H
  C172     1.0000 0.08993  0.70668  0.79928  Biso   1.000  C
  C173     1.0000 0.10138  0.70645  0.67835  Biso   1.000  C
  H136     1.0000 0.03209  0.59075  0.58824  Biso   1.000  H
  H137     1.0000 0.67763  0.64117  0.85298  Biso   1.000  H
  H138     1.0000 0.10564  0.73571  0.85333  Biso   1.000  H
  C174     1.0000 0.12239  0.74951  0.75804  Biso   1.000  C
  H139     1.0000 0.12358  0.73396  0.64876  Biso   1.000  H
  H140     1.0000 0.15807  0.80664  0.78326  Biso   1.000  H
