data_image0
_cell_length_a       12.099
_cell_length_b       13.239
_cell_length_c       13.914
_cell_angle_alpha    86.34
_cell_angle_beta     64.91
_cell_angle_gamma    79.22

_symmetry_space_group_name_H-M    "P 1"
_symmetry_int_tables_number       1

loop_
  _symmetry_equiv_pos_as_xyz
  'x, y, z'

loop_
  _atom_site_label
  _atom_site_occupancy
  _atom_site_fract_x
  _atom_site_fract_y
  _atom_site_fract_z
  _atom_site_thermal_displace_type
  _atom_site_B_iso_or_equiv
  _atom_site_type_symbol
  C1       1.0000 0.73537  0.37501  0.38391  Biso   1.000  C
  C2       1.0000 0.86150  0.40809  0.33002  Biso   1.000  C
  O1       1.0000 0.72649  0.30564  0.46971  Biso   1.000  O
  H1       1.0000 0.67028  0.43684  0.41161  Biso   1.000  H
  H2       1.0000 0.71980  0.34113  0.33058  Biso   1.000  H
  C3       1.0000 0.86508  0.48363  0.24081  Biso   1.000  C
  H3       1.0000 0.92701  0.34692  0.30034  Biso   1.000  H
  H4       1.0000 0.87833  0.44128  0.38312  Biso   1.000  H
  H5       1.0000 0.77161  0.24863  0.44519  Biso   1.000  H
  C4       1.0000 0.98283  0.53291  0.19477  Biso   1.000  C
  H6       1.0000 0.79125  0.53869  0.26859  Biso   1.000  H
  H7       1.0000 0.86095  0.44667  0.18311  Biso   1.000  H
  C5       1.0000 0.99045  0.60324  0.10183  Biso   1.000  C
  C6       1.0000 0.99116  0.59258  0.28129  Biso   1.000  C
  H8       1.0000 0.05636  0.47611  0.16850  Biso   1.000  H
  C7       1.0000 0.88656  0.64483  0.08318  Biso   1.000  C
  C8       1.0000 0.10343  0.63193  0.03421  Biso   1.000  C
  C9       1.0000 0.88806  0.66123  0.34899  Biso   1.000  C
  C10      1.0000 0.09971  0.58038  0.29669  Biso   1.000  C
  C11      1.0000 0.89222  0.71319  0.00119  Biso   1.000  C
  H9       1.0000 0.80904  0.62598  0.12802  Biso   1.000  H
  C12      1.0000 0.11062  0.70123  0.95309  Biso   1.000  C
  O2       1.0000 0.21085  0.59267  0.04532  Biso   1.000  O
  H10      1.0000 0.81462  0.67211  0.33772  Biso   1.000  H
  C13      1.0000 0.88815  0.71414  0.43201  Biso   1.000  C
  O3       1.0000 0.20609  0.51660  0.23089  Biso   1.000  O
  C14      1.0000 0.10386  0.63419  0.37780  Biso   1.000  C
  C15      1.0000 0.77887  0.75652  0.98071  Biso   1.000  C
  C16      1.0000 0.00473  0.74203  0.93769  Biso   1.000  C
  O4       1.0000 0.22356  0.72592  0.88960  Biso   1.000  O
  H11      1.0000 0.26563  0.62760  0.00968  Biso   1.000  H
  C17      1.0000 0.76979  0.78503  0.50463  Biso   1.000  C
  C18      1.0000 0.99848  0.70075  0.44495  Biso   1.000  C
  H12      1.0000 0.21549  0.52469  0.16771  Biso   1.000  H
  O5       1.0000 0.21437  0.61886  0.38558  Biso   1.000  O
  C19      1.0000 0.68173  0.68597  0.01953  Biso   1.000  C
  C20      1.0000 0.72538  0.86553  0.02532  Biso   1.000  C
  H13      1.0000 0.80813  0.76095  0.90190  Biso   1.000  H
  O6       1.0000 0.02243  0.81037  0.85475  Biso   1.000  O
  H14      1.0000 0.21665  0.76782  0.84364  Biso   1.000  H
  C21      1.0000 0.74515  0.88021  0.44455  Biso   1.000  C
  H15      1.0000 0.78497  0.80811  0.56432  Biso   1.000  H
  C22      1.0000 0.65891  0.72811  0.55353  Biso   1.000  C
  O7       1.0000 0.01188  0.75149  0.52210  Biso   1.000  O
  H16      1.0000 0.20544  0.64870  0.44050  Biso   1.000  H
  C23      1.0000 0.59276  0.71138  0.96706  Biso   1.000  C
  H17      1.0000 0.72404  0.61350  0.00333  Biso   1.000  H
  H18      1.0000 0.63457  0.69390  0.09747  Biso   1.000  H
  C24      1.0000 0.66139  0.88253  0.13517  Biso   1.000  C
  C25      1.0000 0.73917  0.95101  0.96016  Biso   1.000  C
  H19      1.0000 0.95323  0.84002  0.85777  Biso   1.000  H
  C26      1.0000 0.65452  0.89493  0.40574  Biso   1.000  C
  C27      1.0000 0.81933  0.95560  0.42384  Biso   1.000  C
  H20      1.0000 0.58159  0.77896  0.58702  Biso   1.000  H
  H21      1.0000 0.65303  0.69170  0.49630  Biso   1.000  H
  C28      1.0000 0.67021  0.65069  0.63623  Biso   1.000  C
  H22      1.0000 0.97479  0.81272  0.52789  Biso   1.000  H
  C29      1.0000 0.49558  0.64368  0.00611  Biso   1.000  C
  H23      1.0000 0.55164  0.78430  0.98214  Biso   1.000  H
  H24      1.0000 0.63976  0.70238  0.88920  Biso   1.000  H
  H25      1.0000 0.65359  0.82501  0.18057  Biso   1.000  H
  C30      1.0000 0.60861  0.98071  0.18033  Biso   1.000  C
  O8       1.0000 0.81143  0.93307  0.85340  Biso   1.000  O
  C31      1.0000 0.68778  0.05069  0.00302  Biso   1.000  C
  C32      1.0000 0.63385  0.98171  0.34899  Biso   1.000  C
  H26      1.0000 0.60468  0.84371  0.41844  Biso   1.000  H
  C33      1.0000 0.79927  0.04380  0.36931  Biso   1.000  C
  O9       1.0000 0.90924  0.94348  0.46217  Biso   1.000  O
  H27      1.0000 0.75048  0.60295  0.60472  Biso   1.000  H
  H28      1.0000 0.66830  0.68739  0.69695  Biso   1.000  H
  C34      1.0000 0.56438  0.59014  0.67512  Biso   1.000  C
  H29      1.0000 0.53529  0.57142  0.00722  Biso   1.000  H
  H30      1.0000 0.43523  0.66468  0.07953  Biso   1.000  H
  O10      1.0000 0.43170  0.65146  0.93825  Biso   1.000  O
  C35      1.0000 0.53960  0.99512  0.30089  Biso   1.000  C
  C36      1.0000 0.62131  0.06399  0.11239  Biso   1.000  C
  H31      1.0000 0.80065  0.98617  0.81967  Biso   1.000  H
  O11      1.0000 0.69478  0.13590  0.93952  Biso   1.000  O
  C37      1.0000 0.70642  0.05711  0.33327  Biso   1.000  C
  O12      1.0000 0.87296  0.11697  0.35375  Biso   1.000  O
  H32      1.0000 0.97003  0.96914  0.41963  Biso   1.000  H
  O13      1.0000 0.56212  0.52433  0.76211  Biso   1.000  O
  H33      1.0000 0.48475  0.63881  0.69782  Biso   1.000  H
  H34      1.0000 0.57252  0.54762  0.61575  Biso   1.000  H
  H35      1.0000 0.47019  0.60840  0.88809  Biso   1.000  H
  C38      1.0000 0.44027  0.92640  0.34732  Biso   1.000  C
  H36      1.0000 0.49506  0.06802  0.31502  Biso   1.000  H
  O14      1.0000 0.56940  0.16080  0.15771  Biso   1.000  O
  H37      1.0000 0.76788  0.14704  0.91206  Biso   1.000  H
  O15      1.0000 0.69491  0.14749  0.28081  Biso   1.000  O
  H38      1.0000 0.88606  0.14489  0.29502  Biso   1.000  H
  H39      1.0000 0.63057  0.51894  0.76671  Biso   1.000  H
  H40      1.0000 0.47926  0.85378  0.32700  Biso   1.000  H
  H41      1.0000 0.40172  0.93233  0.42574  Biso   1.000  H
  C39      1.0000 0.34064  0.95899  0.30557  Biso   1.000  C
  H42      1.0000 0.58837  0.20521  0.11032  Biso   1.000  H
  H43      1.0000 0.64370  0.14683  0.25494  Biso   1.000  H
  H44      1.0000 0.38144  0.96328  0.22740  Biso   1.000  H
  C40      1.0000 0.24945  0.88598  0.33542  Biso   1.000  C
  H45      1.0000 0.29480  0.02852  0.33431  Biso   1.000  H
  O16      1.0000 0.15125  0.93073  0.30327  Biso   1.000  O
  H46      1.0000 0.29184  0.81863  0.29915  Biso   1.000  H
  H47      1.0000 0.21413  0.87522  0.41288  Biso   1.000  H
  H48      1.0000 0.12998  0.88413  0.28018  Biso   1.000  H
  C41      1.0000 0.26464  0.62505  0.61615  Biso   1.000  C
  C42      1.0000 0.13852  0.59190  0.67004  Biso   1.000  C
  O17      1.0000 0.27356  0.69442  0.53027  Biso   1.000  O
  H49      1.0000 0.32973  0.56323  0.58845  Biso   1.000  H
  H50      1.0000 0.28025  0.65894  0.66941  Biso   1.000  H
  C43      1.0000 0.13493  0.51644  0.75925  Biso   1.000  C
  H51      1.0000 0.07300  0.65314  0.69973  Biso   1.000  H
  H52      1.0000 0.12170  0.55871  0.61694  Biso   1.000  H
  H53      1.0000 0.22844  0.75143  0.55480  Biso   1.000  H
  C44      1.0000 0.01723  0.46715  0.80521  Biso   1.000  C
  H54      1.0000 0.20881  0.46130  0.73140  Biso   1.000  H
  H55      1.0000 0.13908  0.55332  0.81696  Biso   1.000  H
  C45      1.0000 0.00891  0.40741  0.71870  Biso   1.000  C
  C46      1.0000 0.00956  0.39683  0.89823  Biso   1.000  C
  H56      1.0000 0.94365  0.52396  0.83156  Biso   1.000  H
  C47      1.0000 0.11200  0.33884  0.65099  Biso   1.000  C
  C48      1.0000 0.90036  0.41961  0.70330  Biso   1.000  C
  C49      1.0000 0.11349  0.35524  0.91680  Biso   1.000  C
  C50      1.0000 0.89658  0.36813  0.96585  Biso   1.000  C
  C51      1.0000 0.11186  0.28592  0.56805  Biso   1.000  C
  H57      1.0000 0.18539  0.32796  0.66234  Biso   1.000  H
  C52      1.0000 0.89621  0.36580  0.62218  Biso   1.000  C
  O18      1.0000 0.79392  0.48346  0.76918  Biso   1.000  O
  H58      1.0000 0.19099  0.37401  0.87204  Biso   1.000  H
  C53      1.0000 0.10783  0.28688  0.99879  Biso   1.000  C
  O19      1.0000 0.78917  0.40739  0.95474  Biso   1.000  O
  C54      1.0000 0.88939  0.29884  0.04697  Biso   1.000  C
  C55      1.0000 0.23022  0.21503  0.49543  Biso   1.000  C
  C56      1.0000 0.00154  0.29931  0.55511  Biso   1.000  C
  O20      1.0000 0.78577  0.38120  0.61440  Biso   1.000  O
  H59      1.0000 0.78453  0.47530  0.83235  Biso   1.000  H
  C57      1.0000 0.22115  0.24355  0.01935  Biso   1.000  C
  C58      1.0000 0.99529  0.25804  0.06237  Biso   1.000  C
  H60      1.0000 0.73443  0.37247  0.99030  Biso   1.000  H
  O21      1.0000 0.77645  0.27415  0.11047  Biso   1.000  O
  C59      1.0000 0.34110  0.27196  0.44654  Biso   1.000  C
  C60      1.0000 0.25487  0.11986  0.55551  Biso   1.000  C
  H61      1.0000 0.21505  0.19188  0.43574  Biso   1.000  H
  O22      1.0000 0.98819  0.24849  0.47789  Biso   1.000  O
  H62      1.0000 0.79462  0.35129  0.55948  Biso   1.000  H
  C61      1.0000 0.27463  0.13453  0.97474  Biso   1.000  C
  C62      1.0000 0.31830  0.31402  0.98054  Biso   1.000  C
  H63      1.0000 0.19190  0.23903  0.09816  Biso   1.000  H
  O23      1.0000 0.97764  0.18962  0.14523  Biso   1.000  O
  H64      1.0000 0.78340  0.23225  0.15634  Biso   1.000  H
  C63      1.0000 0.32981  0.34930  0.36383  Biso   1.000  C
  H65      1.0000 0.41842  0.22110  0.41304  Biso   1.000  H
  H66      1.0000 0.34704  0.30829  0.50368  Biso   1.000  H
  C64      1.0000 0.34549  0.10513  0.59432  Biso   1.000  C
  C65      1.0000 0.18070  0.04439  0.57623  Biso   1.000  C
  H67      1.0000 0.02527  0.18734  0.47209  Biso   1.000  H
  C66      1.0000 0.33866  0.11753  0.86482  Biso   1.000  C
  C67      1.0000 0.26088  0.04905  0.03983  Biso   1.000  C
  H68      1.0000 0.27597  0.38657  0.99673  Biso   1.000  H
  H69      1.0000 0.36548  0.30617  0.90252  Biso   1.000  H
  C68      1.0000 0.40737  0.28868  0.03292  Biso   1.000  C
  H70      1.0000 0.04678  0.16004  0.14229  Biso   1.000  H
  H71      1.0000 0.24953  0.39712  0.39534  Biso   1.000  H
  H72      1.0000 0.33172  0.31260  0.30311  Biso   1.000  H
  C69      1.0000 0.43564  0.40993  0.32494  Biso   1.000  C
  H73      1.0000 0.39542  0.15636  0.58162  Biso   1.000  H
  C70      1.0000 0.36620  0.01835  0.65099  Biso   1.000  C
  O24      1.0000 0.09081  0.05658  0.53781  Biso   1.000  O
  C71      1.0000 0.20076  0.95619  0.63075  Biso   1.000  C
  C72      1.0000 0.39140  0.01935  0.81973  Biso   1.000  C
  H74      1.0000 0.34647  0.17505  0.81942  Biso   1.000  H
  C73      1.0000 0.31223  0.94937  0.99705  Biso   1.000  C
  O25      1.0000 0.18860  0.06692  0.14666  Biso   1.000  O
  C74      1.0000 0.50451  0.35638  0.99395  Biso   1.000  C
  H75      1.0000 0.44841  0.21577  0.01784  Biso   1.000  H
  H76      1.0000 0.36025  0.29769  0.11086  Biso   1.000  H
  O26      1.0000 0.43793  0.47574  0.23787  Biso   1.000  O
  H77      1.0000 0.51528  0.36118  0.30224  Biso   1.000  H
  H78      1.0000 0.42749  0.45245  0.38431  Biso   1.000  H
  C75      1.0000 0.46046  0.00494  0.69909  Biso   1.000  C
  C76      1.0000 0.29363  0.94296  0.66671  Biso   1.000  C
  H79      1.0000 0.02999  0.03093  0.58043  Biso   1.000  H
  O27      1.0000 0.12709  0.88310  0.64623  Biso   1.000  O
  C77      1.0000 0.37874  0.93607  0.88760  Biso   1.000  C
  O28      1.0000 0.30527  0.86417  0.06046  Biso   1.000  O
  H80      1.0000 0.19938  0.01382  0.18039  Biso   1.000  H
  H81      1.0000 0.46473  0.42864  0.99284  Biso   1.000  H
  H82      1.0000 0.56480  0.33531  0.92053  Biso   1.000  H
  O29      1.0000 0.56836  0.34853  0.06173  Biso   1.000  O
  H83      1.0000 0.36948  0.48112  0.23327  Biso   1.000  H
  C78      1.0000 0.55974  0.07367  0.65274  Biso   1.000  C
  H84      1.0000 0.50495  0.93204  0.68504  Biso   1.000  H
  O30      1.0000 0.30514  0.85257  0.71917  Biso   1.000  O
  H85      1.0000 0.11397  0.85510  0.70504  Biso   1.000  H
  O31      1.0000 0.43062  0.83927  0.84235  Biso   1.000  O
  H86      1.0000 0.23219  0.85294  0.08793  Biso   1.000  H
  H87      1.0000 0.52983  0.39167  0.11197  Biso   1.000  H
  H88      1.0000 0.52077  0.14621  0.67306  Biso   1.000  H
  H89      1.0000 0.59829  0.06773  0.57432  Biso   1.000  H
  C79      1.0000 0.65943  0.04100  0.69441  Biso   1.000  C
  H90      1.0000 0.35632  0.85324  0.74513  Biso   1.000  H
  H91      1.0000 0.41164  0.79486  0.88974  Biso   1.000  H
  H92      1.0000 0.61863  0.03670  0.77259  Biso   1.000  H
  C80      1.0000 0.75058  0.11401  0.66464  Biso   1.000  C
  H93      1.0000 0.70522  0.97155  0.66576  Biso   1.000  H
  O32      1.0000 0.84882  0.06926  0.69671  Biso   1.000  O
  H94      1.0000 0.70818  0.18144  0.70092  Biso   1.000  H
  H95      1.0000 0.78592  0.12485  0.58710  Biso   1.000  H
  H96      1.0000 0.87007  0.11594  0.71981  Biso   1.000  H
