data_image0
_cell_length_a       20.577
_cell_length_b       10.722
_cell_length_c       20.315
_cell_angle_alpha    90
_cell_angle_beta     120.46
_cell_angle_gamma    90

_symmetry_space_group_name_H-M    "P 1"
_symmetry_int_tables_number       1

loop_
  _symmetry_equiv_pos_as_xyz
  'x, y, z'

loop_
  _atom_site_label
  _atom_site_occupancy
  _atom_site_fract_x
  _atom_site_fract_y
  _atom_site_fract_z
  _atom_site_thermal_displace_type
  _atom_site_B_iso_or_equiv
  _atom_site_type_symbol
  C1       1.0000 0.55312  0.09000  0.23602  Biso   1.000  C
  S1       1.0000 0.64262  0.14438  0.26229  Biso   1.000  S
  H1       1.0000 0.51703  0.12003  0.18303  Biso   1.000  H
  H2       1.0000 0.53701  0.12199  0.27103  Biso   1.000  H
  C2       1.0000 0.54699  0.95299  0.23299  Biso   1.000  C
  C3       1.0000 0.66002  0.08301  0.19102  Biso   1.000  C
  H3       1.0000 0.49598  0.92100  0.21700  Biso   1.000  H
  H4       1.0000 0.58401  0.92399  0.28599  Biso   1.000  H
  H5       1.0000 0.56398  0.92100  0.19799  Biso   1.000  H
  C4       1.0000 0.72198  0.00699  0.21501  Biso   1.000  C
  C5       1.0000 0.61401  0.10698  0.11501  Biso   1.000  C
  C6       1.0000 0.73691  0.95104  0.16201  Biso   1.000  C
  H6       1.0000 0.75702  0.99198  0.27103  Biso   1.000  H
  C7       1.0000 0.62702  0.05204  0.06002  Biso   1.000  C
  H7       1.0000 0.57204  0.16900  0.09902  Biso   1.000  H
  C8       1.0000 0.80563  0.86700  0.18502  Biso   1.000  C
  C9       1.0000 0.68499  0.96904  0.08497  Biso   1.000  C
  C10      1.0000 0.57679  0.09103  0.97607  Biso   1.000  C
  C11      1.0000 0.85801  0.91298  0.15801  Biso   1.000  C
  H8       1.0000 0.78897  0.77999  0.16698  Biso   1.000  H
  H9       1.0000 0.83503  0.86803  0.24202  Biso   1.000  H
  O1       1.0000 0.69511  0.90701  0.03101  Biso   1.000  O
  C12      1.0000 0.58798  0.22496  0.96300  Biso   1.000  C
  H10      1.0000 0.52300  0.07797  0.95900  Biso   1.000  H
  H11      1.0000 0.59098  0.03796  0.94501  Biso   1.000  H
  C13      1.0000 0.89602  0.02500  0.18502  Biso   1.000  C
  C14      1.0000 0.86599  0.84900  0.10599  Biso   1.000  C
  C15      1.0000 0.65200  0.79202  0.00400  Biso   1.000  C
  C16      1.0000 0.65799  0.25602  0.97150  Biso   1.000  C
  C17      1.0000 0.53241  0.31300  0.93713  Biso   1.000  C
  O2       1.0000 0.89051  0.09000  0.24042  Biso   1.000  O
  C18      1.0000 0.93999  0.07303  0.15499  Biso   1.000  C
  C19      1.0000 0.90897  0.89200  0.07738  Biso   1.000  C
  H12      1.0000 0.83900  0.76795  0.08497  Biso   1.000  H
  H13      1.0000 0.66201  0.75098  0.96602  Biso   1.000  H
  H14      1.0000 0.59701  0.81198  0.97898  Biso   1.000  H
  H15      1.0000 0.66602  0.73400  0.04803  Biso   1.000  H
  O3       1.0000 0.71629  0.17301  0.99720  Biso   1.000  O
  C20      1.0000 0.67200  0.38500  0.96220  Biso   1.000  C
  C21      1.0000 0.54397  0.43499  0.92759  Biso   1.000  C
  H16      1.0000 0.48101  0.28801  0.92599  Biso   1.000  H
  C22      1.0000 0.94501  0.06295  0.31603  Biso   1.000  C
  C23      1.0000 0.97630  0.19996  0.18131  Biso   1.000  C
  C24      1.0000 0.94389  0.00895  0.10102  Biso   1.000  C
  S2       1.0000 0.92300  0.81487  0.00811  Biso   1.000  S
  C25      1.0000 0.72281  0.11500  0.93701  Biso   1.000  C
  C26      1.0000 0.61398  0.46698  0.93638  Biso   1.000  C
  C27      1.0000 0.74860  0.42697  0.97727  Biso   1.000  C
  S3       1.0000 0.47850  0.55848  0.89641  Biso   1.000  S
  H17      1.0000 0.93600  0.11397  0.35200  Biso   1.000  H
  H18      1.0000 0.99598  0.08403  0.32299  Biso   1.000  H
  H19      1.0000 0.94302  0.97202  0.32602  Biso   1.000  H
  C28      1.0000 0.91797  0.30601  0.15499  Biso   1.000  C
  H20      1.0000 0.00601  0.21498  0.15601  Biso   1.000  H
  H21      1.0000 0.01099  0.19996  0.23802  Biso   1.000  H
  H22      1.0000 0.97200  0.04197  0.07698  Biso   1.000  H
  C29      1.0000 0.85298  0.71796  0.94900  Biso   1.000  C
  H23      1.0000 0.76602  0.05596  0.96100  Biso   1.000  H
  H24      1.0000 0.73101  0.17898  0.90697  Biso   1.000  H
  H25      1.0000 0.67599  0.06697  0.90298  Biso   1.000  H
  H26      1.0000 0.62200  0.55503  0.92502  Biso   1.000  H
  C30      1.0000 0.80559  0.41699  0.06202  Biso   1.000  C
  H27      1.0000 0.76402  0.37297  0.94701  Biso   1.000  H
  H28      1.0000 0.74599  0.51604  0.96100  Biso   1.000  H
  C31      1.0000 0.39700  0.48396  0.86397  Biso   1.000  C
  C32      1.0000 0.86698  0.33399  0.08098  Biso   1.000  C
  C33      1.0000 0.91131  0.36299  0.21101  Biso   1.000  C
  C34      1.0000 0.78100  0.76003  0.89801  Biso   1.000  C
  H29      1.0000 0.84499  0.66200  0.98401  Biso   1.000  H
  H30      1.0000 0.87100  0.66601  0.92102  Biso   1.000  H
  C35      1.0000 0.80088  0.47305  0.11998  Biso   1.000  C
  C36      1.0000 0.36900  0.41904  0.78899  Biso   1.000  C
  H31      1.0000 0.40296  0.42203  0.90298  Biso   1.000  H
  H32      1.0000 0.35901  0.54803  0.85798  Biso   1.000  H
  O4       1.0000 0.87872  0.27299  0.02753  Biso   1.000  O
  C37      1.0000 0.85403  0.45001  0.19502  Biso   1.000  C
  H33      1.0000 0.94899  0.34602  0.26600  Biso   1.000  H
  H34      1.0000 0.74702  0.68802  0.87100  Biso   1.000  H
  H35      1.0000 0.78600  0.81300  0.86100  Biso   1.000  H
  H36      1.0000 0.75901  0.81002  0.92399  Biso   1.000  H
  H37      1.0000 0.75699  0.53003  0.10599  Biso   1.000  H
  H38      1.0000 0.32000  0.37698  0.77100  Biso   1.000  H
  H39      1.0000 0.40799  0.35600  0.79602  Biso   1.000  H
  H40      1.0000 0.36399  0.48200  0.75102  Biso   1.000  H
  C38      1.0000 0.92204  0.34303  0.00503  Biso   1.000  C
  S4       1.0000 0.84233  0.53656  0.26292  Biso   1.000  S
  H41      1.0000 0.97398  0.35600  0.04900  Biso   1.000  H
  H42      1.0000 0.92499  0.29696  0.96402  Biso   1.000  H
  H43      1.0000 0.89597  0.42501  0.98498  Biso   1.000  H
  C39      1.0000 0.85601  0.41998  0.32967  Biso   1.000  C
  C40      1.0000 0.80298  0.31599  0.30198  Biso   1.000  C
  H44      1.0000 0.84900  0.45700  0.37102  Biso   1.000  H
  H45      1.0000 0.90801  0.38398  0.35297  Biso   1.000  H
  H46      1.0000 0.80901  0.24902  0.33898  Biso   1.000  H
  H47      1.0000 0.80996  0.27896  0.26098  Biso   1.000  H
  H48      1.0000 0.75101  0.35301  0.27902  Biso   1.000  H
