data_image0
_cell_length_a       12.283
_cell_length_b       17.658
_cell_length_c       18.118
_cell_angle_alpha    90.25
_cell_angle_beta     105.95
_cell_angle_gamma    105.11

_symmetry_space_group_name_H-M    "P 1"
_symmetry_int_tables_number       1

loop_
  _symmetry_equiv_pos_as_xyz
  'x, y, z'

loop_
  _atom_site_label
  _atom_site_occupancy
  _atom_site_fract_x
  _atom_site_fract_y
  _atom_site_fract_z
  _atom_site_thermal_displace_type
  _atom_site_B_iso_or_equiv
  _atom_site_type_symbol
  C1       1.0000 0.57102  0.49401  0.61398  Biso   1.000  C
  C2       1.0000 0.51401  0.40402  0.60897  Biso   1.000  C
  C3       1.0000 0.65303  0.52399  0.69399  Biso   1.000  C
  H1       1.0000 0.61704  0.50603  0.57603  Biso   1.000  H
  H2       1.0000 0.50801  0.52200  0.60701  Biso   1.000  H
  Cl1      1.0000 0.65398  0.54399  0.70798  Biso   1.000  Cl
  C4       1.0000 0.39395  0.37101  0.59797  Biso   1.000  C
  C5       1.0000 0.59001  0.35701  0.62199  Biso   1.000  C
  C6       1.0000 0.77896  0.56398  0.70499  Biso   1.000  C
  C7       1.0000 0.62200  0.50903  0.75700  Biso   1.000  C
  C8       1.0000 0.34897  0.29398  0.59999  Biso   1.000  C
  H3       1.0000 0.34097  0.40598  0.58899  Biso   1.000  H
  C9       1.0000 0.54601  0.27398  0.62798  Biso   1.000  C
  O1       1.0000 0.70897  0.38502  0.63570  Biso   1.000  O
  O2       1.0000 0.81105  0.57802  0.64002  Biso   1.000  O
  C10      1.0000 0.84798  0.57901  0.77802  Biso   1.000  C
  C11      1.0000 0.67798  0.52603  0.82698  Biso   1.000  C
  H4       1.0000 0.53799  0.47797  0.74899  Biso   1.000  H
  Br1      1.0000 0.18829  0.24942  0.58622  Biso   1.000  Br
  C12      1.0000 0.42303  0.24702  0.61502  Biso   1.000  C
  C13      1.0000 0.63101  0.22300  0.64900  Biso   1.000  C
  C14      1.0000 0.74800  0.39100  0.56698  Biso   1.000  C
  C15      1.0000 0.80396  0.65500  0.60799  Biso   1.000  C
  C16      1.0000 0.81199  0.56301  0.83999  Biso   1.000  C
  C17      1.0000 0.98003  0.60901  0.78603  Biso   1.000  C
  Br2      1.0000 0.63881  0.50859  0.91798  Biso   1.000  Br
  H5       1.0000 0.38800  0.18900  0.61698  Biso   1.000  H
  C18      1.0000 0.70997  0.24698  0.72601  Biso   1.000  C
  H6       1.0000 0.58595  0.16600  0.64497  Biso   1.000  H
  H7       1.0000 0.68101  0.23000  0.61203  Biso   1.000  H
  H8       1.0000 0.86698  0.57402  0.89298  Biso   1.000  H
  H9       1.0000 0.99202  0.65501  0.75400  Biso   1.000  H
  C19      1.0000 0.03297  0.55098  0.75999  Biso   1.000  C
  H10      1.0000 0.02198  0.62698  0.84097  Biso   1.000  H
  C20      1.0000 0.84002  0.27000  0.74099  Biso   1.000  C
  C21      1.0000 0.67702  0.25500  0.79098  Biso   1.000  C
  C22      1.0000 0.03003  0.48201  0.80002  Biso   1.000  C
  C23      1.0000 0.06098  0.55001  0.69301  Biso   1.000  C
  O3       1.0000 0.87904  0.26603  0.67602  Biso   1.000  O
  C24      1.0000 0.91198  0.30502  0.80901  Biso   1.000  C
  C25      1.0000 0.73506  0.27803  0.85802  Biso   1.000  C
  H11      1.0000 0.59001  0.23999  0.78199  Biso   1.000  H
  C26      1.0000 0.06096  0.41498  0.77503  Biso   1.000  C
  O4       1.0000 0.00497  0.47999  0.87202  Biso   1.000  O
  C27      1.0000 0.10404  0.48903  0.66801  Biso   1.000  C
  C28      1.0000 0.89204  0.18702  0.66000  Biso   1.000  C
  C29      1.0000 0.86899  0.30597  0.87300  Biso   1.000  C
  C30      1.0000 0.04004  0.34001  0.81500  Biso   1.000  C
  Br3      1.0000 0.69406  0.28089  0.94828  Biso   1.000  Br
  C31      1.0000 0.09104  0.41800  0.70602  Biso   1.000  C
  C32      1.0000 0.11102  0.50998  0.93601  Biso   1.000  C
  Br4      1.0000 0.14751  0.49339  0.57781  Biso   1.000  Br
  H12      1.0000 0.92298  0.32599  0.92501  Biso   1.000  H
  H13      1.0000 0.06002  0.30000  0.78902  Biso   1.000  H
  H14      1.0000 0.07998  0.34997  0.87098  Biso   1.000  H
  H15      1.0000 0.10301  0.37103  0.68299  Biso   1.000  H
  C33      1.0000 0.42898  0.50603  0.38602  Biso   1.000  C
  C34      1.0000 0.34703  0.47599  0.30601  Biso   1.000  C
  Cl2      1.0000 0.34599  0.45599  0.29202  Biso   1.000  Cl
  C35      1.0000 0.48598  0.59602  0.39103  Biso   1.000  C
  H16      1.0000 0.38303  0.49401  0.42397  Biso   1.000  H
  H17      1.0000 0.49196  0.47799  0.39298  Biso   1.000  H
  C36      1.0000 0.22101  0.43600  0.29501  Biso   1.000  C
  C37      1.0000 0.37800  0.49101  0.24300  Biso   1.000  C
  C38      1.0000 0.40997  0.64297  0.37801  Biso   1.000  C
  C39      1.0000 0.60604  0.62903  0.40203  Biso   1.000  C
  O5       1.0000 0.18903  0.42202  0.35998  Biso   1.000  O
  C40      1.0000 0.15199  0.42098  0.22198  Biso   1.000  C
  C41      1.0000 0.32201  0.47401  0.17302  Biso   1.000  C
  H18      1.0000 0.46198  0.52201  0.25101  Biso   1.000  H
  O6       1.0000 0.29103  0.61502  0.36430  Biso   1.000  O
  C42      1.0000 0.45404  0.72600  0.37202  Biso   1.000  C
  C43      1.0000 0.65100  0.70600  0.40001  Biso   1.000  C
  H19      1.0000 0.65900  0.59400  0.41101  Biso   1.000  H
  C44      1.0000 0.19602  0.34498  0.39201  Biso   1.000  C
  C45      1.0000 0.18800  0.43703  0.16000  Biso   1.000  C
  C46      1.0000 0.01994  0.39098  0.21397  Biso   1.000  C
  Br5      1.0000 0.36117  0.49139  0.08202  Biso   1.000  Br
  C47      1.0000 0.25197  0.60898  0.43301  Biso   1.000  C
  C48      1.0000 0.57696  0.75302  0.38498  Biso   1.000  C
  C49      1.0000 0.36896  0.77698  0.35100  Biso   1.000  C
  Br6      1.0000 0.81170  0.75062  0.41378  Biso   1.000  Br
  H20      1.0000 0.13301  0.42602  0.10702  Biso   1.000  H
  H21      1.0000 0.00797  0.34503  0.24600  Biso   1.000  H
  C50      1.0000 0.96700  0.44900  0.24001  Biso   1.000  C
  H22      1.0000 0.97799  0.37300  0.15903  Biso   1.000  H
  H23      1.0000 0.61198  0.81098  0.38302  Biso   1.000  H
  C51      1.0000 0.29001  0.75300  0.27399  Biso   1.000  C
  H24      1.0000 0.41402  0.83398  0.35503  Biso   1.000  H
  H25      1.0000 0.31897  0.76998  0.38797  Biso   1.000  H
  C52      1.0000 0.96995  0.51798  0.19998  Biso   1.000  C
  C53      1.0000 0.93901  0.45003  0.30699  Biso   1.000  C
  C54      1.0000 0.16003  0.72998  0.25901  Biso   1.000  C
  C55      1.0000 0.32303  0.74498  0.20902  Biso   1.000  C
  O7       1.0000 0.99501  0.51999  0.12798  Biso   1.000  O
  C56      1.0000 0.93901  0.58500  0.22497  Biso   1.000  C
  C57      1.0000 0.89596  0.51101  0.33199  Biso   1.000  C
  C58      1.0000 0.08801  0.69502  0.19099  Biso   1.000  C
  O8       1.0000 0.12104  0.73401  0.32398  Biso   1.000  O
  C59      1.0000 0.26502  0.72201  0.14198  Biso   1.000  C
  H26      1.0000 0.40997  0.75999  0.21800  Biso   1.000  H
  C60      1.0000 0.88896  0.49000  0.06399  Biso   1.000  C
  C61      1.0000 0.96004  0.66003  0.18500  Biso   1.000  C
  C62      1.0000 0.90902  0.58198  0.29398  Biso   1.000  C
  Br7      1.0000 0.85246  0.50659  0.42219  Biso   1.000  Br
  C63      1.0000 0.13098  0.69401  0.12700  Biso   1.000  C
  C64      1.0000 0.10804  0.81302  0.34000  Biso   1.000  C
  Br8      1.0000 0.30591  0.71909  0.05172  Biso   1.000  Br
  H27      1.0000 0.93995  0.69998  0.21098  Biso   1.000  H
  H28      1.0000 0.92000  0.65001  0.12902  Biso   1.000  H
  H29      1.0000 0.89699  0.62901  0.31701  Biso   1.000  H
  H30      1.0000 0.07700  0.67400  0.07499  Biso   1.000  H
