data_image0
_cell_length_a       12.537
_cell_length_b       13.564
_cell_length_c       18.947
_cell_angle_alpha    106.84
_cell_angle_beta     91.9
_cell_angle_gamma    96.17

_symmetry_space_group_name_H-M    "P 1"
_symmetry_int_tables_number       1

loop_
  _symmetry_equiv_pos_as_xyz
  'x, y, z'

loop_
  _atom_site_label
  _atom_site_occupancy
  _atom_site_fract_x
  _atom_site_fract_y
  _atom_site_fract_z
  _atom_site_thermal_displace_type
  _atom_site_B_iso_or_equiv
  _atom_site_type_symbol
  O1       1.0000 0.56573  0.61856  0.59343  Biso   1.000  O
  C1       1.0000 0.54851  0.53486  0.62389  Biso   1.000  C
  C2       1.0000 0.53967  0.71166  0.64378  Biso   1.000  C
  C3       1.0000 0.59775  0.44450  0.57619  Biso   1.000  C
  H1       1.0000 0.58209  0.55541  0.67490  Biso   1.000  H
  H2       1.0000 0.47041  0.51547  0.62560  Biso   1.000  H
  C4       1.0000 0.55398  0.79870  0.60957  Biso   1.000  C
  H3       1.0000 0.46425  0.70152  0.65672  Biso   1.000  H
  H4       1.0000 0.58686  0.72928  0.68971  Biso   1.000  H
  S1       1.0000 0.56658  0.32337  0.59830  Biso   1.000  S
  H5       1.0000 0.57305  0.43360  0.52412  Biso   1.000  H
  H6       1.0000 0.67687  0.46249  0.58061  Biso   1.000  H
  O2       1.0000 0.66569  0.82543  0.60393  Biso   1.000  O
  H7       1.0000 0.52307  0.85973  0.64052  Biso   1.000  H
  H8       1.0000 0.51595  0.77699  0.55988  Biso   1.000  H
  C5       1.0000 0.60682  0.35591  0.69220  Biso   1.000  C
  C6       1.0000 0.68550  0.89752  0.56298  Biso   1.000  C
  S2       1.0000 0.51580  0.40923  0.75769  Biso   1.000  S
  C7       1.0000 0.69635  0.32813  0.71912  Biso   1.000  C
  C8       1.0000 0.80397  0.91995  0.56397  Biso   1.000  C
  H9       1.0000 0.65406  0.86746  0.51158  Biso   1.000  H
  H10      1.0000 0.65338  0.96189  0.58608  Biso   1.000  H
  C9       1.0000 0.60840  0.42997  0.83369  Biso   1.000  C
  S3       1.0000 0.78472  0.25608  0.66175  Biso   1.000  S
  S4       1.0000 0.71246  0.35055  0.81506  Biso   1.000  S
  O3       1.0000 0.83591  0.97298  0.64522  Biso   1.000  O
  H11      1.0000 0.83759  0.85542  0.54568  Biso   1.000  H
  H12      1.0000 0.82445  0.96646  0.53357  Biso   1.000  H
  O4       1.0000 0.85681  0.99852  0.61792  Biso   1.000  O
  C10      1.0000 0.60171  0.49947  0.89869  Biso   1.000  C
  C11      1.0000 0.90791  0.28240  0.72077  Biso   1.000  C
  C12      1.0000 0.94166  0.96917  0.66180  Biso   1.000  C
  S5       1.0000 0.69185  0.51595  0.97512  Biso   1.000  S
  S6       1.0000 0.49703  0.57788  0.91665  Biso   1.000  S
  C13      1.0000 0.99670  0.24567  0.67098  Biso   1.000  C
  H13      1.0000 0.90100  0.24456  0.75830  Biso   1.000  H
  H14      1.0000 0.92377  0.35761  0.74658  Biso   1.000  H
  C14      1.0000 0.96324  0.00856  0.73840  Biso   1.000  C
  C15      1.0000 0.01942  0.92001  0.61797  Biso   1.000  C
  C16      1.0000 0.64565  0.63064  0.02857  Biso   1.000  C
  C17      1.0000 0.55575  0.65758  0.00248  Biso   1.000  C
  H15      1.0000 0.97649  0.17289  0.64030  Biso   1.000  H
  O5       1.0000 0.09000  0.25351  0.71746  Biso   1.000  O
  H16      1.0000 0.01004  0.28962  0.63781  Biso   1.000  H
  O6       1.0000 0.88332  0.04365  0.78909  Biso   1.000  O
  O7       1.0000 0.88704  0.07634  0.76847  Biso   1.000  O
  C18      1.0000 0.06368  0.00380  0.77041  Biso   1.000  C
  C19      1.0000 0.11769  0.91267  0.65108  Biso   1.000  C
  H17      1.0000 0.00508  0.89175  0.56607  Biso   1.000  H
  S7       1.0000 0.70912  0.69096  0.11739  Biso   1.000  S
  S8       1.0000 0.48652  0.75804  0.05289  Biso   1.000  S
  C20      1.0000 0.17649  0.20537  0.68021  Biso   1.000  C
  C21      1.0000 0.89728  0.07113  0.86702  Biso   1.000  C
  C22      1.0000 0.77568  0.04739  0.75410  Biso   1.000  C
  C23      1.0000 0.14015  0.95571  0.72718  Biso   1.000  C
  H18      1.0000 0.07941  0.03382  0.82208  Biso   1.000  H
  C24      1.0000 0.20920  0.85890  0.61062  Biso   1.000  C
  C25      1.0000 0.85284  0.69551  0.09849  Biso   1.000  C
  C26      1.0000 0.83737  0.73332  0.09362  Biso   1.000  C
  C27      1.0000 0.45338  0.82066  0.98319  Biso   1.000  C
  C28      1.0000 0.24613  0.27312  0.64721  Biso   1.000  C
  H19      1.0000 0.22120  0.18360  0.71569  Biso   1.000  H
  H20      1.0000 0.14641  0.14209  0.64058  Biso   1.000  H
  H21      1.0000 0.91958  0.01212  0.88227  Biso   1.000  H
  H22      1.0000 0.95388  0.13083  0.88548  Biso   1.000  H
  C29      1.0000 0.79174  0.09923  0.89869  Biso   1.000  C
  H23      1.0000 0.76088  0.97133  0.73232  Biso   1.000  H
  H24      1.0000 0.74841  0.08029  0.71790  Biso   1.000  H
  C30      1.0000 0.71994  0.07975  0.82269  Biso   1.000  C
  C31      1.0000 0.25362  0.94383  0.75399  Biso   1.000  C
  C32      1.0000 0.23378  0.77994  0.65252  Biso   1.000  C
  C33      1.0000 0.18205  0.80788  0.52777  Biso   1.000  C
  C34      1.0000 0.30597  0.94180  0.63030  Biso   1.000  C
  C35      1.0000 0.89488  0.75099  0.04322  Biso   1.000  C
  H25      1.0000 0.86952  0.62297  0.08091  Biso   1.000  H
  H26      1.0000 0.89504  0.72855  0.14618  Biso   1.000  H
  C36      1.0000 0.89676  0.64526  0.09998  Biso   1.000  C
  H27      1.0000 0.86870  0.80039  0.12877  Biso   1.000  H
  H28      1.0000 0.83535  0.73929  0.04272  Biso   1.000  H
  C37      1.0000 0.55042  0.87259  0.95910  Biso   1.000  C
  H29      1.0000 0.41494  0.76807  0.93970  Biso   1.000  H
  H30      1.0000 0.40424  0.87286  0.00359  Biso   1.000  H
  O8       1.0000 0.19375  0.28473  0.58254  Biso   1.000  O
  H31      1.0000 0.31381  0.24278  0.63411  Biso   1.000  H
  H32      1.0000 0.26461  0.34217  0.68391  Biso   1.000  H
  O9       1.0000 0.72483  0.00940  0.88609  Biso   1.000  O
  O10      1.0000 0.70600  0.01866  0.86602  Biso   1.000  O
  H33      1.0000 0.76064  0.14613  0.87442  Biso   1.000  H
  H34      1.0000 0.80289  0.13492  0.95241  Biso   1.000  H
  H35      1.0000 0.75922  0.14642  0.85331  Biso   1.000  H
  C38      1.0000 0.63599  0.98892  0.83059  Biso   1.000  C
  H36      1.0000 0.64773  0.09447  0.80882  Biso   1.000  H
  C39      1.0000 0.25746  0.82570  0.72752  Biso   1.000  C
  C40      1.0000 0.27856  0.99151  0.83701  Biso   1.000  C
  C41      1.0000 0.32940  0.98789  0.70607  Biso   1.000  C
  C42      1.0000 0.23195  0.67409  0.62112  Biso   1.000  C
  H37      1.0000 0.16854  0.86111  0.50412  Biso   1.000  H
  H38      1.0000 0.24257  0.77266  0.50577  Biso   1.000  H
  H39      1.0000 0.11780  0.75723  0.52042  Biso   1.000  H
  C43      1.0000 0.36667  0.97573  0.58011  Biso   1.000  C
  H40      1.0000 0.85956  0.71338  0.99381  Biso   1.000  H
  H41      1.0000 0.87295  0.82171  0.05748  Biso   1.000  H
  O11      1.0000 0.00935  0.75970  0.03741  Biso   1.000  O
  H42      1.0000 0.86664  0.57879  0.06378  Biso   1.000  H
  H43      1.0000 0.89612  0.63787  0.15050  Biso   1.000  H
  O12      1.0000 0.00209  0.67941  0.08362  Biso   1.000  O
  O13      1.0000 0.51457  0.91518  0.90261  Biso   1.000  O
  H44      1.0000 0.60120  0.82182  0.93948  Biso   1.000  H
  H45      1.0000 0.58735  0.92845  0.00138  Biso   1.000  H
  C44      1.0000 0.25893  0.34619  0.54689  Biso   1.000  C
  C45      1.0000 0.68646  0.90747  0.84878  Biso   1.000  C
  C46      1.0000 0.56487  0.89898  0.82971  Biso   1.000  C
  H46      1.0000 0.66477  0.97910  0.78129  Biso   1.000  H
  H47      1.0000 0.59531  0.04967  0.84082  Biso   1.000  H
  C47      1.0000 0.28133  0.76476  0.77228  Biso   1.000  C
  H48      1.0000 0.34917  0.97545  0.85088  Biso   1.000  H
  H49      1.0000 0.22350  0.96278  0.86359  Biso   1.000  H
  H50      1.0000 0.27888  0.06692  0.84988  Biso   1.000  H
  C48      1.0000 0.41386  0.06676  0.73122  Biso   1.000  C
  C49      1.0000 0.25523  0.61282  0.66600  Biso   1.000  C
  H51      1.0000 0.21505  0.64362  0.56961  Biso   1.000  H
  H52      1.0000 0.35047  0.94581  0.52849  Biso   1.000  H
  C50      1.0000 0.45257  0.05479  0.60681  Biso   1.000  C
  C51      1.0000 0.04849  0.67065  0.99038  Biso   1.000  C
  C52      1.0000 0.04706  0.61201  0.02332  Biso   1.000  C
  C53      1.0000 0.57584  0.87416  0.84999  Biso   1.000  C
  C54      1.0000 0.23076  0.45658  0.56419  Biso   1.000  C
  H53      1.0000 0.33534  0.34819  0.56281  Biso   1.000  H
  H54      1.0000 0.25006  0.31309  0.49279  Biso   1.000  H
  H55      1.0000 0.60526  0.83813  0.82031  Biso   1.000  H
  H56      1.0000 0.72809  0.88477  0.88542  Biso   1.000  H
  H57      1.0000 0.71125  0.87511  0.79931  Biso   1.000  H
  H58      1.0000 0.50795  0.88502  0.78942  Biso   1.000  H
  H59      1.0000 0.54119  0.87878  0.80351  Biso   1.000  H
  C55      1.0000 0.27885  0.65801  0.74122  Biso   1.000  C
  H60      1.0000 0.29917  0.79586  0.82369  Biso   1.000  H
  C56      1.0000 0.47515  0.09863  0.68021  Biso   1.000  C
  H61      1.0000 0.42970  0.09854  0.78268  Biso   1.000  H
  O14      1.0000 0.25944  0.50747  0.64118  Biso   1.000  O
  H62      1.0000 0.49550  0.07781  0.57287  Biso   1.000  H
  H63      1.0000 0.99768  0.63949  0.94650  Biso   1.000  H
  H64      1.0000 0.99709  0.65626  0.93417  Biso   1.000  H
  C57      1.0000 0.15579  0.70033  0.96661  Biso   1.000  C
  C58      1.0000 0.02104  0.59398  0.94368  Biso   1.000  C
  H65      1.0000 0.05395  0.61837  0.01702  Biso   1.000  H
  H66      1.0000 0.12587  0.63416  0.03078  Biso   1.000  H
  H67      1.0000 0.03645  0.54279  0.03111  Biso   1.000  H
  H68      1.0000 0.57054  0.79940  0.84601  Biso   1.000  H
  H69      1.0000 0.15278  0.45592  0.55347  Biso   1.000  H
  H70      1.0000 0.27072  0.49380  0.53357  Biso   1.000  H
  O15      1.0000 0.30732  0.59949  0.78627  Biso   1.000  O
  H71      1.0000 0.53358  0.15209  0.69717  Biso   1.000  H
  O16      1.0000 0.20222  0.62661  0.91648  Biso   1.000  O
  H72      1.0000 0.14957  0.75866  0.94578  Biso   1.000  H
  H73      1.0000 0.20564  0.72697  0.01138  Biso   1.000  H
  H74      1.0000 0.96357  0.53472  0.92450  Biso   1.000  H
  O17      1.0000 0.11627  0.57137  0.91168  Biso   1.000  O
  C59      1.0000 0.21903  0.53805  0.80318  Biso   1.000  C
  C60      1.0000 0.14923  0.59390  0.85331  Biso   1.000  C
  H75      1.0000 0.08332  0.54809  0.85569  Biso   1.000  H
  H76      1.0000 0.17653  0.49931  0.75659  Biso   1.000  H
  H77      1.0000 0.24714  0.48661  0.82451  Biso   1.000  H
  H78      1.0000 0.12834  0.65300  0.83739  Biso   1.000  H
  O18      1.0000 0.43435  0.38139  0.40656  Biso   1.000  O
  C61      1.0000 0.46040  0.28830  0.35621  Biso   1.000  C
  C62      1.0000 0.45157  0.46510  0.37611  Biso   1.000  C
  C63      1.0000 0.44610  0.20133  0.39043  Biso   1.000  C
  H79      1.0000 0.53584  0.29851  0.34328  Biso   1.000  H
  H80      1.0000 0.41322  0.27067  0.31028  Biso   1.000  H
  C64      1.0000 0.40234  0.55553  0.42381  Biso   1.000  C
  H81      1.0000 0.41808  0.44462  0.32510  Biso   1.000  H
  H82      1.0000 0.52967  0.48448  0.37440  Biso   1.000  H
  O19      1.0000 0.33440  0.17460  0.39606  Biso   1.000  O
  H83      1.0000 0.47702  0.14030  0.35947  Biso   1.000  H
  H84      1.0000 0.48414  0.22303  0.44011  Biso   1.000  H
  S9       1.0000 0.43349  0.67659  0.40170  Biso   1.000  S
  H85      1.0000 0.42702  0.56636  0.47587  Biso   1.000  H
  H86      1.0000 0.32328  0.53746  0.41939  Biso   1.000  H
  C65      1.0000 0.31459  0.10251  0.43702  Biso   1.000  C
  C66      1.0000 0.39327  0.64412  0.30780  Biso   1.000  C
  C67      1.0000 0.19610  0.08000  0.43602  Biso   1.000  C
  H87      1.0000 0.34601  0.13249  0.48842  Biso   1.000  H
  H88      1.0000 0.34669  0.03806  0.41392  Biso   1.000  H
  S10      1.0000 0.48429  0.59080  0.24230  Biso   1.000  S
  C68      1.0000 0.30374  0.67190  0.28088  Biso   1.000  C
  O20      1.0000 0.16417  0.02698  0.35478  Biso   1.000  O
  O21      1.0000 0.14327  0.00151  0.38208  Biso   1.000  O
  H89      1.0000 0.16250  0.14461  0.45432  Biso   1.000  H
  H90      1.0000 0.17563  0.03350  0.46642  Biso   1.000  H
  C69      1.0000 0.39167  0.56998  0.16631  Biso   1.000  C
  S11      1.0000 0.28763  0.64948  0.18493  Biso   1.000  S
  S12      1.0000 0.21536  0.74387  0.33825  Biso   1.000  S
  C70      1.0000 0.05841  0.03078  0.33820  Biso   1.000  C
  C71      1.0000 0.39836  0.50048  0.10131  Biso   1.000  C
  C72      1.0000 0.09217  0.71763  0.27922  Biso   1.000  C
  C73      1.0000 0.03692  0.99147  0.26159  Biso   1.000  C
  C74      1.0000 0.98075  0.08002  0.38202  Biso   1.000  C
  S13      1.0000 0.50304  0.42207  0.08335  Biso   1.000  S
  S14      1.0000 0.30823  0.48400  0.02487  Biso   1.000  S
  C75      1.0000 0.00338  0.75428  0.32902  Biso   1.000  C
  H91      1.0000 0.09907  0.75539  0.24169  Biso   1.000  H
  H92      1.0000 0.07639  0.64242  0.25341  Biso   1.000  H
  O22      1.0000 0.11677  0.95638  0.21091  Biso   1.000  O
  O23      1.0000 0.11312  0.92369  0.23153  Biso   1.000  O
  C76      1.0000 0.93640  0.99615  0.22959  Biso   1.000  C
  C77      1.0000 0.88238  0.08728  0.34892  Biso   1.000  C
  H93      1.0000 0.99500  0.10820  0.43392  Biso   1.000  H
  C78      1.0000 0.44433  0.34238  0.99751  Biso   1.000  C
  C79      1.0000 0.35443  0.36931  0.97143  Biso   1.000  C
  H94      1.0000 0.02359  0.82714  0.35970  Biso   1.000  H
  O24      1.0000 0.91009  0.74651  0.28254  Biso   1.000  O
  H95      1.0000 0.99004  0.71041  0.36218  Biso   1.000  H
  C80      1.0000 0.22440  0.95256  0.24590  Biso   1.000  C
  C81      1.0000 0.10280  0.92883  0.13298  Biso   1.000  C
  H96      1.0000 0.92068  0.96621  0.17791  Biso   1.000  H
  C82      1.0000 0.85993  0.04432  0.27281  Biso   1.000  C
  C83      1.0000 0.79088  0.14105  0.38938  Biso   1.000  C
  S15      1.0000 0.51356  0.24199  0.94711  Biso   1.000  S
  S16      1.0000 0.29104  0.30907  0.88261  Biso   1.000  S
  C84      1.0000 0.82358  0.79458  0.31979  Biso   1.000  C
  C85      1.0000 0.28014  0.92028  0.17731  Biso   1.000  C
  H97      1.0000 0.23921  0.02870  0.26767  Biso   1.000  H
  H98      1.0000 0.25166  0.91966  0.28210  Biso   1.000  H
  C86      1.0000 0.20834  0.90080  0.10131  Biso   1.000  C
  H99      1.0000 0.08051  0.98791  0.11772  Biso   1.000  H
  H100     1.0000 0.04620  0.86919  0.11452  Biso   1.000  H
  C87      1.0000 0.74647  0.05620  0.24601  Biso   1.000  C
  C88      1.0000 0.76630  0.22009  0.34748  Biso   1.000  C
  C89      1.0000 0.81803  0.19207  0.47223  Biso   1.000  C
  C90      1.0000 0.69412  0.05823  0.36970  Biso   1.000  C
  C91      1.0000 0.54670  0.17930  0.01680  Biso   1.000  C
  C92      1.0000 0.14725  0.30452  0.90151  Biso   1.000  C
  C93      1.0000 0.16272  0.26671  0.90637  Biso   1.000  C
  C94      1.0000 0.75396  0.72691  0.35279  Biso   1.000  C
  H101     1.0000 0.77888  0.81643  0.28431  Biso   1.000  H
  H102     1.0000 0.85368  0.85794  0.35942  Biso   1.000  H
  C95      1.0000 0.36409  0.01111  0.16940  Biso   1.000  C
  O25      1.0000 0.27525  0.99056  0.11391  Biso   1.000  O
  O26      1.0000 0.29409  0.98137  0.13397  Biso   1.000  O
  H103     1.0000 0.23943  0.85383  0.12557  Biso   1.000  H
  H104     1.0000 0.35235  0.90556  0.19118  Biso   1.000  H
  H105     1.0000 0.24086  0.85353  0.14669  Biso   1.000  H
  H106     1.0000 0.19719  0.86504  0.04759  Biso   1.000  H
  C96      1.0000 0.74263  0.17432  0.27248  Biso   1.000  C
  C97      1.0000 0.72153  0.00852  0.16299  Biso   1.000  C
  C98      1.0000 0.67068  0.01214  0.29392  Biso   1.000  C
  C99      1.0000 0.76813  0.32587  0.37887  Biso   1.000  C
  H107     1.0000 0.83154  0.13892  0.49588  Biso   1.000  H
  H108     1.0000 0.75750  0.22729  0.49422  Biso   1.000  H
  H109     1.0000 0.88229  0.24280  0.47958  Biso   1.000  H
  C100     1.0000 0.63342  0.02430  0.41988  Biso   1.000  C
  C101     1.0000 0.44974  0.12737  0.04090  Biso   1.000  C
  H110     1.0000 0.58514  0.23188  0.06030  Biso   1.000  H
  H111     1.0000 0.59584  0.12709  0.99641  Biso   1.000  H
  C102     1.0000 0.10519  0.24897  0.95678  Biso   1.000  C
  H112     1.0000 0.13055  0.37698  0.91909  Biso   1.000  H
  H113     1.0000 0.10504  0.27140  0.85381  Biso   1.000  H
  C103     1.0000 0.10332  0.35469  0.90002  Biso   1.000  C
  H114     1.0000 0.13146  0.19964  0.87122  Biso   1.000  H
  H115     1.0000 0.16473  0.26067  0.95728  Biso   1.000  H
  O27      1.0000 0.80634  0.71530  0.41745  Biso   1.000  O
  H116     1.0000 0.68626  0.75718  0.36589  Biso   1.000  H
  H117     1.0000 0.73546  0.65779  0.31609  Biso   1.000  H
  C104     1.0000 0.31362  0.09248  0.15122  Biso   1.000  C
  C105     1.0000 0.43521  0.10098  0.17029  Biso   1.000  C
  H118     1.0000 0.33532  0.02093  0.21870  Biso   1.000  H
  H119     1.0000 0.40477  0.95036  0.15918  Biso   1.000  H
  C106     1.0000 0.71875  0.23519  0.22771  Biso   1.000  C
  H120     1.0000 0.72121  0.93311  0.15011  Biso   1.000  H
  H121     1.0000 0.65090  0.02450  0.14912  Biso   1.000  H
  H122     1.0000 0.77657  0.03718  0.13641  Biso   1.000  H
  C107     1.0000 0.58631  0.93327  0.26878  Biso   1.000  C
  H123     1.0000 0.78503  0.35641  0.43039  Biso   1.000  H
  C108     1.0000 0.74486  0.38721  0.33400  Biso   1.000  C
  C109     1.0000 0.54750  0.94516  0.39319  Biso   1.000  C
  H124     1.0000 0.64962  0.05422  0.47151  Biso   1.000  H
  O28      1.0000 0.48550  0.08478  0.09739  Biso   1.000  O
  H125     1.0000 0.39888  0.17821  0.06052  Biso   1.000  H
  H126     1.0000 0.41273  0.07151  0.99862  Biso   1.000  H
  H127     1.0000 0.14052  0.28658  0.00619  Biso   1.000  H
  O29      1.0000 0.99074  0.24032  0.96258  Biso   1.000  O
  H128     1.0000 0.12713  0.17832  0.94252  Biso   1.000  H
  O30      1.0000 0.99800  0.32062  0.91638  Biso   1.000  O
  H129     1.0000 0.13345  0.42124  0.93622  Biso   1.000  H
  H130     1.0000 0.10396  0.36209  0.84950  Biso   1.000  H
  C110     1.0000 0.74114  0.65377  0.45310  Biso   1.000  C
  H131     1.0000 0.39482  0.16189  0.17968  Biso   1.000  H
  H132     1.0000 0.27199  0.11519  0.11457  Biso   1.000  H
  H133     1.0000 0.28884  0.12492  0.20068  Biso   1.000  H
  C111     1.0000 0.42423  0.12579  0.15000  Biso   1.000  C
  H134     1.0000 0.49214  0.11500  0.21058  Biso   1.000  H
  H135     1.0000 0.45889  0.12118  0.19648  Biso   1.000  H
  C112     1.0000 0.72124  0.34202  0.25877  Biso   1.000  C
  H136     1.0000 0.70091  0.20410  0.17631  Biso   1.000  H
  C113     1.0000 0.52502  0.90139  0.31979  Biso   1.000  C
  H137     1.0000 0.57038  0.90149  0.21732  Biso   1.000  H
  O31      1.0000 0.74064  0.49248  0.35881  Biso   1.000  O
  H138     1.0000 0.50457  0.92215  0.42712  Biso   1.000  H
  C114     1.0000 0.95159  0.32930  0.00962  Biso   1.000  C
  C115     1.0000 0.95302  0.38802  0.97668  Biso   1.000  C
  C116     1.0000 0.76932  0.54337  0.43580  Biso   1.000  C
  H139     1.0000 0.66474  0.65177  0.43718  Biso   1.000  H
  H140     1.0000 0.75010  0.68687  0.50721  Biso   1.000  H
  H141     1.0000 0.42954  0.20056  0.15398  Biso   1.000  H
  O32      1.0000 0.69276  0.40047  0.21373  Biso   1.000  O
  H142     1.0000 0.46649  0.84787  0.30282  Biso   1.000  H
  H143     1.0000 0.00241  0.36054  0.05350  Biso   1.000  H
  H144     1.0000 0.00306  0.34370  0.06583  Biso   1.000  H
  H145     1.0000 0.94613  0.38159  0.98298  Biso   1.000  H
  C117     1.0000 0.84429  0.29970  0.03338  Biso   1.000  C
  C118     1.0000 0.97904  0.40598  0.05632  Biso   1.000  C
  H146     1.0000 0.87421  0.36580  0.96921  Biso   1.000  H
  H147     1.0000 0.96362  0.45717  0.96888  Biso   1.000  H
  H148     1.0000 0.84739  0.54411  0.44652  Biso   1.000  H
  H149     1.0000 0.72936  0.50623  0.46642  Biso   1.000  H
  C119     1.0000 0.78105  0.46190  0.19682  Biso   1.000  C
  H150     1.0000 0.79443  0.27299  0.98861  Biso   1.000  H
  O33      1.0000 0.79787  0.37342  0.08351  Biso   1.000  O
  H151     1.0000 0.85051  0.24130  0.05422  Biso   1.000  H
  H152     1.0000 0.03651  0.46531  0.07550  Biso   1.000  H
  O34      1.0000 0.88381  0.42858  0.08832  Biso   1.000  O
  H153     1.0000 0.82355  0.50072  0.24341  Biso   1.000  H
  H154     1.0000 0.75295  0.51342  0.17548  Biso   1.000  H
  C120     1.0000 0.85086  0.40613  0.14669  Biso   1.000  C
  H155     1.0000 0.91677  0.45193  0.14431  Biso   1.000  H
  H156     1.0000 0.87174  0.34702  0.16260  Biso   1.000  H
