data_image0
_cell_length_a       13.171
_cell_length_b       20.825
_cell_length_c       15.453
_cell_angle_alpha    90
_cell_angle_beta     100.8
_cell_angle_gamma    90

_symmetry_space_group_name_H-M    "P 1"
_symmetry_int_tables_number       1

loop_
  _symmetry_equiv_pos_as_xyz
  'x, y, z'

loop_
  _atom_site_label
  _atom_site_occupancy
  _atom_site_fract_x
  _atom_site_fract_y
  _atom_site_fract_z
  _atom_site_thermal_displace_type
  _atom_site_B_iso_or_equiv
  _atom_site_type_symbol
  C1       1.0000 0.52213  0.39419  0.57190  Biso   1.000  C
  N1       1.0000 0.46868  0.44327  0.52493  Biso   1.000  N
  O1       1.0000 0.49529  0.36303  0.63007  Biso   1.000  O
  N2       1.0000 0.61215  0.38550  0.54001  Biso   1.000  N
  C2       1.0000 0.51943  0.46795  0.45635  Biso   1.000  C
  C3       1.0000 0.36439  0.45906  0.53369  Biso   1.000  C
  C4       1.0000 0.61989  0.42684  0.46675  Biso   1.000  C
  C5       1.0000 0.68169  0.33220  0.56762  Biso   1.000  C
  N3       1.0000 0.55828  0.53301  0.47143  Biso   1.000  N
  H1       1.0000 0.47300  0.46050  0.39541  Biso   1.000  H
  N4       1.0000 0.35650  0.51827  0.58033  Biso   1.000  N
  H2       1.0000 0.34701  0.42761  0.56999  Biso   1.000  H
  H3       1.0000 0.32900  0.45882  0.47598  Biso   1.000  H
  N5       1.0000 0.70119  0.47505  0.48395  Biso   1.000  N
  H4       1.0000 0.62604  0.39928  0.40700  Biso   1.000  H
  N6       1.0000 0.77081  0.34934  0.63317  Biso   1.000  N
  H5       1.0000 0.69901  0.31059  0.51998  Biso   1.000  H
  H6       1.0000 0.64596  0.29801  0.59397  Biso   1.000  H
  C6       1.0000 0.66350  0.53575  0.48487  Biso   1.000  C
  C7       1.0000 0.49464  0.58972  0.45167  Biso   1.000  C
  C8       1.0000 0.34593  0.57954  0.53573  Biso   1.000  C
  C9       1.0000 0.31793  0.51995  0.65734  Biso   1.000  C
  C10      1.0000 0.80958  0.46041  0.49317  Biso   1.000  C
  C11      1.0000 0.86493  0.37436  0.61057  Biso   1.000  C
  C12      1.0000 0.78234  0.33090  0.71874  Biso   1.000  C
  O2       1.0000 0.71510  0.58550  0.49370  Biso   1.000  O
  N7       1.0000 0.44239  0.60792  0.52242  Biso   1.000  N
  H7       1.0000 0.54402  0.62670  0.43698  Biso   1.000  H
  H8       1.0000 0.43701  0.58339  0.39297  Biso   1.000  H
  H9       1.0000 0.29597  0.56898  0.48217  Biso   1.000  H
  C13      1.0000 0.30953  0.62497  0.60260  Biso   1.000  C
  O3       1.0000 0.29994  0.47419  0.70056  Biso   1.000  O
  N8       1.0000 0.30201  0.58363  0.67645  Biso   1.000  N
  N9       1.0000 0.85802  0.44048  0.58053  Biso   1.000  N
  H10      1.0000 0.84602  0.50098  0.48000  Biso   1.000  H
  H11      1.0000 0.82098  0.42838  0.45002  Biso   1.000  H
  H12      1.0000 0.88201  0.34430  0.56498  Biso   1.000  H
  C14      1.0000 0.93872  0.37911  0.70208  Biso   1.000  C
  O4       1.0000 0.72047  0.30036  0.75260  Biso   1.000  O
  N10      1.0000 0.87856  0.35083  0.76170  Biso   1.000  N
  C15      1.0000 0.46229  0.66459  0.56597  Biso   1.000  C
  N11      1.0000 0.39046  0.67323  0.61946  Biso   1.000  N
  H13      1.0000 0.24039  0.64091  0.58198  Biso   1.000  H
  C16      1.0000 0.23559  0.59976  0.73903  Biso   1.000  C
  C17      1.0000 0.91617  0.48154  0.63956  Biso   1.000  C
  N12      1.0000 0.95667  0.44778  0.71360  Biso   1.000  N
  H14      1.0000 0.00398  0.35909  0.70399  Biso   1.000  H
  C18      1.0000 0.91831  0.33465  0.85268  Biso   1.000  C
  O5       1.0000 0.53408  0.70180  0.56063  Biso   1.000  O
  C19      1.0000 0.36931  0.73642  0.64931  Biso   1.000  C
  N13      1.0000 0.27767  0.64999  0.79991  Biso   1.000  N
  H15      1.0000 0.22900  0.56010  0.77500  Biso   1.000  H
  H16      1.0000 0.16903  0.61911  0.69700  Biso   1.000  H
  O6       1.0000 0.92936  0.53854  0.62737  Biso   1.000  O
  C20      1.0000 0.04472  0.47352  0.77428  Biso   1.000  C
  N14      1.0000 0.93548  0.39011  0.91144  Biso   1.000  N
  H17      1.0000 0.86201  0.30358  0.87600  Biso   1.000  H
  H18      1.0000 0.98804  0.31102  0.85801  Biso   1.000  H
  N15      1.0000 0.36650  0.73786  0.74292  Biso   1.000  N
  H19      1.0000 0.42500  0.76898  0.64397  Biso   1.000  H
  H20      1.0000 0.30998  0.75299  0.61498  Biso   1.000  H
  C21      1.0000 0.27383  0.71669  0.77382  Biso   1.000  C
  C22      1.0000 0.27863  0.64293  0.88957  Biso   1.000  C
  N16      1.0000 0.02551  0.48019  0.86302  Biso   1.000  N
  H21      1.0000 0.06296  0.51481  0.75399  Biso   1.000  H
  H22      1.0000 0.10901  0.43899  0.77902  Biso   1.000  H
  C23      1.0000 0.89793  0.39044  0.98825  Biso   1.000  C
  C24      1.0000 0.03160  0.42612  0.92112  Biso   1.000  C
  C25      1.0000 0.41698  0.78487  0.79569  Biso   1.000  C
  H23      1.0000 0.21200  0.72581  0.72500  Biso   1.000  H
  C26      1.0000 0.27818  0.75385  0.86163  Biso   1.000  C
  O7       1.0000 0.27431  0.59285  0.92863  Biso   1.000  O
  N17      1.0000 0.28426  0.70353  0.92587  Biso   1.000  N
  C27      1.0000 0.03553  0.53748  0.90689  Biso   1.000  C
  O8       1.0000 0.82409  0.35899  0.00433  Biso   1.000  O
  N18      1.0000 0.95661  0.43136  0.04590  Biso   1.000  N
  H24      1.0000 0.09398  0.40139  0.92099  Biso   1.000  H
  C28      1.0000 0.04450  0.45628  0.01263  Biso   1.000  C
  O9       1.0000 0.49085  0.81671  0.78014  Biso   1.000  O
  N19      1.0000 0.37299  0.79169  0.86776  Biso   1.000  N
  H25      1.0000 0.21799  0.78459  0.86341  Biso   1.000  H
  C29      1.0000 0.25871  0.71376  0.01237  Biso   1.000  C
  O10      1.0000 0.03828  0.59078  0.87415  Biso   1.000  O
  N20      1.0000 0.03994  0.52466  0.99465  Biso   1.000  N
  C30      1.0000 0.95181  0.43102  0.13905  Biso   1.000  C
  H26      1.0000 0.11096  0.44812  0.04900  Biso   1.000  H
  C31      1.0000 0.40128  0.84259  0.93186  Biso   1.000  C
  H27      1.0000 0.19601  0.74002  0.99899  Biso   1.000  H
  N21      1.0000 0.34548  0.73613  0.07693  Biso   1.000  N
  H28      1.0000 0.23599  0.66939  0.03200  Biso   1.000  H
  C32      1.0000 0.08638  0.57032  0.06151  Biso   1.000  C
  N22      1.0000 0.92834  0.49330  0.17081  Biso   1.000  N
  H29      1.0000 0.89802  0.39760  0.15098  Biso   1.000  H
  H30      1.0000 0.02096  0.41489  0.17700  Biso   1.000  H
  H31      1.0000 0.44001  0.87400  0.90597  Biso   1.000  H
  H32      1.0000 0.34303  0.86790  0.92903  Biso   1.000  H
  N23      1.0000 0.44551  0.81988  0.01909  Biso   1.000  N
  C33      1.0000 0.38250  0.80211  0.08437  Biso   1.000  C
  C34      1.0000 0.38451  0.70094  0.14913  Biso   1.000  C
  N24      1.0000 0.02117  0.58502  0.12509  Biso   1.000  N
  H33      1.0000 0.08700  0.61801  0.02600  Biso   1.000  H
  H34      1.0000 0.15202  0.55198  0.09900  Biso   1.000  H
  C35      1.0000 0.84957  0.50262  0.21692  Biso   1.000  C
  C36      1.0000 0.00881  0.54166  0.19492  Biso   1.000  C
  C37      1.0000 0.54494  0.83549  0.05967  Biso   1.000  C
  H35      1.0000 0.32598  0.83299  0.08701  Biso   1.000  H
  C38      1.0000 0.46058  0.80173  0.17186  Biso   1.000  C
  O11      1.0000 0.35577  0.64725  0.16652  Biso   1.000  O
  N25      1.0000 0.46165  0.73580  0.20058  Biso   1.000  N
  C39      1.0000 0.00227  0.64739  0.14478  Biso   1.000  C
  O12      1.0000 0.77530  0.46545  0.21442  Biso   1.000  O
  N26      1.0000 0.86743  0.55664  0.26429  Biso   1.000  N
  C40      1.0000 0.96762  0.58555  0.26139  Biso   1.000  C
  H36      1.0000 0.07101  0.52058  0.22298  Biso   1.000  H
  O13      1.0000 0.61075  0.85825  0.02126  Biso   1.000  O
  N27      1.0000 0.55584  0.82358  0.14656  Biso   1.000  N
  H37      1.0000 0.43896  0.83198  0.21099  Biso   1.000  H
  C41      1.0000 0.50400  0.71717  0.29064  Biso   1.000  C
  N28      1.0000 0.96229  0.64807  0.22094  Biso   1.000  N
  O14      1.0000 0.01923  0.69489  0.10282  Biso   1.000  O
  C42      1.0000 0.80469  0.57873  0.32602  Biso   1.000  C
  H38      1.0000 0.01298  0.58809  0.31403  Biso   1.000  H
  C43      1.0000 0.64813  0.83909  0.21132  Biso   1.000  C
  N29      1.0000 0.61190  0.69983  0.30382  Biso   1.000  N
  H39      1.0000 0.49501  0.75222  0.33300  Biso   1.000  H
  H40      1.0000 0.46502  0.67621  0.30810  Biso   1.000  H
  C44      1.0000 0.96029  0.70631  0.27193  Biso   1.000  C
  N30      1.0000 0.74972  0.63784  0.30112  Biso   1.000  N
  H41      1.0000 0.84897  0.58718  0.38202  Biso   1.000  H
  H42      1.0000 0.75804  0.54098  0.33102  Biso   1.000  H
  N31      1.0000 0.71036  0.78295  0.24196  Biso   1.000  N
  H43      1.0000 0.69102  0.87040  0.18299  Biso   1.000  H
  H44      1.0000 0.61797  0.85849  0.26099  Biso   1.000  H
  C45      1.0000 0.69698  0.74497  0.31851  Biso   1.000  C
  C46      1.0000 0.64352  0.63818  0.29084  Biso   1.000  C
  N32      1.0000 0.85771  0.72917  0.27707  Biso   1.000  N
  H45      1.0000 0.99398  0.69589  0.33781  Biso   1.000  H
  H46      1.0000 0.99102  0.74132  0.24143  Biso   1.000  H
  C47      1.0000 0.79277  0.70026  0.33221  Biso   1.000  C
  C48      1.0000 0.80760  0.77570  0.22318  Biso   1.000  C
  H47      1.0000 0.69398  0.77248  0.36601  Biso   1.000  H
  O15      1.0000 0.58709  0.59140  0.27555  Biso   1.000  O
  H48      1.0000 0.81901  0.68471  0.39150  Biso   1.000  H
  O16      1.0000 0.84320  0.80691  0.16896  Biso   1.000  O
  O17      1.0000 0.46589  0.20178  0.43935  Biso   1.000  O
  C49      1.0000 0.53768  0.16461  0.43401  Biso   1.000  C
  N33      1.0000 0.60951  0.17325  0.38052  Biso   1.000  N
  N34      1.0000 0.55758  0.10795  0.47756  Biso   1.000  N
  C50      1.0000 0.63066  0.23645  0.35068  Biso   1.000  C
  C51      1.0000 0.69052  0.12495  0.39745  Biso   1.000  C
  C52      1.0000 0.65411  0.07957  0.46425  Biso   1.000  C
  C53      1.0000 0.50541  0.08970  0.54831  Biso   1.000  C
  N35      1.0000 0.63346  0.23784  0.25706  Biso   1.000  N
  H49      1.0000 0.57497  0.26900  0.35601  Biso   1.000  H
  H50      1.0000 0.68999  0.25301  0.38500  Biso   1.000  H
  N36      1.0000 0.69804  0.08365  0.32353  Biso   1.000  N
  H51      1.0000 0.75958  0.14089  0.41800  Biso   1.000  H
  N37      1.0000 0.64355  0.01825  0.41965  Biso   1.000  N
  H52      1.0000 0.70400  0.06900  0.51781  Biso   1.000  H
  N38      1.0000 0.44170  0.03299  0.52862  Biso   1.000  N
  H53      1.0000 0.45602  0.12672  0.56300  Biso   1.000  H
  H54      1.0000 0.56303  0.08341  0.60701  Biso   1.000  H
  C54      1.0000 0.58300  0.28490  0.20436  Biso   1.000  C
  C55      1.0000 0.72621  0.21671  0.22616  Biso   1.000  C
  C56      1.0000 0.76438  0.09974  0.26095  Biso   1.000  C
  C57      1.0000 0.68212  0.01993  0.34264  Biso   1.000  C
  C58      1.0000 0.63558  0.95904  0.46629  Biso   1.000  C
  C59      1.0000 0.33654  0.03573  0.51511  Biso   1.000  C
  C60      1.0000 0.48061  0.96792  0.54364  Biso   1.000  C
  O18      1.0000 0.50912  0.31669  0.21984  Biso   1.000  O
  N39      1.0000 0.62705  0.29172  0.13222  Biso   1.000  N
  C61      1.0000 0.72178  0.25388  0.13835  Biso   1.000  C
  N40      1.0000 0.72231  0.14996  0.20014  Biso   1.000  N
  H55      1.0000 0.78796  0.22579  0.27498  Biso   1.000  H
  H56      1.0000 0.77097  0.06012  0.22498  Biso   1.000  H
  H57      1.0000 0.83102  0.11909  0.30298  Biso   1.000  H
  O19      1.0000 0.70002  0.97421  0.29942  Biso   1.000  O
  N41      1.0000 0.53136  0.94329  0.47506  Biso   1.000  N
  H58      1.0000 0.65303  0.92759  0.42999  Biso   1.000  H
  H59      1.0000 0.67097  0.95880  0.52400  Biso   1.000  H
  O20      1.0000 0.28494  0.08552  0.50628  Biso   1.000  O
  N42      1.0000 0.29886  0.97503  0.51603  Biso   1.000  N
  C62      1.0000 0.38009  0.92682  0.53329  Biso   1.000  C
  H60      1.0000 0.52696  0.96048  0.60457  Biso   1.000  H
  C63      1.0000 0.59870  0.34262  0.06819  Biso   1.000  C
  N43      1.0000 0.71579  0.20351  0.07411  Biso   1.000  N
  H61      1.0000 0.78198  0.28461  0.13657  Biso   1.000  H
  C64      1.0000 0.72143  0.14295  0.11048  Biso   1.000  C
  C65      1.0000 0.47791  0.89417  0.42808  Biso   1.000  C
  C66      1.0000 0.19038  0.96043  0.50681  Biso   1.000  C
  N44      1.0000 0.38781  0.88552  0.45997  Biso   1.000  N
  H62      1.0000 0.37401  0.89930  0.59298  Biso   1.000  H
  H63      1.0000 0.56003  0.37402  0.09401  Biso   1.000  H
  H64      1.0000 0.65702  0.36792  0.07102  Biso   1.000  H
  N45      1.0000 0.55447  0.31990  0.98096  Biso   1.000  N
  C67      1.0000 0.74127  0.21378  0.98768  Biso   1.000  C
  O21      1.0000 0.72565  0.09282  0.07135  Biso   1.000  O
  O22      1.0000 0.50468  0.86300  0.36991  Biso   1.000  O
  H65      1.0000 0.15403  0.00101  0.51998  Biso   1.000  H
  N46      1.0000 0.14195  0.94050  0.41945  Biso   1.000  N
  H66      1.0000 0.17900  0.92840  0.55003  Biso   1.000  H
  C68      1.0000 0.31827  0.83217  0.43237  Biso   1.000  C
  C69      1.0000 0.45510  0.33551  0.94031  Biso   1.000  C
  C70      1.0000 0.61747  0.30209  0.91561  Biso   1.000  C
  H67      1.0000 0.80403  0.24000  0.00099  Biso   1.000  H
  N47      1.0000 0.65456  0.23616  0.92305  Biso   1.000  N
  H68      1.0000 0.76397  0.16941  0.96798  Biso   1.000  H
  C71      1.0000 0.08381  0.98151  0.36049  Biso   1.000  C
  C72      1.0000 0.13511  0.87438  0.38941  Biso   1.000  C
  N48      1.0000 0.22915  0.84932  0.36682  Biso   1.000  N
  H69      1.0000 0.30103  0.81061  0.48000  Biso   1.000  H
  H70      1.0000 0.35401  0.79798  0.40601  Biso   1.000  H
  O23      1.0000 0.38929  0.35827  0.97872  Biso   1.000  O
  N49      1.0000 0.44412  0.32360  0.85342  Biso   1.000  N
  H71      1.0000 0.67398  0.33301  0.91297  Biso   1.000  H
  C73      1.0000 0.53939  0.30175  0.82812  Biso   1.000  C
  C74      1.0000 0.61553  0.20096  0.85085  Biso   1.000  C
  O24      1.0000 0.07061  0.03856  0.37261  Biso   1.000  O
  N50      1.0000 0.04339  0.94780  0.28644  Biso   1.000  N
  H72      1.0000 0.11803  0.84432  0.43500  Biso   1.000  H
  C75      1.0000 0.06132  0.87914  0.29791  Biso   1.000  C
  C76      1.0000 0.21770  0.83092  0.28124  Biso   1.000  C
  C77      1.0000 0.35193  0.33911  0.78873  Biso   1.000  C
  N51      1.0000 0.53831  0.23577  0.79940  Biso   1.000  N
  H73      1.0000 0.56100  0.33200  0.78899  Biso   1.000  H
  O25      1.0000 0.64428  0.14723  0.83346  Biso   1.000  O
  C78      1.0000 0.95532  0.97349  0.22570  Biso   1.000  C
  H74      1.0000 0.99598  0.85911  0.29600  Biso   1.000  H
  N52      1.0000 0.12148  0.85080  0.23829  Biso   1.000  N
  O26      1.0000 0.27950  0.80038  0.24738  Biso   1.000  O
  N53      1.0000 0.28969  0.28298  0.75809  Biso   1.000  N
  H75      1.0000 0.30902  0.37042  0.81699  Biso   1.000  H
  H76      1.0000 0.38199  0.35851  0.73899  Biso   1.000  H
  C79      1.0000 0.49597  0.21714  0.70934  Biso   1.000  C
  N54      1.0000 0.97455  0.98017  0.13703  Biso   1.000  N
  H77      1.0000 0.89097  0.93902  0.22102  Biso   1.000  H
  H78      1.0000 0.93701  0.01479  0.24599  Biso   1.000  H
  C80      1.0000 0.08174  0.83462  0.14731  Biso   1.000  C
  C81      1.0000 0.19237  0.27573  0.77680  Biso   1.000  C
  C82      1.0000 0.30299  0.24499  0.68147  Biso   1.000  C
  N55      1.0000 0.38807  0.19986  0.69616  Biso   1.000  N
  H79      1.0000 0.50503  0.25220  0.66698  Biso   1.000  H
  H80      1.0000 0.53503  0.17618  0.69188  Biso   1.000  H
  C83      1.0000 0.96837  0.92615  0.07886  Biso   1.000  C
  C84      1.0000 0.96451  0.03750  0.09309  Biso   1.000  C
  N56      1.0000 0.06456  0.89013  0.08854  Biso   1.000  N
  H81      1.0000 0.13803  0.80360  0.12398  Biso   1.000  H
  H82      1.0000 0.01200  0.81100  0.14197  Biso   1.000  H
  O27      1.0000 0.15676  0.30689  0.83102  Biso   1.000  O
  N57      1.0000 0.14235  0.22920  0.72298  Biso   1.000  N
  H83      1.0000 0.30599  0.27251  0.63397  Biso   1.000  H
  C85      1.0000 0.20720  0.20024  0.66777  Biso   1.000  C
  C86      1.0000 0.35653  0.13815  0.70914  Biso   1.000  C
  C87      1.0000 0.95554  0.95630  0.98735  Biso   1.000  C
  H84      1.0000 0.90598  0.90142  0.07899  Biso   1.000  H
  N58      1.0000 0.96011  0.02468  0.00540  Biso   1.000  N
  O28      1.0000 0.96168  0.09080  0.12583  Biso   1.000  O
  C88      1.0000 0.10211  0.89047  0.01173  Biso   1.000  C
  C89      1.0000 0.03967  0.20634  0.72805  Biso   1.000  C
  N59      1.0000 0.25025  0.13782  0.69887  Biso   1.000  N
  H85      1.0000 0.18103  0.18468  0.60848  Biso   1.000  H
  O29      1.0000 0.41297  0.09143  0.72449  Biso   1.000  O
  N60      1.0000 0.04336  0.93138  0.95408  Biso   1.000  N
  H86      1.0000 0.88900  0.94809  0.95099  Biso   1.000  H
  C90      1.0000 0.91359  0.07030  0.93847  Biso   1.000  C
  O30      1.0000 0.17596  0.85897  0.99572  Biso   1.000  O
  N61      1.0000 0.03767  0.14809  0.77904  Biso   1.000  N
  H87      1.0000 0.00598  0.19592  0.66217  Biso   1.000  H
  H88      1.0000 0.00904  0.24130  0.75862  Biso   1.000  H
  C91      1.0000 0.19529  0.07875  0.67403  Biso   1.000  C
  C92      1.0000 0.04816  0.93104  0.86093  Biso   1.000  C
  N62      1.0000 0.97881  0.08499  0.87496  Biso   1.000  N
  H89      1.0000 0.91296  0.11798  0.97398  Biso   1.000  H
  H90      1.0000 0.84802  0.05200  0.90098  Biso   1.000  H
  C93      1.0000 0.99770  0.14737  0.85520  Biso   1.000  C
  C94      1.0000 0.03242  0.08557  0.73859  Biso   1.000  C
  N63      1.0000 0.13255  0.05666  0.73576  Biso   1.000  N
  H91      1.0000 0.15101  0.08720  0.61803  Biso   1.000  H
  H92      1.0000 0.24202  0.04101  0.66902  Biso   1.000  H
  N64      1.0000 0.07164  0.99333  0.82924  Biso   1.000  N
  H93      1.0000 0.97900  0.91491  0.82298  Biso   1.000  H
  H94      1.0000 0.10203  0.89762  0.84900  Biso   1.000  H
  C95      1.0000 0.99117  0.04168  0.80513  Biso   1.000  C
  O31      1.0000 0.98075  0.19491  0.89723  Biso   1.000  O
  H95      1.0000 0.98700  0.08812  0.68602  Biso   1.000  H
  C96      1.0000 0.15039  0.00264  0.78306  Biso   1.000  C
  H96      1.0000 0.92903  0.02060  0.77700  Biso   1.000  H
  O32      1.0000 0.22467  0.96543  0.78556  Biso   1.000  O
  N65      1.0000 0.23479  0.17090  0.35792  Biso   1.000  N
  H97      1.0000 0.24102  0.13940  0.39903  Biso   1.000  H
  H98      1.0000 0.18302  0.19112  0.37802  Biso   1.000  H
  H99      1.0000 0.28798  0.19361  0.34501  Biso   1.000  H
  C97      1.0000 0.20623  0.12874  0.27880  Biso   1.000  C
  C98      1.0000 0.28630  0.07693  0.27729  Biso   1.000  C
  H100     1.0000 0.20900  0.15798  0.23301  Biso   1.000  H
  H101     1.0000 0.14396  0.10881  0.28598  Biso   1.000  H
  C99      1.0000 0.25708  0.03212  0.19928  Biso   1.000  C
  H102     1.0000 0.36302  0.09580  0.27399  Biso   1.000  H
  H103     1.0000 0.29198  0.05119  0.32900  Biso   1.000  H
  H104     1.0000 0.18390  0.02002  0.19000  Biso   1.000  H
  H105     1.0000 0.25598  0.05700  0.13901  Biso   1.000  H
  C100     1.0000 0.32734  0.97325  0.20423  Biso   1.000  C
  C101     1.0000 0.44257  0.98891  0.21068  Biso   1.000  C
  H106     1.0000 0.32404  0.94900  0.26003  Biso   1.000  H
  H107     1.0000 0.30402  0.94098  0.15100  Biso   1.000  H
  C102     1.0000 0.46813  0.03246  0.13769  Biso   1.000  C
  H108     1.0000 0.46604  0.00528  0.26701  Biso   1.000  H
  H109     1.0000 0.47303  0.94540  0.20798  Biso   1.000  H
  C103     1.0000 0.43434  0.00586  0.04513  Biso   1.000  C
  H110     1.0000 0.54701  0.04019  0.14803  Biso   1.000  H
  H111     1.0000 0.43399  0.07798  0.14197  Biso   1.000  H
  H112     1.0000 0.36404  0.00000  0.03202  Biso   1.000  H
  H113     1.0000 0.43997  0.95918  0.02998  Biso   1.000  H
  C104     1.0000 0.46474  0.04759  0.97273  Biso   1.000  C
  C105     1.0000 0.42838  0.11649  0.97141  Biso   1.000  C
  H114     1.0000 0.43700  0.02401  0.91462  Biso   1.000  H
  H115     1.0000 0.54304  0.03400  0.95902  Biso   1.000  H
  H116     1.0000 0.44899  0.14262  0.03202  Biso   1.000  H
  C106     1.0000 0.31123  0.12365  0.96001  Biso   1.000  C
  H117     1.0000 0.45204  0.13892  0.91600  Biso   1.000  H
  H118     1.0000 0.27604  0.10022  0.00303  Biso   1.000  H
  C107     1.0000 0.27297  0.19270  0.96041  Biso   1.000  C
  H119     1.0000 0.27703  0.09801  0.90599  Biso   1.000  H
  C108     1.0000 0.30073  0.22540  0.04763  Biso   1.000  C
  H120     1.0000 0.19371  0.18699  0.93900  Biso   1.000  H
  H121     1.0000 0.28098  0.19702  0.89703  Biso   1.000  H
  N66      1.0000 0.24162  0.28749  0.04262  Biso   1.000  N
  H122     1.0000 0.37949  0.22900  0.06502  Biso   1.000  H
  H123     1.0000 0.26999  0.19299  0.08498  Biso   1.000  H
  H124     1.0000 0.26803  0.29950  0.09849  Biso   1.000  H
  H125     1.0000 0.17442  0.28298  0.04500  Biso   1.000  H
  H126     1.0000 0.23904  0.30401  0.98702  Biso   1.000  H
