data_image0
_cell_length_a       17.416
_cell_length_b       19.589
_cell_length_c       20.006
_cell_angle_alpha    107.99
_cell_angle_beta     106.86
_cell_angle_gamma    94.7

_symmetry_space_group_name_H-M    "P 1"
_symmetry_int_tables_number       1

loop_
  _symmetry_equiv_pos_as_xyz
  'x, y, z'

loop_
  _atom_site_label
  _atom_site_occupancy
  _atom_site_fract_x
  _atom_site_fract_y
  _atom_site_fract_z
  _atom_site_thermal_displace_type
  _atom_site_B_iso_or_equiv
  _atom_site_type_symbol
  C1       1.0000 0.60754  0.30376  0.53070  Biso   1.000  C
  C2       1.0000 0.58497  0.22441  0.48110  Biso   1.000  C
  H1       1.0000 0.66293  0.32279  0.53572  Biso   1.000  H
  H2       1.0000 0.57163  0.33097  0.50691  Biso   1.000  H
  C3       1.0000 0.60202  0.31697  0.60872  Biso   1.000  C
  C4       1.0000 0.49513  0.18850  0.46043  Biso   1.000  C
  H3       1.0000 0.61824  0.19796  0.50919  Biso   1.000  H
  C5       1.0000 0.61045  0.21497  0.41200  Biso   1.000  C
  H4       1.0000 0.62813  0.28248  0.62890  Biso   1.000  H
  H5       1.0000 0.54515  0.30919  0.60543  Biso   1.000  H
  C6       1.0000 0.64344  0.39437  0.66010  Biso   1.000  C
  C7       1.0000 0.43235  0.22789  0.45653  Biso   1.000  C
  C8       1.0000 0.47442  0.11501  0.44533  Biso   1.000  C
  C9       1.0000 0.57810  0.24699  0.36051  Biso   1.000  C
  C10      1.0000 0.67527  0.17920  0.40342  Biso   1.000  C
  C11      1.0000 0.65226  0.40888  0.74253  Biso   1.000  C
  H6       1.0000 0.69725  0.40422  0.65654  Biso   1.000  H
  H7       1.0000 0.61217  0.42819  0.64322  Biso   1.000  H
  C12      1.0000 0.35053  0.19612  0.43552  Biso   1.000  C
  H8       1.0000 0.44553  0.27820  0.46840  Biso   1.000  H
  C13      1.0000 0.39550  0.08116  0.42409  Biso   1.000  C
  O1       1.0000 0.53790  0.07498  0.45770  Biso   1.000  O
  C14      1.0000 0.60784  0.24747  0.30261  Biso   1.000  C
  H9       1.0000 0.53391  0.26959  0.36430  Biso   1.000  H
  C15      1.0000 0.70274  0.17412  0.34423  Biso   1.000  C
  O2       1.0000 0.71425  0.14866  0.45580  Biso   1.000  O
  C16      1.0000 0.57204  0.40067  0.75702  Biso   1.000  C
  H10      1.0000 0.68093  0.37186  0.75679  Biso   1.000  H
  C17      1.0000 0.70966  0.48338  0.78872  Biso   1.000  C
  C18      1.0000 0.28136  0.23892  0.42872  Biso   1.000  C
  C19      1.0000 0.33372  0.12128  0.41679  Biso   1.000  C
  H11      1.0000 0.38314  0.03130  0.41473  Biso   1.000  H
  C20      1.0000 0.53974  0.01709  0.40253  Biso   1.000  C
  C21      1.0000 0.58445  0.29771  0.25780  Biso   1.000  C
  C22      1.0000 0.66964  0.20829  0.29558  Biso   1.000  C
  H12      1.0000 0.74343  0.14760  0.33738  Biso   1.000  H
  C23      1.0000 0.77603  0.20009  0.51722  Biso   1.000  C
  C24      1.0000 0.50016  0.41779  0.71750  Biso   1.000  C
  C25      1.0000 0.56727  0.37438  0.81252  Biso   1.000  C
  C26      1.0000 0.79188  0.48640  0.82840  Biso   1.000  C
  C27      1.0000 0.68673  0.54761  0.78332  Biso   1.000  C
  C28      1.0000 0.29330  0.30009  0.39941  Biso   1.000  C
  H13      1.0000 0.23271  0.20410  0.39160  Biso   1.000  H
  C29      1.0000 0.25991  0.26858  0.49988  Biso   1.000  C
  O3       1.0000 0.25249  0.08588  0.39339  Biso   1.000  O
  O4       1.0000 0.49193  0.99639  0.34111  Biso   1.000  O
  O5       1.0000 0.60175  0.98748  0.42694  Biso   1.000  O
  C30      1.0000 0.49473  0.27883  0.20692  Biso   1.000  C
  H14      1.0000 0.61774  0.29209  0.22520  Biso   1.000  H
  C31      1.0000 0.60983  0.37660  0.31130  Biso   1.000  C
  O6       1.0000 0.70490  0.20719  0.24008  Biso   1.000  O
  O7       1.0000 0.80025  0.16418  0.56453  Biso   1.000  O
  O8       1.0000 0.79965  0.25936  0.52279  Biso   1.000  O
  C32      1.0000 0.42644  0.40647  0.73082  Biso   1.000  C
  H15      1.0000 0.50146  0.43737  0.68100  Biso   1.000  H
  C33      1.0000 0.49593  0.36049  0.82612  Biso   1.000  C
  O9       1.0000 0.63867  0.35741  0.85471  Biso   1.000  O
  C34      1.0000 0.84817  0.55046  0.85710  Biso   1.000  C
  O10      1.0000 0.81380  0.41986  0.83125  Biso   1.000  O
  C35      1.0000 0.74186  0.61411  0.81063  Biso   1.000  C
  H16      1.0000 0.63185  0.54686  0.76030  Biso   1.000  H
  C36      1.0000 0.29819  0.27558  0.32038  Biso   1.000  C
  H17      1.0000 0.24844  0.32632  0.40002  Biso   1.000  H
  H18      1.0000 0.34323  0.33407  0.43301  Biso   1.000  H
  C37      1.0000 0.18313  0.24830  0.50183  Biso   1.000  C
  C38      1.0000 0.31322  0.32477  0.56353  Biso   1.000  C
  C39      1.0000 0.21281  0.05168  0.31871  Biso   1.000  C
  C40      1.0000 0.62252  0.92327  0.37862  Biso   1.000  C
  C41      1.0000 0.43210  0.30589  0.23049  Biso   1.000  C
  C42      1.0000 0.47259  0.23528  0.13202  Biso   1.000  C
  C43      1.0000 0.60592  0.43543  0.27691  Biso   1.000  C
  H19      1.0000 0.57531  0.38408  0.34228  Biso   1.000  H
  H20      1.0000 0.66541  0.38310  0.34379  Biso   1.000  H
  C44      1.0000 0.69954  0.14192  0.18792  Biso   1.000  C
  C45      1.0000 0.86236  0.20508  0.63831  Biso   1.000  C
  C46      1.0000 0.34807  0.42561  0.69003  Biso   1.000  C
  C47      1.0000 0.42665  0.37688  0.78494  Biso   1.000  C
  H21      1.0000 0.49445  0.34036  0.86223  Biso   1.000  H
  C48      1.0000 0.68029  0.40811  0.92253  Biso   1.000  C
  H22      1.0000 0.90225  0.55221  0.88363  Biso   1.000  H
  C49      1.0000 0.82306  0.61169  0.84579  Biso   1.000  C
  C50      1.0000 0.86986  0.41806  0.89383  Biso   1.000  C
  C51      1.0000 0.71783  0.67917  0.79012  Biso   1.000  C
  C52      1.0000 0.29732  0.34052  0.29341  Biso   1.000  C
  H23      1.0000 0.34811  0.25671  0.32049  Biso   1.000  H
  H24      1.0000 0.25224  0.23680  0.28711  Biso   1.000  H
  C53      1.0000 0.15962  0.27979  0.56319  Biso   1.000  C
  O11      1.0000 0.12510  0.19701  0.43663  Biso   1.000  O
  C54      1.0000 0.29246  0.35949  0.62550  Biso   1.000  C
  H25      1.0000 0.36567  0.33939  0.56403  Biso   1.000  H
  O12      1.0000 0.26040  0.06299  0.28109  Biso   1.000  O
  O13      1.0000 0.14494  0.01886  0.29659  Biso   1.000  O
  C55      1.0000 0.56672  0.85768  0.36491  Biso   1.000  C
  C56      1.0000 0.70452  0.91596  0.42599  Biso   1.000  C
  C57      1.0000 0.63485  0.93987  0.31230  Biso   1.000  C
  C58      1.0000 0.35165  0.29379  0.18402  Biso   1.000  C
  H26      1.0000 0.44480  0.33400  0.28048  Biso   1.000  H
  C59      1.0000 0.39603  0.22359  0.08331  Biso   1.000  C
  O14      1.0000 0.53108  0.20168  0.10505  Biso   1.000  O
  C60      1.0000 0.64215  0.51098  0.33771  Biso   1.000  C
  H27      1.0000 0.54953  0.43400  0.24938  Biso   1.000  H
  H28      1.0000 0.63623  0.42651  0.24231  Biso   1.000  H
  O15      1.0000 0.63624  0.09550  0.17844  Biso   1.000  O
  O16      1.0000 0.74885  0.13380  0.15565  Biso   1.000  O
  C61      1.0000 0.86667  0.14499  0.67543  Biso   1.000  C
  C62      1.0000 0.94074  0.22730  0.62734  Biso   1.000  C
  C63      1.0000 0.82718  0.26757  0.67933  Biso   1.000  C
  H29      1.0000 0.31876  0.44026  0.72570  Biso   1.000  H
  C64      1.0000 0.35795  0.48897  0.66233  Biso   1.000  C
  O17      1.0000 0.35465  0.36609  0.80087  Biso   1.000  O
  O18      1.0000 0.64544  0.46499  0.93730  Biso   1.000  O
  O19      1.0000 0.74035  0.39547  0.96031  Biso   1.000  O
  O20      1.0000 0.88248  0.67583  0.87232  Biso   1.000  O
  O21      1.0000 0.87030  0.34717  0.88168  Biso   1.000  O
  O22      1.0000 0.90918  0.46919  0.94671  Biso   1.000  O
  C65      1.0000 0.64846  0.70621  0.81603  Biso   1.000  C
  H30      1.0000 0.76556  0.71902  0.81603  Biso   1.000  H
  C66      1.0000 0.70279  0.65948  0.70664  Biso   1.000  C
  C67      1.0000 0.28222  0.32083  0.20993  Biso   1.000  C
  H31      1.0000 0.34932  0.37391  0.32049  Biso   1.000  H
  H32      1.0000 0.25521  0.36619  0.30573  Biso   1.000  H
  H33      1.0000 0.10816  0.26390  0.56392  Biso   1.000  H
  C68      1.0000 0.21435  0.33470  0.62282  Biso   1.000  C
  C69      1.0000 0.07902  0.14369  0.44560  Biso   1.000  C
  C70      1.0000 0.23492  0.02450  0.19940  Biso   1.000  C
  H34      1.0000 0.56606  0.85429  0.41161  Biso   1.000  H
  H35      1.0000 0.51280  0.85946  0.33599  Biso   1.000  H
  H36      1.0000 0.58433  0.81572  0.33822  Biso   1.000  H
  H37      1.0000 0.74483  0.95766  0.43619  Biso   1.000  H
  H38      1.0000 0.70064  0.91330  0.47213  Biso   1.000  H
  H39      1.0000 0.72001  0.87227  0.39980  Biso   1.000  H
  H40      1.0000 0.67534  0.98350  0.33008  Biso   1.000  H
  H41      1.0000 0.65261  0.89982  0.28293  Biso   1.000  H
  H42      1.0000 0.58412  0.94699  0.28232  Biso   1.000  H
  C71      1.0000 0.33621  0.25268  0.10889  Biso   1.000  C
  H43      1.0000 0.38401  0.19632  0.03321  Biso   1.000  H
  C72      1.0000 0.56572  0.23531  0.06771  Biso   1.000  C
  C73      1.0000 0.65203  0.57439  0.31002  Biso   1.000  C
  H44      1.0000 0.60730  0.52129  0.36831  Biso   1.000  H
  H45      1.0000 0.69526  0.50912  0.36942  Biso   1.000  H
  C74      1.0000 0.61920  0.01881  0.12628  Biso   1.000  C
  H46      1.0000 0.81492  0.13257  0.68089  Biso   1.000  H
  H47      1.0000 0.90834  0.16349  0.72352  Biso   1.000  H
  H48      1.0000 0.87936  0.10230  0.64450  Biso   1.000  H
  H49      1.0000 0.93487  0.26407  0.60471  Biso   1.000  H
  H50      1.0000 0.95396  0.18548  0.59551  Biso   1.000  H
  H51      1.0000 0.98367  0.24647  0.67470  Biso   1.000  H
  H52      1.0000 0.82564  0.30461  0.65704  Biso   1.000  H
  H53      1.0000 0.86105  0.28820  0.73082  Biso   1.000  H
  H54      1.0000 0.77286  0.24930  0.67593  Biso   1.000  H
  H55      1.0000 0.39274  0.47871  0.63174  Biso   1.000  H
  H56      1.0000 0.30484  0.49088  0.63062  Biso   1.000  H
  C75      1.0000 0.39413  0.56457  0.72313  Biso   1.000  C
  C76      1.0000 0.31917  0.29478  0.78510  Biso   1.000  C
  C77      1.0000 0.67857  0.52607  0.00986  Biso   1.000  C
  C78      1.0000 0.91707  0.68319  0.82121  Biso   1.000  C
  C79      1.0000 0.92577  0.32476  0.93941  Biso   1.000  C
  C80      1.0000 0.56793  0.69409  0.76950  Biso   1.000  C
  C81      1.0000 0.66387  0.74730  0.89110  Biso   1.000  C
  C82      1.0000 0.70183  0.72440  0.67961  Biso   1.000  C
  H57      1.0000 0.65076  0.62607  0.67950  Biso   1.000  H
  H58      1.0000 0.74484  0.63380  0.69432  Biso   1.000  H
  C83      1.0000 0.25824  0.38589  0.18942  Biso   1.000  C
  H59      1.0000 0.23454  0.28098  0.18402  Biso   1.000  H
  O23      1.0000 0.18771  0.36118  0.68513  Biso   1.000  O
  O24      1.0000 0.01809  0.11408  0.38224  Biso   1.000  O
  O25      1.0000 0.09294  0.12711  0.49972  Biso   1.000  O
  C84      1.0000 0.15948  0.05337  0.16250  Biso   1.000  C
  C85      1.0000 0.31091  0.05262  0.18413  Biso   1.000  C
  C86      1.0000 0.22089  0.94370  0.18240  Biso   1.000  C
  O26      1.0000 0.25886  0.24473  0.05645  Biso   1.000  O
  O27      1.0000 0.60929  0.19152  0.03895  Biso   1.000  O
  O28      1.0000 0.55563  0.29428  0.06609  Biso   1.000  O
  C87      1.0000 0.57366  0.59353  0.26922  Biso   1.000  C
  C88      1.0000 0.70763  0.64049  0.37450  Biso   1.000  C
  H60      1.0000 0.68133  0.55972  0.27430  Biso   1.000  H
  C89      1.0000 0.61069  0.01722  0.04809  Biso   1.000  C
  C90      1.0000 0.68751  0.98181  0.15559  Biso   1.000  C
  C91      1.0000 0.53901  0.98901  0.13202  Biso   1.000  C
  H61      1.0000 0.45055  0.56598  0.75061  Biso   1.000  H
  H62      1.0000 0.36387  0.57349  0.75774  Biso   1.000  H
  C92      1.0000 0.39025  0.62338  0.68869  Biso   1.000  C
  O29      1.0000 0.25626  0.29957  0.80901  Biso   1.000  O
  O30      1.0000 0.34196  0.24388  0.75401  Biso   1.000  O
  C93      1.0000 0.61637  0.57518  0.99932  Biso   1.000  C
  C94      1.0000 0.67333  0.49663  0.06965  Biso   1.000  C
  C95      1.0000 0.76261  0.56273  0.01654  Biso   1.000  C
  O31      1.0000 0.96657  0.74689  0.85170  Biso   1.000  O
  O32      1.0000 0.90368  0.63777  0.76119  Biso   1.000  O
  C96      1.0000 0.88836  0.24256  0.91071  Biso   1.000  C
  C97      1.0000 0.92136  0.36027  0.01615  Biso   1.000  C
  C98      1.0000 0.01099  0.33988  0.93752  Biso   1.000  C
  C99      1.0000 0.50537  0.72117  0.79313  Biso   1.000  C
  H63      1.0000 0.55523  0.66598  0.71951  Biso   1.000  H
  C100     1.0000 0.60407  0.77640  0.91673  Biso   1.000  C
  O33      1.0000 0.74124  0.75527  0.94359  Biso   1.000  O
  C101     1.0000 0.70672  0.69989  0.60059  Biso   1.000  C
  H64      1.0000 0.65191  0.74326  0.67950  Biso   1.000  H
  H65      1.0000 0.74786  0.76320  0.71293  Biso   1.000  H
  C102     1.0000 0.17702  0.38829  0.15420  Biso   1.000  C
  C103     1.0000 0.31331  0.45239  0.21673  Biso   1.000  C
  C104     1.0000 0.14682  0.41538  0.68752  Biso   1.000  C
  C105     1.0000 0.95609  0.05307  0.37399  Biso   1.000  C
  H66      1.0000 0.17331  0.10548  0.17632  Biso   1.000  H
  H67      1.0000 0.14320  0.03107  0.10928  Biso   1.000  H
  H68      1.0000 0.11520  0.04160  0.17900  Biso   1.000  H
  H69      1.0000 0.31693  0.10449  0.19561  Biso   1.000  H
  H70      1.0000 0.35839  0.04168  0.21472  Biso   1.000  H
  H71      1.0000 0.30464  0.02908  0.13252  Biso   1.000  H
  H72      1.0000 0.17299  0.92898  0.19282  Biso   1.000  H
  H73      1.0000 0.21339  0.91910  0.13068  Biso   1.000  H
  H74      1.0000 0.26733  0.93117  0.21272  Biso   1.000  H
  C106     1.0000 0.20861  0.17962  0.03650  Biso   1.000  C
  C107     1.0000 0.66249  0.21731  0.00279  Biso   1.000  C
  C108     1.0000 0.49992  0.58219  0.28249  Biso   1.000  C
  C109     1.0000 0.57340  0.62312  0.21511  Biso   1.000  C
  C110     1.0000 0.78575  0.66530  0.37723  Biso   1.000  C
  C111     1.0000 0.68682  0.67523  0.43652  Biso   1.000  C
  H75      1.0000 0.56701  0.04130  0.03149  Biso   1.000  H
  H76      1.0000 0.66080  0.04202  0.04843  Biso   1.000  H
  H77      1.0000 0.59909  0.96748  0.01499  Biso   1.000  H
  H78      1.0000 0.73696  0.00222  0.15102  Biso   1.000  H
  H79      1.0000 0.67343  0.93037  0.12740  Biso   1.000  H
  H80      1.0000 0.69553  0.98928  0.20709  Biso   1.000  H
  H81      1.0000 0.49741  0.01399  0.11279  Biso   1.000  H
  H82      1.0000 0.54538  0.99657  0.18318  Biso   1.000  H
  H83      1.0000 0.52328  0.93771  0.10349  Biso   1.000  H
  C112     1.0000 0.41564  0.70227  0.74219  Biso   1.000  C
  H84      1.0000 0.42472  0.61590  0.65771  Biso   1.000  H
  H85      1.0000 0.33462  0.61687  0.65620  Biso   1.000  H
  C113     1.0000 0.19891  0.23048  0.79179  Biso   1.000  C
  H86      1.0000 0.56399  0.55059  0.99453  Biso   1.000  H
  H87      1.0000 0.61255  0.58629  0.95513  Biso   1.000  H
  H88      1.0000 0.63316  0.61964  0.04156  Biso   1.000  H
  H89      1.0000 0.61763  0.47503  0.05906  Biso   1.000  H
  H90      1.0000 0.70695  0.46037  0.07116  Biso   1.000  H
  H91      1.0000 0.69195  0.53576  0.11697  Biso   1.000  H
  H92      1.0000 0.75936  0.57268  0.97179  Biso   1.000  H
  H93      1.0000 0.80086  0.53085  0.02368  Biso   1.000  H
  H94      1.0000 0.78057  0.60776  0.05834  Biso   1.000  H
  C114     1.0000 0.01008  0.77160  0.80639  Biso   1.000  C
  H95      1.0000 0.89144  0.21947  0.86190  Biso   1.000  H
  H96      1.0000 0.91804  0.22028  0.94410  Biso   1.000  H
  H97      1.0000 0.83216  0.23679  0.90821  Biso   1.000  H
  H98      1.0000 0.86623  0.34906  0.01526  Biso   1.000  H
  H99      1.0000 0.95698  0.34206  0.05037  Biso   1.000  H
  H100     1.0000 0.93813  0.41227  0.03176  Biso   1.000  H
  H101     1.0000 0.01137  0.31628  0.88781  Biso   1.000  H
  H102     1.0000 0.02886  0.39167  0.95234  Biso   1.000  H
  H103     1.0000 0.04707  0.32136  0.97112  Biso   1.000  H
  C115     1.0000 0.52745  0.76471  0.86803  Biso   1.000  C
  H104     1.0000 0.61610  0.80368  0.96683  Biso   1.000  H
  C116     1.0000 0.79150  0.82038  0.96354  Biso   1.000  C
  C117     1.0000 0.71875  0.76108  0.57133  Biso   1.000  C
  H105     1.0000 0.75166  0.67368  0.60003  Biso   1.000  H
  H106     1.0000 0.65687  0.66593  0.56704  Biso   1.000  H
  C118     1.0000 0.15191  0.44952  0.14289  Biso   1.000  C
  O34      1.0000 0.11760  0.32415  0.12767  Biso   1.000  O
  C119     1.0000 0.29045  0.51662  0.21132  Biso   1.000  C
  H107     1.0000 0.36822  0.45307  0.23969  Biso   1.000  H
  O35      1.0000 0.11227  0.41911  0.73963  Biso   1.000  O
  O36      1.0000 0.14436  0.45310  0.65074  Biso   1.000  O
  C120     1.0000 0.99769  0.98997  0.38241  Biso   1.000  C
  C121     1.0000 0.91213  0.07869  0.42989  Biso   1.000  C
  C122     1.0000 0.89729  0.03986  0.29508  Biso   1.000  C
  O37      1.0000 0.21950  0.14119  0.07362  Biso   1.000  O
  O38      1.0000 0.14988  0.17251  0.97542  Biso   1.000  O
  C123     1.0000 0.72593  0.28238  0.06230  Biso   1.000  C
  C124     1.0000 0.61089  0.23102  0.93563  Biso   1.000  C
  C125     1.0000 0.70484  0.15413  0.98055  Biso   1.000  C
  C126     1.0000 0.42801  0.59932  0.24303  Biso   1.000  C
  H108     1.0000 0.49862  0.56261  0.31899  Biso   1.000  H
  C127     1.0000 0.50412  0.63951  0.17393  Biso   1.000  C
  O39      1.0000 0.64539  0.63391  0.19917  Biso   1.000  O
  C128     1.0000 0.84046  0.72019  0.43680  Biso   1.000  C
  O40      1.0000 0.81239  0.63881  0.31492  Biso   1.000  O
  C129     1.0000 0.74011  0.73139  0.50011  Biso   1.000  C
  H109     1.0000 0.63443  0.66061  0.43602  Biso   1.000  H
  H110     1.0000 0.38234  0.70788  0.77479  Biso   1.000  H
  C130     1.0000 0.39227  0.75253  0.69744  Biso   1.000  C
  C131     1.0000 0.16545  0.19190  0.70909  Biso   1.000  C
  C132     1.0000 0.13406  0.26090  0.82294  Biso   1.000  C
  C133     1.0000 0.24606  0.18777  0.83810  Biso   1.000  C
  C134     1.0000 0.94589  0.77800  0.73673  Biso   1.000  C
  C135     1.0000 0.06725  0.72131  0.78544  Biso   1.000  C
  C136     1.0000 0.05968  0.84491  0.86123  Biso   1.000  C
  O41      1.0000 0.46895  0.79830  0.89494  Biso   1.000  O
  O42      1.0000 0.78055  0.85880  0.92643  Biso   1.000  O
  O43      1.0000 0.85020  0.82747  0.02457  Biso   1.000  O
  C137     1.0000 0.64957  0.80388  0.56453  Biso   1.000  C
  H111     1.0000 0.76732  0.79588  0.60839  Biso   1.000  H
  C138     1.0000 0.20820  0.51358  0.17159  Biso   1.000  C
  H112     1.0000 0.09780  0.44779  0.11642  Biso   1.000  H
  C139     1.0000 0.08302  0.31679  0.17878  Biso   1.000  C
  C140     1.0000 0.34784  0.59111  0.25752  Biso   1.000  C
  C141     1.0000 0.06453  0.47570  0.76041  Biso   1.000  C
  H113     1.0000 0.03290  0.00277  0.43301  Biso   1.000  H
  H114     1.0000 0.95725  0.94770  0.36993  Biso   1.000  H
  H115     1.0000 0.02953  0.97961  0.34970  Biso   1.000  H
  H116     1.0000 0.94853  0.08721  0.47921  Biso   1.000  H
  H117     1.0000 0.89419  0.12320  0.42749  Biso   1.000  H
  H118     1.0000 0.86564  0.04188  0.41841  Biso   1.000  H
  H119     1.0000 0.92483  0.02299  0.25953  Biso   1.000  H
  H120     1.0000 0.85043  0.00371  0.28388  Biso   1.000  H
  H121     1.0000 0.88029  0.08468  0.29269  Biso   1.000  H
  C142     1.0000 0.08350  0.10542  0.94176  Biso   1.000  C
  H122     1.0000 0.75540  0.26779  0.10260  Biso   1.000  H
  H123     1.0000 0.69891  0.32121  0.08058  Biso   1.000  H
  H124     1.0000 0.76319  0.29892  0.04102  Biso   1.000  H
  H125     1.0000 0.57352  0.18684  0.90186  Biso   1.000  H
  H126     1.0000 0.64534  0.24653  0.91134  Biso   1.000  H
  H127     1.0000 0.58083  0.26844  0.95085  Biso   1.000  H
  H128     1.0000 0.73782  0.14659  0.02441  Biso   1.000  H
  H129     1.0000 0.73900  0.16480  0.95363  Biso   1.000  H
  H130     1.0000 0.66471  0.11082  0.94945  Biso   1.000  H
  C143     1.0000 0.43284  0.62562  0.18753  Biso   1.000  C
  H131     1.0000 0.50560  0.65964  0.13782  Biso   1.000  H
  C144     1.0000 0.68091  0.70520  0.21489  Biso   1.000  C
  C145     1.0000 0.81691  0.75170  0.49821  Biso   1.000  C
  H132     1.0000 0.89195  0.73610  0.43613  Biso   1.000  H
  C146     1.0000 0.85323  0.58462  0.31253  Biso   1.000  C
  C147     1.0000 0.42194  0.75301  0.63954  Biso   1.000  C
  C148     1.0000 0.33044  0.79168  0.70441  Biso   1.000  C
  H133     1.0000 0.20808  0.17340  0.69153  Biso   1.000  H
  H134     1.0000 0.12218  0.15201  0.69744  Biso   1.000  H
  H135     1.0000 0.14465  0.22545  0.68529  Biso   1.000  H
  H136     1.0000 0.15775  0.28517  0.87594  Biso   1.000  H
  H137     1.0000 0.11286  0.29516  0.80032  Biso   1.000  H
  H138     1.0000 0.09055  0.22166  0.81230  Biso   1.000  H
  H139     1.0000 0.26498  0.21748  0.88993  Biso   1.000  H
  H140     1.0000 0.21052  0.14376  0.83030  Biso   1.000  H
  H141     1.0000 0.29193  0.17539  0.82272  Biso   1.000  H
  H142     1.0000 0.91133  0.81080  0.75250  Biso   1.000  H
  H143     1.0000 0.97357  0.79640  0.70892  Biso   1.000  H
  H144     1.0000 0.91304  0.73066  0.70569  Biso   1.000  H
  H145     1.0000 0.03599  0.67460  0.75072  Biso   1.000  H
  H146     1.0000 0.10004  0.74210  0.76281  Biso   1.000  H
  H147     1.0000 0.10205  0.71508  0.82924  Biso   1.000  H
  H148     1.0000 0.02358  0.87708  0.87444  Biso   1.000  H
  H149     1.0000 0.09417  0.83862  0.90514  Biso   1.000  H
  H150     1.0000 0.09280  0.86561  0.83894  Biso   1.000  H
  C149     1.0000 0.43438  0.76468  0.93234  Biso   1.000  C
  C150     1.0000 0.91654  0.89458  0.05828  Biso   1.000  C
  C151     1.0000 0.56776  0.77211  0.54352  Biso   1.000  C
  C152     1.0000 0.66636  0.87870  0.58320  Biso   1.000  C
  O44      1.0000 0.18630  0.58013  0.16880  Biso   1.000  O
  O45      1.0000 0.03351  0.25309  0.14829  Biso   1.000  O
  O46      1.0000 0.09640  0.36221  0.23880  Biso   1.000  O
  H151     1.0000 0.31909  0.62812  0.24320  Biso   1.000  H
  C153     1.0000 0.35664  0.60561  0.33989  Biso   1.000  C
  C154     1.0000 0.12215  0.54807  0.79770  Biso   1.000  C
  C155     1.0000 0.03486  0.45476  0.81692  Biso   1.000  C
  C156     1.0000 0.99445  0.47437  0.69332  Biso   1.000  C
  C157     1.0000 0.03472  0.11361  0.86926  Biso   1.000  C
  C158     1.0000 0.03631  0.10814  0.99376  Biso   1.000  C
  C159     1.0000 0.12374  0.03873  0.92588  Biso   1.000  C
  O47      1.0000 0.36138  0.64259  0.14534  Biso   1.000  O
  O48      1.0000 0.74382  0.70041  0.19098  Biso   1.000  O
  O49      1.0000 0.65813  0.75610  0.24599  Biso   1.000  O
  O50      1.0000 0.87492  0.80297  0.56336  Biso   1.000  O
  O51      1.0000 0.88783  0.58089  0.26042  Biso   1.000  O
  O52      1.0000 0.85574  0.54690  0.34931  Biso   1.000  O
  C160     1.0000 0.38963  0.78501  0.58799  Biso   1.000  C
  H152     1.0000 0.46612  0.73038  0.63569  Biso   1.000  H
  C161     1.0000 0.29737  0.82588  0.65581  Biso   1.000  C
  O53      1.0000 0.29518  0.79279  0.75991  Biso   1.000  O
  O54      1.0000 0.39073  0.80846  0.96104  Biso   1.000  O
  O55      1.0000 0.44445  0.70570  0.93390  Biso   1.000  O
  C162     1.0000 0.96538  0.88638  0.13079  Biso   1.000  C
  C163     1.0000 0.96374  0.89185  0.00629  Biso   1.000  C
  C164     1.0000 0.87636  0.96127  0.07417  Biso   1.000  C
  C165     1.0000 0.50492  0.81149  0.53962  Biso   1.000  C
  H153     1.0000 0.55455  0.72178  0.53159  Biso   1.000  H
  C166     1.0000 0.60452  0.91881  0.57590  Biso   1.000  C
  O56      1.0000 0.74753  0.91410  0.60660  Biso   1.000  O
  C167     1.0000 0.13019  0.58194  0.10622  Biso   1.000  C
  C168     1.0000 0.99000  0.22838  0.19360  Biso   1.000  C
  C169     1.0000 0.39802  0.68303  0.39133  Biso   1.000  C
  H154     1.0000 0.30285  0.59578  0.34351  Biso   1.000  H
  H155     1.0000 0.38794  0.57181  0.35683  Biso   1.000  H
  H156     1.0000 0.16555  0.54619  0.83921  Biso   1.000  H
  H157     1.0000 0.14455  0.55879  0.76270  Biso   1.000  H
  H158     1.0000 0.09317  0.58559  0.81514  Biso   1.000  H
  H159     1.0000 0.08097  0.45739  0.85861  Biso   1.000  H
  H160     1.0000 0.00106  0.48785  0.83370  Biso   1.000  H
  H161     1.0000 0.00373  0.40588  0.79424  Biso   1.000  H
  H162     1.0000 0.01597  0.48829  0.65943  Biso   1.000  H
  H163     1.0000 0.96213  0.42597  0.66863  Biso   1.000  H
  H164     1.0000 0.96094  0.50800  0.70959  Biso   1.000  H
  H165     1.0000 0.98779  0.07501  0.84385  Biso   1.000  H
  H166     1.0000 0.06821  0.11106  0.83828  Biso   1.000  H
  H167     1.0000 0.01753  0.15993  0.87963  Biso   1.000  H
  H168     1.0000 0.01311  0.15158  0.00139  Biso   1.000  H
  H169     1.0000 0.07201  0.10860  0.04063  Biso   1.000  H
  H170     1.0000 0.99334  0.06594  0.97264  Biso   1.000  H
  H171     1.0000 0.08256  0.99514  0.90326  Biso   1.000  H
  H172     1.0000 0.15321  0.04091  0.89256  Biso   1.000  H
  H173     1.0000 0.16080  0.03804  0.97163  Biso   1.000  H
  C170     1.0000 0.31981  0.59189  0.07752  Biso   1.000  C
  C171     1.0000 0.80111  0.76950  0.20820  Biso   1.000  C
  C172     1.0000 0.92106  0.85629  0.55439  Biso   1.000  C
  C173     1.0000 0.93552  0.52430  0.23963  Biso   1.000  C
  C174     1.0000 0.41512  0.77557  0.51889  Biso   1.000  C
  C175     1.0000 0.32484  0.82080  0.59663  Biso   1.000  C
  H174     1.0000 0.25665  0.85238  0.66261  Biso   1.000  H
  C176     1.0000 0.30056  0.85808  0.81213  Biso   1.000  C
  C177     1.0000 0.33753  0.78267  0.99720  Biso   1.000  C
  H175     1.0000 0.93184  0.88894  0.16177  Biso   1.000  H
  H176     1.0000 0.98256  0.84005  0.12036  Biso   1.000  H
  H177     1.0000 0.01229  0.92497  0.15614  Biso   1.000  H
  H178     1.0000 0.98697  0.84840  0.99860  Biso   1.000  H
  H179     1.0000 0.92810  0.89140  0.95942  Biso   1.000  H
  H180     1.0000 0.00668  0.93404  0.02735  Biso   1.000  H
  H181     1.0000 0.84684  0.95909  0.10749  Biso   1.000  H
  H182     1.0000 0.83923  0.96194  0.02836  Biso   1.000  H
  H183     1.0000 0.91749  0.00486  0.09679  Biso   1.000  H
  C178     1.0000 0.52562  0.88499  0.55472  Biso   1.000  C
  H184     1.0000 0.61697  0.96870  0.58532  Biso   1.000  H
  C179     1.0000 0.78724  0.94832  0.68134  Biso   1.000  C
  O57      1.0000 0.12980  0.65283  0.11837  Biso   1.000  O
  O58      1.0000 0.09090  0.53079  0.05328  Biso   1.000  O
  C180     1.0000 0.05421  0.22200  0.26332  Biso   1.000  C
  C181     1.0000 0.93280  0.27869  0.21461  Biso   1.000  C
  C182     1.0000 0.94042  0.15509  0.13882  Biso   1.000  C
  C183     1.0000 0.39254  0.69617  0.46929  Biso   1.000  C
  H185     1.0000 0.37195  0.71749  0.37110  Biso   1.000  H
  H186     1.0000 0.45496  0.69081  0.39461  Biso   1.000  H
  O59      1.0000 0.35459  0.53499  0.06269  Biso   1.000  O
  O60      1.0000 0.25968  0.60451  0.03968  Biso   1.000  O
  C184     1.0000 0.83463  0.80808  0.29090  Biso   1.000  C
  C185     1.0000 0.86604  0.73910  0.17711  Biso   1.000  C
  C186     1.0000 0.75402  0.81221  0.16189  Biso   1.000  C
  O61      1.0000 0.98196  0.88592  0.61781  Biso   1.000  O
  O62      1.0000 0.90717  0.87289  0.50033  Biso   1.000  O
  C187     1.0000 0.87794  0.45191  0.20229  Biso   1.000  C
  C188     1.0000 0.96525  0.54523  0.18312  Biso   1.000  C
  C189     1.0000 0.00565  0.52563  0.30673  Biso   1.000  C
  H187     1.0000 0.38184  0.80197  0.49080  Biso   1.000  H
  O63      1.0000 0.28583  0.85127  0.54419  Biso   1.000  O
  O64      1.0000 0.36385  0.90448  0.82155  Biso   1.000  O
  O65      1.0000 0.25124  0.86618  0.84434  Biso   1.000  O
  C190     1.0000 0.27417  0.71761  0.93774  Biso   1.000  C
  C191     1.0000 0.38913  0.76896  0.06436  Biso   1.000  C
  C192     1.0000 0.29524  0.84585  0.01944  Biso   1.000  C
  O66      1.0000 0.46212  0.92499  0.54229  Biso   1.000  O
  O67      1.0000 0.73964  0.93701  0.71895  Biso   1.000  O
  O68      1.0000 0.85515  0.98112  0.70340  Biso   1.000  O
  C193     1.0000 0.07432  0.67522  0.06058  Biso   1.000  C
  H188     1.0000 0.08869  0.18918  0.24749  Biso   1.000  H
  H189     1.0000 0.02653  0.20359  0.29113  Biso   1.000  H
  H190     1.0000 0.08704  0.26927  0.29430  Biso   1.000  H
  H191     1.0000 0.96411  0.32539  0.24933  Biso   1.000  H
  H192     1.0000 0.89999  0.25788  0.23718  Biso   1.000  H
  H193     1.0000 0.89799  0.28492  0.17081  Biso   1.000  H
  H194     1.0000 0.97652  0.12291  0.12561  Biso   1.000  H
  H195     1.0000 0.90587  0.16138  0.09491  Biso   1.000  H
  H196     1.0000 0.90730  0.13439  0.16111  Biso   1.000  H
  H197     1.0000 0.33712  0.67721  0.46433  Biso   1.000  H
  H198     1.0000 0.42845  0.66901  0.49309  Biso   1.000  H
  C194     1.0000 0.32151  0.47391  0.99014  Biso   1.000  C
  H199     1.0000 0.79202  0.82660  0.30851  Biso   1.000  H
  H200     1.0000 0.87793  0.84799  0.30261  Biso   1.000  H
  H201     1.0000 0.85543  0.77453  0.31470  Biso   1.000  H
  H202     1.0000 0.84230  0.71483  0.12411  Biso   1.000  H
  H203     1.0000 0.88724  0.70483  0.19973  Biso   1.000  H
  H204     1.0000 0.90953  0.77832  0.18769  Biso   1.000  H
  H205     1.0000 0.73513  0.78252  0.11012  Biso   1.000  H
  H206     1.0000 0.78950  0.85622  0.16969  Biso   1.000  H
  H207     1.0000 0.70811  0.82461  0.17733  Biso   1.000  H
  C195     1.0000 0.04394  0.94691  0.62600  Biso   1.000  C
  H208     1.0000 0.83454  0.45379  0.16078  Biso   1.000  H
  H209     1.0000 0.85554  0.44119  0.23729  Biso   1.000  H
  H210     1.0000 0.90693  0.41441  0.18491  Biso   1.000  H
  H211     1.0000 0.91911  0.54259  0.14138  Biso   1.000  H
  H212     1.0000 0.99901  0.51207  0.16629  Biso   1.000  H
  H213     1.0000 0.99631  0.59412  0.20581  Biso   1.000  H
  H214     1.0000 0.98414  0.51171  0.34061  Biso   1.000  H
  H215     1.0000 0.03792  0.57403  0.33142  Biso   1.000  H
  H216     1.0000 0.03914  0.49198  0.29040  Biso   1.000  H
  C196     1.0000 0.22402  0.79991  0.48283  Biso   1.000  C
  C197     1.0000 0.38083  0.98117  0.87371  Biso   1.000  C
  H217     1.0000 0.24462  0.73219  0.89740  Biso   1.000  H
  H218     1.0000 0.30118  0.67877  0.91941  Biso   1.000  H
  H219     1.0000 0.23685  0.70108  0.95903  Biso   1.000  H
  H220     1.0000 0.42658  0.81315  0.09818  Biso   1.000  H
  H221     1.0000 0.35474  0.75345  0.08866  Biso   1.000  H
  H222     1.0000 0.41926  0.73154  0.04914  Biso   1.000  H
  H223     1.0000 0.26228  0.85340  0.97564  Biso   1.000  H
  H224     1.0000 0.26102  0.83518  0.04636  Biso   1.000  H
  H225     1.0000 0.33534  0.88918  0.05059  Biso   1.000  H
  C198     1.0000 0.46037  0.98291  0.59752  Biso   1.000  C
  C199     1.0000 0.76517  0.97548  0.80059  Biso   1.000  C
  C200     1.0000 0.11172  0.75741  0.08928  Biso   1.000  C
  C201     1.0000 0.98911  0.66011  0.06253  Biso   1.000  C
  C202     1.0000 0.07872  0.63971  0.98384  Biso   1.000  C
  C203     1.0000 0.38373  0.42482  0.00072  Biso   1.000  C
  C204     1.0000 0.32669  0.50335  0.93034  Biso   1.000  C
  C205     1.0000 0.23741  0.43720  0.98345  Biso   1.000  C
  C206     1.0000 0.08795  0.92129  0.57010  Biso   1.000  C
  C207     1.0000 0.10274  0.96012  0.70491  Biso   1.000  C
  C208     1.0000 0.00235  0.01002  0.61764  Biso   1.000  C
  O69      1.0000 0.19985  0.83582  0.43552  Biso   1.000  O
  O70      1.0000 0.20043  0.74062  0.47720  Biso   1.000  O
  C209     1.0000 0.38934  0.98276  0.95190  Biso   1.000  C
  C210     1.0000 0.31252  0.01817  0.84440  Biso   1.000  C
  C211     1.0000 0.46103  0.01099  0.86803  Biso   1.000  C
  O71      1.0000 0.50817  0.00361  0.65893  Biso   1.000  O
  O72      1.0000 0.39835  0.01252  0.57311  Biso   1.000  O
  C212     1.0000 0.84056  0.94662  0.83754  Biso   1.000  C
  C213     1.0000 0.68913  0.94737  0.81592  Biso   1.000  C
  C214     1.0000 0.77914  0.05628  0.81759  Biso   1.000  C
  H226     1.0000 0.10858  0.78051  0.13810  Biso   1.000  H
  H227     1.0000 0.08198  0.77970  0.05590  Biso   1.000  H
  H228     1.0000 0.16792  0.76319  0.09178  Biso   1.000  H
  H229     1.0000 0.98871  0.68370  0.11218  Biso   1.000  H
  H230     1.0000 0.97119  0.60833  0.04770  Biso   1.000  H
  H231     1.0000 0.95304  0.67864  0.02892  Biso   1.000  H
  H232     1.0000 0.13380  0.65092  0.98473  Biso   1.000  H
  H233     1.0000 0.04312  0.65794  0.94968  Biso   1.000  H
  H234     1.0000 0.06190  0.58771  0.96823  Biso   1.000  H
  H235     1.0000 0.43611  0.44941  0.00552  Biso   1.000  H
  H236     1.0000 0.38750  0.41371  0.04492  Biso   1.000  H
  H237     1.0000 0.36694  0.38036  0.95848  Biso   1.000  H
  H238     1.0000 0.38239  0.52489  0.94093  Biso   1.000  H
  H239     1.0000 0.29313  0.53961  0.92883  Biso   1.000  H
  H240     1.0000 0.30813  0.46422  0.88303  Biso   1.000  H
  H241     1.0000 0.24073  0.42730  0.02820  Biso   1.000  H
  H242     1.0000 0.19924  0.46915  0.97637  Biso   1.000  H
  H243     1.0000 0.21951  0.39222  0.94165  Biso   1.000  H
  H244     1.0000 0.05158  0.91279  0.52084  Biso   1.000  H
  H245     1.0000 0.10583  0.87678  0.57250  Biso   1.000  H
  H246     1.0000 0.13446  0.95812  0.58164  Biso   1.000  H
  H247     1.0000 0.07528  0.97701  0.74052  Biso   1.000  H
  H248     1.0000 0.14965  0.99627  0.71611  Biso   1.000  H
  H249     1.0000 0.11973  0.91530  0.70731  Biso   1.000  H
  H250     1.0000 0.96715  0.99723  0.56704  Biso   1.000  H
  H251     1.0000 0.97055  0.02037  0.65030  Biso   1.000  H
  H252     1.0000 0.04285  0.05230  0.63012  Biso   1.000  H
  C215     1.0000 0.13774  0.79491  0.36173  Biso   1.000  C
  H253     1.0000 0.43308  0.95868  0.96850  Biso   1.000  H
  H254     1.0000 0.33925  0.95798  0.95162  Biso   1.000  H
  H255     1.0000 0.40093  0.03250  0.98500  Biso   1.000  H
  H256     1.0000 0.26314  0.99778  0.84902  Biso   1.000  H
  H257     1.0000 0.32665  0.06961  0.87260  Biso   1.000  H
  H258     1.0000 0.30455  0.01070  0.79290  Biso   1.000  H
  H259     1.0000 0.50267  0.98599  0.88720  Biso   1.000  H
  H260     1.0000 0.45464  0.00341  0.81681  Biso   1.000  H
  H261     1.0000 0.47674  0.06227  0.89650  Biso   1.000  H
  C216     1.0000 0.37753  0.07673  0.62143  Biso   1.000  C
  H262     1.0000 0.82679  0.89447  0.82372  Biso   1.000  H
  H263     1.0000 0.85688  0.96890  0.89071  Biso   1.000  H
  H264     1.0000 0.88488  0.95838  0.82099  Biso   1.000  H
  H265     1.0000 0.68317  0.89550  0.80444  Biso   1.000  H
  H266     1.0000 0.64165  0.95827  0.78533  Biso   1.000  H
  H267     1.0000 0.69546  0.97091  0.86752  Biso   1.000  H
  H268     1.0000 0.82705  0.07102  0.80723  Biso   1.000  H
  H269     1.0000 0.78663  0.08088  0.86931  Biso   1.000  H
  H270     1.0000 0.73277  0.06877  0.78733  Biso   1.000  H
  C217     1.0000 0.13344  0.85501  0.32462  Biso   1.000  C
  C218     1.0000 0.05931  0.77270  0.37271  Biso   1.000  C
  C219     1.0000 0.17292  0.73243  0.32072  Biso   1.000  C
  C220     1.0000 0.43333  0.14232  0.63514  Biso   1.000  C
  C221     1.0000 0.29557  0.08402  0.57400  Biso   1.000  C
  C222     1.0000 0.36523  0.06010  0.68769  Biso   1.000  C
  H271     1.0000 0.18511  0.86741  0.31910  Biso   1.000  H
  H272     1.0000 0.09171  0.83651  0.27652  Biso   1.000  H
  H273     1.0000 0.12073  0.89768  0.35549  Biso   1.000  H
  H274     1.0000 0.06522  0.73591  0.39528  Biso   1.000  H
  H275     1.0000 0.04614  0.81452  0.40453  Biso   1.000  H
  H276     1.0000 0.01642  0.75351  0.32529  Biso   1.000  H
  H277     1.0000 0.17441  0.69539  0.34301  Biso   1.000  H
  H278     1.0000 0.13905  0.71180  0.26922  Biso   1.000  H
  H279     1.0000 0.22724  0.75070  0.32412  Biso   1.000  H
  H280     1.0000 0.43405  0.14571  0.58844  Biso   1.000  H
  H281     1.0000 0.48722  0.14051  0.66400  Biso   1.000  H
  H282     1.0000 0.41577  0.18428  0.66183  Biso   1.000  H
  H283     1.0000 0.25525  0.04232  0.56380  Biso   1.000  H
  H284     1.0000 0.29946  0.08670  0.52792  Biso   1.000  H
  H285     1.0000 0.28001  0.12771  0.60020  Biso   1.000  H
  H286     1.0000 0.32474  0.01648  0.66991  Biso   1.000  H
  H287     1.0000 0.34743  0.10018  0.71711  Biso   1.000  H
  H288     1.0000 0.41598  0.05301  0.71773  Biso   1.000  H
