data_image0
_cell_length_a       12.604
_cell_length_b       14.931
_cell_length_c       26.889
_cell_angle_alpha    86.07
_cell_angle_beta     79.44
_cell_angle_gamma    87.31

_symmetry_space_group_name_H-M    "P 1"
_symmetry_int_tables_number       1

loop_
  _symmetry_equiv_pos_as_xyz
  'x, y, z'

loop_
  _atom_site_label
  _atom_site_occupancy
  _atom_site_fract_x
  _atom_site_fract_y
  _atom_site_fract_z
  _atom_site_thermal_displace_type
  _atom_site_B_iso_or_equiv
  _atom_site_type_symbol
  C1       1.0000 0.62625  0.52373  0.51682  Biso   1.000  C
  N1       1.0000 0.64113  0.56979  0.47221  Biso   1.000  N
  N2       1.0000 0.61651  0.57740  0.55620  Biso   1.000  N
  O1       1.0000 0.62257  0.43970  0.52133  Biso   1.000  O
  C2       1.0000 0.64680  0.53424  0.42400  Biso   1.000  C
  C3       1.0000 0.63120  0.66423  0.47991  Biso   1.000  C
  C4       1.0000 0.61768  0.67290  0.53922  Biso   1.000  C
  C5       1.0000 0.59765  0.54579  0.60794  Biso   1.000  C
  H1       1.0000 0.61748  0.47470  0.42893  Biso   1.000  H
  H2       1.0000 0.60182  0.57185  0.40482  Biso   1.000  H
  N3       1.0000 0.75330  0.52844  0.39512  Biso   1.000  N
  H3       1.0000 0.56919  0.69214  0.46672  Biso   1.000  H
  N4       1.0000 0.72897  0.71679  0.46262  Biso   1.000  N
  H4       1.0000 0.55017  0.70501  0.55290  Biso   1.000  H
  N5       1.0000 0.70922  0.71832  0.54582  Biso   1.000  N
  N6       1.0000 0.69418  0.53581  0.63132  Biso   1.000  N
  H5       1.0000 0.54659  0.58711  0.62693  Biso   1.000  H
  H6       1.0000 0.56415  0.48803  0.61070  Biso   1.000  H
  C6       1.0000 0.81032  0.45195  0.38883  Biso   1.000  C
  C7       1.0000 0.80281  0.60192  0.36052  Biso   1.000  C
  C8       1.0000 0.76994  0.73880  0.40911  Biso   1.000  C
  C9       1.0000 0.76871  0.74529  0.50162  Biso   1.000  C
  C10      1.0000 0.72959  0.74270  0.59433  Biso   1.000  C
  C11      1.0000 0.74799  0.45697  0.63742  Biso   1.000  C
  C12      1.0000 0.73555  0.60750  0.65414  Biso   1.000  C
  N7       1.0000 0.90589  0.46486  0.35563  Biso   1.000  N
  O2       1.0000 0.78278  0.37665  0.40930  Biso   1.000  O
  H7       1.0000 0.75645  0.62496  0.33660  Biso   1.000  H
  C13      1.0000 0.90927  0.55584  0.33342  Biso   1.000  C
  N8       1.0000 0.84179  0.67254  0.38512  Biso   1.000  N
  H8       1.0000 0.80665  0.79515  0.40581  Biso   1.000  H
  H9       1.0000 0.70912  0.74761  0.39152  Biso   1.000  H
  O3       1.0000 0.84923  0.79362  0.49681  Biso   1.000  O
  H10      1.0000 0.77029  0.79719  0.58902  Biso   1.000  H
  H11      1.0000 0.66086  0.75620  0.61582  Biso   1.000  H
  N9       1.0000 0.78578  0.67759  0.61980  Biso   1.000  N
  N10      1.0000 0.83134  0.47079  0.66092  Biso   1.000  N
  O4       1.0000 0.72299  0.38529  0.62571  Biso   1.000  O
  C14      1.0000 0.83087  0.56067  0.67612  Biso   1.000  C
  H12      1.0000 0.68086  0.63216  0.68093  Biso   1.000  H
  C15      1.0000 0.97321  0.39626  0.33221  Biso   1.000  C
  H13      1.0000 0.91317  0.55754  0.29662  Biso   1.000  H
  N11      1.0000 0.99235  0.60934  0.34710  Biso   1.000  N
  C16      1.0000 0.95143  0.67826  0.37500  Biso   1.000  C
  C17      1.0000 0.88890  0.68240  0.62120  Biso   1.000  C
  C18      1.0000 0.89677  0.39751  0.68014  Biso   1.000  C
  N12      1.0000 0.92291  0.61309  0.65080  Biso   1.000  N
  H14      1.0000 0.81994  0.56277  0.71311  Biso   1.000  H
  H15      1.0000 0.93660  0.33984  0.33929  Biso   1.000  H
  H16      1.0000 0.98580  0.40926  0.29571  Biso   1.000  H
  N13      1.0000 0.07713  0.38671  0.34922  Biso   1.000  N
  C19      1.0000 0.10317  0.60235  0.31992  Biso   1.000  C
  O5       1.0000 0.00611  0.73621  0.38781  Biso   1.000  O
  O6       1.0000 0.95072  0.74092  0.59842  Biso   1.000  O
  H17      1.0000 0.89795  0.40555  0.71554  Biso   1.000  H
  H18      1.0000 0.86224  0.34130  0.67843  Biso   1.000  H
  N14      1.0000 0.00769  0.39046  0.65293  Biso   1.000  N
  C20      1.0000 0.02675  0.60361  0.66782  Biso   1.000  C
  C21      1.0000 0.16908  0.43913  0.32390  Biso   1.000  C
  C22      1.0000 0.11106  0.31746  0.37882  Biso   1.000  C
  H19      1.0000 0.10199  0.59425  0.28453  Biso   1.000  H
  H20      1.0000 0.13772  0.65856  0.32159  Biso   1.000  H
  N15      1.0000 0.16861  0.52907  0.33910  Biso   1.000  N
  C23      1.0000 0.04852  0.32160  0.62503  Biso   1.000  C
  C24      1.0000 0.09068  0.44396  0.66661  Biso   1.000  C
  H21      1.0000 0.06336  0.65996  0.66073  Biso   1.000  H
  H22      1.0000 0.01415  0.59061  0.70432  Biso   1.000  H
  N16      1.0000 0.09405  0.53500  0.64444  Biso   1.000  N
  H23      1.0000 0.18001  0.43703  0.28691  Biso   1.000  H
  C25      1.0000 0.26439  0.39236  0.34593  Biso   1.000  C
  N17      1.0000 0.21418  0.32220  0.38023  Biso   1.000  N
  O7       1.0000 0.04931  0.25895  0.40160  Biso   1.000  O
  C26      1.0000 0.25205  0.54282  0.36260  Biso   1.000  C
  O8       1.0000 0.99384  0.26358  0.61222  Biso   1.000  O
  N18      1.0000 0.15816  0.32732  0.61491  Biso   1.000  N
  C27      1.0000 0.19714  0.39788  0.63951  Biso   1.000  C
  H24      1.0000 0.08678  0.44226  0.70341  Biso   1.000  H
  C28      1.0000 0.18970  0.54791  0.61123  Biso   1.000  C
  H25      1.0000 0.31910  0.36764  0.31909  Biso   1.000  H
  N19      1.0000 0.30577  0.46405  0.36870  Biso   1.000  N
  C29      1.0000 0.27036  0.25716  0.40570  Biso   1.000  C
  O9       1.0000 0.27704  0.61451  0.37431  Biso   1.000  O
  C30      1.0000 0.23002  0.26099  0.59092  Biso   1.000  C
  N20      1.0000 0.24665  0.47142  0.60490  Biso   1.000  N
  H26      1.0000 0.24358  0.37491  0.66342  Biso   1.000  H
  O10      1.0000 0.21718  0.62321  0.59073  Biso   1.000  O
  C31      1.0000 0.40230  0.45401  0.39213  Biso   1.000  C
  N21      1.0000 0.29074  0.28155  0.45421  Biso   1.000  N
  H27      1.0000 0.22966  0.20261  0.41100  Biso   1.000  H
  H28      1.0000 0.33910  0.24366  0.38421  Biso   1.000  H
  N22      1.0000 0.27098  0.28301  0.53740  Biso   1.000  N
  H29      1.0000 0.19338  0.20472  0.59422  Biso   1.000  H
  H30      1.0000 0.29083  0.25219  0.60851  Biso   1.000  H
  C32      1.0000 0.35316  0.46563  0.57602  Biso   1.000  C
  H31      1.0000 0.45336  0.41275  0.37310  Biso   1.000  H
  H32      1.0000 0.43580  0.51184  0.38932  Biso   1.000  H
  N23      1.0000 0.38352  0.42240  0.44382  Biso   1.000  N
  C33      1.0000 0.23125  0.25451  0.49840  Biso   1.000  C
  C34      1.0000 0.38227  0.32690  0.46080  Biso   1.000  C
  C35      1.0000 0.36875  0.33563  0.52012  Biso   1.000  C
  N24      1.0000 0.35891  0.43001  0.52781  Biso   1.000  N
  H33      1.0000 0.38247  0.52509  0.57113  Biso   1.000  H
  H34      1.0000 0.39821  0.42802  0.59520  Biso   1.000  H
  C36      1.0000 0.37371  0.47614  0.48320  Biso   1.000  C
  O11      1.0000 0.15073  0.20618  0.50322  Biso   1.000  O
  H35      1.0000 0.44978  0.29485  0.44712  Biso   1.000  H
  H36      1.0000 0.43076  0.30772  0.53331  Biso   1.000  H
  O12      1.0000 0.37737  0.56010  0.47873  Biso   1.000  O
  C37      1.0000 0.62625  0.52373  0.51682  Biso   1.000  C
  N25      1.0000 0.64113  0.56979  0.47221  Biso   1.000  N
  N26      1.0000 0.61651  0.57740  0.55620  Biso   1.000  N
  O13      1.0000 0.62257  0.43970  0.52133  Biso   1.000  O
  C38      1.0000 0.64680  0.53424  0.42400  Biso   1.000  C
  C39      1.0000 0.63120  0.66423  0.47991  Biso   1.000  C
  C40      1.0000 0.61768  0.67290  0.53922  Biso   1.000  C
  C41      1.0000 0.59765  0.54579  0.60794  Biso   1.000  C
  H37      1.0000 0.61748  0.47470  0.42893  Biso   1.000  H
  H38      1.0000 0.60182  0.57185  0.40482  Biso   1.000  H
  N27      1.0000 0.75330  0.52844  0.39512  Biso   1.000  N
  H39      1.0000 0.56919  0.69214  0.46672  Biso   1.000  H
  N28      1.0000 0.72897  0.71679  0.46262  Biso   1.000  N
  H40      1.0000 0.55017  0.70501  0.55290  Biso   1.000  H
  N29      1.0000 0.70922  0.71832  0.54582  Biso   1.000  N
  N30      1.0000 0.69418  0.53581  0.63132  Biso   1.000  N
  H41      1.0000 0.54659  0.58711  0.62693  Biso   1.000  H
  H42      1.0000 0.56415  0.48803  0.61070  Biso   1.000  H
  C42      1.0000 0.81032  0.45195  0.38883  Biso   1.000  C
  C43      1.0000 0.80281  0.60192  0.36052  Biso   1.000  C
  C44      1.0000 0.76994  0.73880  0.40911  Biso   1.000  C
  C45      1.0000 0.76871  0.74529  0.50162  Biso   1.000  C
  C46      1.0000 0.72959  0.74270  0.59433  Biso   1.000  C
  C47      1.0000 0.74799  0.45697  0.63742  Biso   1.000  C
  C48      1.0000 0.73555  0.60750  0.65414  Biso   1.000  C
  N31      1.0000 0.90589  0.46486  0.35563  Biso   1.000  N
  O14      1.0000 0.78278  0.37665  0.40930  Biso   1.000  O
  H43      1.0000 0.75645  0.62496  0.33660  Biso   1.000  H
  C49      1.0000 0.90927  0.55584  0.33342  Biso   1.000  C
  N32      1.0000 0.84179  0.67254  0.38512  Biso   1.000  N
  H44      1.0000 0.80665  0.79515  0.40581  Biso   1.000  H
  H45      1.0000 0.70912  0.74761  0.39152  Biso   1.000  H
  O15      1.0000 0.84923  0.79362  0.49681  Biso   1.000  O
  H46      1.0000 0.77029  0.79719  0.58902  Biso   1.000  H
  H47      1.0000 0.66086  0.75620  0.61582  Biso   1.000  H
  N33      1.0000 0.78578  0.67759  0.61980  Biso   1.000  N
  N34      1.0000 0.83134  0.47079  0.66092  Biso   1.000  N
  O16      1.0000 0.72299  0.38529  0.62571  Biso   1.000  O
  C50      1.0000 0.83087  0.56067  0.67612  Biso   1.000  C
  H48      1.0000 0.68086  0.63216  0.68093  Biso   1.000  H
  C51      1.0000 0.97321  0.39626  0.33221  Biso   1.000  C
  H49      1.0000 0.91317  0.55754  0.29662  Biso   1.000  H
  N35      1.0000 0.99235  0.60934  0.34710  Biso   1.000  N
  C52      1.0000 0.95143  0.67826  0.37500  Biso   1.000  C
  C53      1.0000 0.88890  0.68240  0.62120  Biso   1.000  C
  C54      1.0000 0.89677  0.39751  0.68014  Biso   1.000  C
  N36      1.0000 0.92291  0.61309  0.65080  Biso   1.000  N
  H50      1.0000 0.81994  0.56277  0.71311  Biso   1.000  H
  H51      1.0000 0.93660  0.33984  0.33929  Biso   1.000  H
  H52      1.0000 0.98580  0.40926  0.29571  Biso   1.000  H
  N37      1.0000 0.07713  0.38671  0.34922  Biso   1.000  N
  C55      1.0000 0.10317  0.60235  0.31992  Biso   1.000  C
  O17      1.0000 0.00611  0.73621  0.38781  Biso   1.000  O
  O18      1.0000 0.95072  0.74092  0.59842  Biso   1.000  O
  H53      1.0000 0.89795  0.40555  0.71554  Biso   1.000  H
  H54      1.0000 0.86224  0.34130  0.67843  Biso   1.000  H
  N38      1.0000 0.00769  0.39046  0.65293  Biso   1.000  N
  C56      1.0000 0.02675  0.60361  0.66782  Biso   1.000  C
  C57      1.0000 0.16908  0.43913  0.32390  Biso   1.000  C
  C58      1.0000 0.11106  0.31746  0.37882  Biso   1.000  C
  H55      1.0000 0.10199  0.59425  0.28453  Biso   1.000  H
  H56      1.0000 0.13772  0.65856  0.32159  Biso   1.000  H
  N39      1.0000 0.16861  0.52907  0.33910  Biso   1.000  N
  C59      1.0000 0.04852  0.32160  0.62503  Biso   1.000  C
  C60      1.0000 0.09068  0.44396  0.66661  Biso   1.000  C
  H57      1.0000 0.06336  0.65996  0.66073  Biso   1.000  H
  H58      1.0000 0.01415  0.59061  0.70432  Biso   1.000  H
  N40      1.0000 0.09405  0.53500  0.64444  Biso   1.000  N
  H59      1.0000 0.18001  0.43703  0.28691  Biso   1.000  H
  C61      1.0000 0.26439  0.39236  0.34593  Biso   1.000  C
  N41      1.0000 0.21418  0.32220  0.38023  Biso   1.000  N
  O19      1.0000 0.04931  0.25895  0.40160  Biso   1.000  O
  C62      1.0000 0.25205  0.54282  0.36260  Biso   1.000  C
  O20      1.0000 0.99384  0.26358  0.61222  Biso   1.000  O
  N42      1.0000 0.15816  0.32732  0.61491  Biso   1.000  N
  C63      1.0000 0.19714  0.39788  0.63951  Biso   1.000  C
  H60      1.0000 0.08678  0.44226  0.70341  Biso   1.000  H
  C64      1.0000 0.18970  0.54791  0.61123  Biso   1.000  C
  H61      1.0000 0.31910  0.36764  0.31909  Biso   1.000  H
  N43      1.0000 0.30577  0.46405  0.36870  Biso   1.000  N
  C65      1.0000 0.27036  0.25716  0.40570  Biso   1.000  C
  O21      1.0000 0.27704  0.61451  0.37431  Biso   1.000  O
  C66      1.0000 0.23002  0.26099  0.59092  Biso   1.000  C
  N44      1.0000 0.24665  0.47142  0.60490  Biso   1.000  N
  H62      1.0000 0.24358  0.37491  0.66342  Biso   1.000  H
  O22      1.0000 0.21718  0.62321  0.59073  Biso   1.000  O
  C67      1.0000 0.40230  0.45401  0.39213  Biso   1.000  C
  N45      1.0000 0.29074  0.28155  0.45421  Biso   1.000  N
  H63      1.0000 0.22966  0.20261  0.41100  Biso   1.000  H
  H64      1.0000 0.33910  0.24366  0.38421  Biso   1.000  H
  N46      1.0000 0.27098  0.28301  0.53740  Biso   1.000  N
  H65      1.0000 0.19338  0.20472  0.59422  Biso   1.000  H
  H66      1.0000 0.29083  0.25219  0.60851  Biso   1.000  H
  C68      1.0000 0.35316  0.46563  0.57602  Biso   1.000  C
  H67      1.0000 0.45336  0.41275  0.37310  Biso   1.000  H
  H68      1.0000 0.43580  0.51184  0.38932  Biso   1.000  H
  N47      1.0000 0.38352  0.42240  0.44382  Biso   1.000  N
  C69      1.0000 0.23125  0.25451  0.49840  Biso   1.000  C
  C70      1.0000 0.38227  0.32690  0.46080  Biso   1.000  C
  C71      1.0000 0.36875  0.33563  0.52012  Biso   1.000  C
  N48      1.0000 0.35891  0.43001  0.52781  Biso   1.000  N
  H69      1.0000 0.38247  0.52509  0.57113  Biso   1.000  H
  H70      1.0000 0.39821  0.42802  0.59520  Biso   1.000  H
  C72      1.0000 0.37371  0.47614  0.48320  Biso   1.000  C
  O23      1.0000 0.15073  0.20618  0.50322  Biso   1.000  O
  H71      1.0000 0.44978  0.29485  0.44712  Biso   1.000  H
  H72      1.0000 0.43076  0.30772  0.53331  Biso   1.000  H
  O24      1.0000 0.37737  0.56010  0.47873  Biso   1.000  O
  O25      1.0000 0.57810  0.65107  0.32701  Biso   1.000  O
  C73      1.0000 0.51349  0.66065  0.29790  Biso   1.000  C
  N49      1.0000 0.48785  0.59377  0.26971  Biso   1.000  N
  N50      1.0000 0.45505  0.73593  0.28813  Biso   1.000  N
  C74      1.0000 0.53732  0.50594  0.27031  Biso   1.000  C
  C75      1.0000 0.40272  0.62287  0.24181  Biso   1.000  C
  C76      1.0000 0.37640  0.72265  0.25659  Biso   1.000  C
  C77      1.0000 0.45544  0.81537  0.31621  Biso   1.000  C
  N51      1.0000 0.62380  0.49103  0.22839  Biso   1.000  N
  H73      1.0000 0.48254  0.46247  0.27050  Biso   1.000  H
  H74      1.0000 0.56519  0.49525  0.30162  Biso   1.000  H
  N52      1.0000 0.43117  0.63009  0.18750  Biso   1.000  N
  H75      1.0000 0.33925  0.58616  0.25273  Biso   1.000  H
  N53      1.0000 0.39157  0.77096  0.20789  Biso   1.000  N
  H76      1.0000 0.30239  0.73057  0.27513  Biso   1.000  H
  H77      1.0000 0.38166  0.83845  0.32531  Biso   1.000  H
  H78      1.0000 0.48134  0.79805  0.34740  Biso   1.000  H
  N54      1.0000 0.51974  0.88553  0.28991  Biso   1.000  N
  C78      1.0000 0.60212  0.45857  0.18071  Biso   1.000  C
  C79      1.0000 0.72863  0.47113  0.23381  Biso   1.000  C
  C80      1.0000 0.45621  0.55674  0.15460  Biso   1.000  C
  C81      1.0000 0.42132  0.71805  0.16771  Biso   1.000  C
  C82      1.0000 0.37966  0.86649  0.20061  Biso   1.000  C
  C83      1.0000 0.48203  0.95089  0.25409  Biso   1.000  C
  C84      1.0000 0.61765  0.90573  0.29900  Biso   1.000  C
  H79      1.0000 0.55458  0.40736  0.18682  Biso   1.000  H
  C85      1.0000 0.71544  0.43255  0.15289  Biso   1.000  C
  N55      1.0000 0.56681  0.52526  0.14812  Biso   1.000  N
  N56      1.0000 0.78632  0.44859  0.18932  Biso   1.000  N
  O26      1.0000 0.76194  0.48265  0.27240  Biso   1.000  O
  H80      1.0000 0.41044  0.50730  0.16851  Biso   1.000  H
  H81      1.0000 0.43921  0.57579  0.12170  Biso   1.000  H
  O27      1.0000 0.43288  0.74189  0.12341  Biso   1.000  O
  H82      1.0000 0.31713  0.88699  0.22430  Biso   1.000  H
  H83      1.0000 0.36548  0.88110  0.16661  Biso   1.000  H
  N57      1.0000 0.47192  0.91527  0.20709  Biso   1.000  N
  H84      1.0000 0.41534  0.98249  0.26940  Biso   1.000  H
  C86      1.0000 0.57724  0.01557  0.23942  Biso   1.000  C
  N58      1.0000 0.65684  0.97805  0.26762  Biso   1.000  N
  O28      1.0000 0.66722  0.86433  0.32970  Biso   1.000  O
  H85      1.0000 0.72104  0.37017  0.14319  Biso   1.000  H
  N59      1.0000 0.73492  0.49591  0.10950  Biso   1.000  N
  C87      1.0000 0.64023  0.53906  0.10609  Biso   1.000  C
  C88      1.0000 0.89640  0.41247  0.18299  Biso   1.000  C
  C89      1.0000 0.54189  0.95259  0.16711  Biso   1.000  C
  N60      1.0000 0.60619  0.00874  0.18541  Biso   1.000  N
  H86      1.0000 0.55514  0.07717  0.24822  Biso   1.000  H
  C90      1.0000 0.75046  0.02377  0.27331  Biso   1.000  C
  C91      1.0000 0.82086  0.48121  0.06690  Biso   1.000  C
  O29      1.0000 0.62902  0.59768  0.07000  Biso   1.000  O
  H87      1.0000 0.91629  0.40117  0.21611  Biso   1.000  H
  H88      1.0000 0.90031  0.35550  0.16730  Biso   1.000  H
  N61      1.0000 0.97325  0.47198  0.15229  Biso   1.000  N
  O30      1.0000 0.54526  0.94031  0.12189  Biso   1.000  O
  C92      1.0000 0.67856  0.06878  0.15289  Biso   1.000  C
  H89      1.0000 0.77167  0.00236  0.30511  Biso   1.000  H
  H90      1.0000 0.73229  0.08746  0.27520  Biso   1.000  H
  N62      1.0000 0.84084  0.01148  0.23260  Biso   1.000  N
  H91      1.0000 0.83345  0.41706  0.06371  Biso   1.000  H
  H92      1.0000 0.79825  0.50647  0.03612  Biso   1.000  H
  N63      1.0000 0.91991  0.52051  0.07179  Biso   1.000  N
  C93      1.0000 0.00093  0.47498  0.09851  Biso   1.000  C
  C94      1.0000 0.03282  0.52916  0.17340  Biso   1.000  C
  H93      1.0000 0.66842  0.12827  0.16570  Biso   1.000  H
  H94      1.0000 0.66082  0.07256  0.11920  Biso   1.000  H
  N64      1.0000 0.79119  0.03977  0.14960  Biso   1.000  N
  C95      1.0000 0.85482  0.06549  0.18511  Biso   1.000  C
  C96      1.0000 0.93204  0.96139  0.23821  Biso   1.000  C
  C97      1.0000 0.96236  0.59111  0.04021  Biso   1.000  C
  H95      1.0000 0.02199  0.41536  0.08619  Biso   1.000  H
  C98      1.0000 0.09527  0.53928  0.08611  Biso   1.000  C
  N65      1.0000 0.09775  0.57457  0.13481  Biso   1.000  N
  O31      1.0000 0.02814  0.53600  0.21869  Biso   1.000  O
  C99      1.0000 0.85286  0.01561  0.10510  Biso   1.000  C
  C100     1.0000 0.97201  0.04017  0.16010  Biso   1.000  C
  H96      1.0000 0.84561  0.12980  0.19061  Biso   1.000  H
  N66      1.0000 0.00519  0.97204  0.19489  Biso   1.000  N
  O32      1.0000 0.94392  0.91564  0.27622  Biso   1.000  O
  O33      1.0000 0.91842  0.63417  0.00910  Biso   1.000  O
  N67      1.0000 0.06427  0.60278  0.04821  Biso   1.000  N
  H97      1.0000 0.16315  0.50709  0.07311  Biso   1.000  H
  C101     1.0000 0.18827  0.62286  0.14459  Biso   1.000  C
  N68      1.0000 0.95882  0.00899  0.11181  Biso   1.000  N
  O34      1.0000 0.82138  0.00049  0.06640  Biso   1.000  O
  H98      1.0000 0.01837  0.09201  0.15570  Biso   1.000  H
  C102     1.0000 0.11578  0.93547  0.19019  Biso   1.000  C
  C103     1.0000 0.12754  0.67979  0.02558  Biso   1.000  C
  H99      1.0000 0.19915  0.60609  0.17882  Biso   1.000  H
  H100     1.0000 0.25282  0.60410  0.12159  Biso   1.000  H
  N69      1.0000 0.17548  0.71955  0.13902  Biso   1.000  N
  C104     1.0000 0.04740  0.98948  0.07209  Biso   1.000  C
  N70      1.0000 0.13786  0.85899  0.15900  Biso   1.000  N
  H101     1.0000 0.16492  0.98250  0.17571  Biso   1.000  H
  H102     1.0000 0.13024  0.91777  0.22369  Biso   1.000  H
  H103     1.0000 0.10437  0.69989  0.99413  Biso   1.000  H
  H104     1.0000 0.20287  0.66028  0.01751  Biso   1.000  H
  N71      1.0000 0.11877  0.75517  0.05761  Biso   1.000  N
  C105     1.0000 0.19574  0.76857  0.09058  Biso   1.000  C
  C106     1.0000 0.14448  0.77199  0.17859  Biso   1.000  C
  N72      1.0000 0.08736  0.89762  0.07648  Biso   1.000  N
  H105     1.0000 0.10540  0.02942  0.07288  Biso   1.000  H
  H106     1.0000 0.02433  0.00057  0.03961  Biso   1.000  H
  C107     1.0000 0.17174  0.86685  0.10430  Biso   1.000  C
  C108     1.0000 0.06210  0.83162  0.04700  Biso   1.000  C
  H107     1.0000 0.27050  0.75919  0.07319  Biso   1.000  H
  O35      1.0000 0.12798  0.74797  0.22339  Biso   1.000  O
  H108     1.0000 0.23604  0.90286  0.09441  Biso   1.000  H
  O36      1.0000 0.00158  0.84239  0.01740  Biso   1.000  O
  O37      1.0000 0.42186  0.34880  0.67301  Biso   1.000  O
  C109     1.0000 0.48647  0.33914  0.70212  Biso   1.000  C
  N73      1.0000 0.54497  0.26386  0.71194  Biso   1.000  N
  N74      1.0000 0.51218  0.40609  0.73032  Biso   1.000  N
  C110     1.0000 0.54451  0.18450  0.68382  Biso   1.000  C
  C111     1.0000 0.62355  0.27715  0.74343  Biso   1.000  C
  C112     1.0000 0.59723  0.37699  0.75822  Biso   1.000  C
  C113     1.0000 0.46263  0.49386  0.72971  Biso   1.000  C
  N75      1.0000 0.48021  0.11427  0.71012  Biso   1.000  N
  H109     1.0000 0.61838  0.16141  0.67472  Biso   1.000  H
  H110     1.0000 0.51861  0.20175  0.65262  Biso   1.000  H
  N76      1.0000 0.60847  0.22883  0.79214  Biso   1.000  N
  H111     1.0000 0.69755  0.26929  0.72494  Biso   1.000  H
  H112     1.0000 0.66077  0.41364  0.74734  Biso   1.000  H
  N77      1.0000 0.56886  0.36978  0.81253  Biso   1.000  N
  H113     1.0000 0.51749  0.53739  0.72952  Biso   1.000  H
  H114     1.0000 0.43477  0.50455  0.69841  Biso   1.000  H
  N78      1.0000 0.37615  0.50877  0.77163  Biso   1.000  N
  C114     1.0000 0.38231  0.09407  0.70102  Biso   1.000  C
  C115     1.0000 0.51792  0.04898  0.74594  Biso   1.000  C
  C116     1.0000 0.62029  0.13337  0.79941  Biso   1.000  C
  C117     1.0000 0.57863  0.28175  0.83231  Biso   1.000  C
  C118     1.0000 0.54375  0.44306  0.84543  Biso   1.000  C
  C119     1.0000 0.39783  0.54129  0.81931  Biso   1.000  C
  C120     1.0000 0.27140  0.52866  0.76621  Biso   1.000  C
  O38      1.0000 0.33274  0.13547  0.67032  Biso   1.000  O
  N79      1.0000 0.34311  0.02175  0.73240  Biso   1.000  N
  C121     1.0000 0.42270  0.98430  0.76064  Biso   1.000  C
  H115     1.0000 0.58461  0.01738  0.73062  Biso   1.000  H
  N80      1.0000 0.52803  0.08453  0.79293  Biso   1.000  N
  H116     1.0000 0.68282  0.11287  0.77573  Biso   1.000  H
  H117     1.0000 0.63455  0.11877  0.83341  Biso   1.000  H
  O39      1.0000 0.56715  0.25798  0.87662  Biso   1.000  O
  H118     1.0000 0.58952  0.49257  0.83152  Biso   1.000  H
  H119     1.0000 0.56074  0.42408  0.87833  Biso   1.000  H
  N81      1.0000 0.43315  0.47454  0.85191  Biso   1.000  N
  H120     1.0000 0.44537  0.59244  0.81321  Biso   1.000  H
  C122     1.0000 0.28459  0.56725  0.84713  Biso   1.000  C
  N82      1.0000 0.21364  0.55127  0.81071  Biso   1.000  N
  O40      1.0000 0.23810  0.51715  0.72763  Biso   1.000  O
  C123     1.0000 0.24949  0.97610  0.72672  Biso   1.000  C
  H121     1.0000 0.44481  0.92269  0.75181  Biso   1.000  H
  N83      1.0000 0.39376  0.99106  0.81461  Biso   1.000  N
  C124     1.0000 0.45814  0.04728  0.83292  Biso   1.000  C
  C125     1.0000 0.35972  0.46074  0.89394  Biso   1.000  C
  N84      1.0000 0.26503  0.50395  0.89053  Biso   1.000  N
  H122     1.0000 0.27900  0.62962  0.85683  Biso   1.000  H
  C126     1.0000 0.10356  0.58733  0.81704  Biso   1.000  C
  H123     1.0000 0.22829  0.99751  0.69492  Biso   1.000  H
  H124     1.0000 0.26766  0.91234  0.72482  Biso   1.000  H
  N85      1.0000 0.15911  0.98839  0.76743  Biso   1.000  N
  C127     1.0000 0.32139  0.93102  0.84713  Biso   1.000  C
  O41      1.0000 0.45470  0.05955  0.87814  Biso   1.000  O
  O42      1.0000 0.37093  0.40212  0.93002  Biso   1.000  O
  C128     1.0000 0.17917  0.51865  0.93313  Biso   1.000  C
  H125     1.0000 0.08366  0.59869  0.78391  Biso   1.000  H
  H126     1.0000 0.09964  0.64437  0.83273  Biso   1.000  H
  N86      1.0000 0.02679  0.52782  0.84774  Biso   1.000  N
  C129     1.0000 0.06791  0.03848  0.76182  Biso   1.000  C
  C130     1.0000 0.14521  0.93437  0.81492  Biso   1.000  C
  N87      1.0000 0.20876  0.96003  0.85043  Biso   1.000  N
  H127     1.0000 0.33161  0.87153  0.83432  Biso   1.000  H
  H128     1.0000 0.33921  0.92724  0.88083  Biso   1.000  H
  H129     1.0000 0.16659  0.58274  0.93631  Biso   1.000  H
  H130     1.0000 0.20170  0.49333  0.96394  Biso   1.000  H
  N88      1.0000 0.08005  0.47935  0.92824  Biso   1.000  N
  C131     1.0000 0.99902  0.52482  0.90152  Biso   1.000  C
  C132     1.0000 0.96713  0.47063  0.82663  Biso   1.000  C
  O43      1.0000 0.05602  0.08416  0.72384  Biso   1.000  O
  N89      1.0000 0.99484  0.02776  0.80514  Biso   1.000  N
  C133     1.0000 0.02795  0.95963  0.83993  Biso   1.000  C
  H131     1.0000 0.15435  0.87006  0.80942  Biso   1.000  H
  C134     1.0000 0.14710  0.98425  0.89493  Biso   1.000  C
  C135     1.0000 0.03767  0.40876  0.95981  Biso   1.000  C
  C136     1.0000 0.90477  0.46052  0.91391  Biso   1.000  C
  H132     1.0000 0.97796  0.58444  0.91384  Biso   1.000  H
  N90      1.0000 0.90229  0.42523  0.86521  Biso   1.000  N
  O44      1.0000 0.97189  0.46387  0.78134  Biso   1.000  O
  C137     1.0000 0.88418  0.06433  0.80984  Biso   1.000  C
  H133     1.0000 0.98158  0.90786  0.84433  Biso   1.000  H
  N91      1.0000 0.04121  0.99088  0.88822  Biso   1.000  N
  O45      1.0000 0.17858  0.99931  0.93362  Biso   1.000  O
  N92      1.0000 0.93577  0.39702  0.95182  Biso   1.000  N
  O46      1.0000 0.08154  0.36563  0.99093  Biso   1.000  O
  H134     1.0000 0.83688  0.49271  0.92691  Biso   1.000  H
  C138     1.0000 0.81176  0.37694  0.85543  Biso   1.000  C
  H135     1.0000 0.83503  0.01737  0.82432  Biso   1.000  H
  H136     1.0000 0.86972  0.08203  0.77633  Biso   1.000  H
  N93      1.0000 0.86209  0.14087  0.84103  Biso   1.000  N
  C139     1.0000 0.95264  0.01032  0.92794  Biso   1.000  C
  C140     1.0000 0.87241  0.32001  0.97444  Biso   1.000  C
  N94      1.0000 0.82454  0.28025  0.86104  Biso   1.000  N
  H137     1.0000 0.80088  0.39378  0.82121  Biso   1.000  H
  H138     1.0000 0.74713  0.39577  0.87844  Biso   1.000  H
  C141     1.0000 0.85556  0.22788  0.82144  Biso   1.000  C
  C142     1.0000 0.82822  0.13295  0.89572  Biso   1.000  C
  H139     1.0000 0.89455  0.97044  0.92714  Biso   1.000  H
  H140     1.0000 0.97570  0.99923  0.96042  Biso   1.000  H
  N95      1.0000 0.91259  0.10225  0.92354  Biso   1.000  N
  N96      1.0000 0.88119  0.24463  0.94242  Biso   1.000  N
  H141     1.0000 0.79716  0.33952  0.98252  Biso   1.000  H
  H142     1.0000 0.89558  0.29998  0.00590  Biso   1.000  H
  C143     1.0000 0.80422  0.23123  0.90944  Biso   1.000  C
  O47      1.0000 0.87206  0.25183  0.77664  Biso   1.000  O
  H143     1.0000 0.76391  0.09694  0.90561  Biso   1.000  H
  C144     1.0000 0.93794  0.16825  0.95303  Biso   1.000  C
  H144     1.0000 0.72954  0.24061  0.92684  Biso   1.000  H
  O48      1.0000 0.99837  0.15740  0.98263  Biso   1.000  O
