data_image0
_cell_length_a       12.744
_cell_length_b       20.291
_cell_length_c       12.195
_cell_angle_alpha    90
_cell_angle_beta     106.73
_cell_angle_gamma    90

_symmetry_space_group_name_H-M    "P 1"
_symmetry_int_tables_number       1

loop_
  _symmetry_equiv_pos_as_xyz
  'x, y, z'

loop_
  _atom_site_label
  _atom_site_occupancy
  _atom_site_fract_x
  _atom_site_fract_y
  _atom_site_fract_z
  _atom_site_thermal_displace_type
  _atom_site_B_iso_or_equiv
  _atom_site_type_symbol
  C1       1.0000 0.45851  0.23380  0.66865  Biso   1.000  C
  N1       1.0000 0.36864  0.19910  0.58936  Biso   1.000  N
  H1       1.0000 0.49239  0.26391  0.62472  Biso   1.000  H
  H2       1.0000 0.42890  0.26120  0.72011  Biso   1.000  H
  N2       1.0000 0.54203  0.19087  0.73740  Biso   1.000  N
  C2       1.0000 0.35506  0.19891  0.47368  Biso   1.000  C
  C3       1.0000 0.26935  0.17969  0.61633  Biso   1.000  C
  C4       1.0000 0.53498  0.15820  0.84058  Biso   1.000  C
  C5       1.0000 0.63862  0.17880  0.71317  Biso   1.000  C
  N3       1.0000 0.25667  0.16988  0.42102  Biso   1.000  N
  O1       1.0000 0.41951  0.22074  0.42564  Biso   1.000  O
  C6       1.0000 0.19151  0.15859  0.49868  Biso   1.000  C
  C7       1.0000 0.19151  0.15854  0.49868  Biso   1.000  C
  H3       1.0000 0.23797  0.21709  0.64998  Biso   1.000  H
  N4       1.0000 0.27763  0.12079  0.68457  Biso   1.000  N
  N5       1.0000 0.45492  0.10566  0.82311  Biso   1.000  N
  H4       1.0000 0.52598  0.19058  0.89906  Biso   1.000  H
  C8       1.0000 0.64606  0.12109  0.88202  Biso   1.000  C
  O2       1.0000 0.66778  0.20319  0.63560  Biso   1.000  O
  N6       1.0000 0.69867  0.13587  0.79443  Biso   1.000  N
  O3       1.0000 0.66778  0.20314  0.63560  Biso   1.000  O
  C9       1.0000 0.21022  0.17067  0.29798  Biso   1.000  C
  H5       1.0000 0.12278  0.18540  0.47736  Biso   1.000  H
  N7       1.0000 0.16942  0.08994  0.51589  Biso   1.000  N
  C10      1.0000 0.21392  0.07057  0.62703  Biso   1.000  C
  C11      1.0000 0.33895  0.11690  0.80462  Biso   1.000  C
  C12      1.0000 0.50176  0.04569  0.85728  Biso   1.000  C
  N8       1.0000 0.61324  0.05337  0.88682  Biso   1.000  N
  H6       1.0000 0.69062  0.13711  0.95892  Biso   1.000  H
  C13      1.0000 0.81221  0.12050  0.80411  Biso   1.000  C
  H7       1.0000 0.13388  0.18698  0.27948  Biso   1.000  H
  H8       1.0000 0.25233  0.20191  0.26484  Biso   1.000  H
  N9       1.0000 0.20997  0.10719  0.24523  Biso   1.000  N
  C14      1.0000 0.09178  0.05002  0.43318  Biso   1.000  C
  O4       1.0000 0.19794  0.01750  0.66702  Biso   1.000  O
  H9       1.0000 0.32907  0.15849  0.84281  Biso   1.000  H
  H10      1.0000 0.30881  0.08068  0.84075  Biso   1.000  H
  O5       1.0000 0.45269  0.99478  0.86173  Biso   1.000  O
  C15      1.0000 0.68852  0.00044  0.93477  Biso   1.000  C
  H11      1.0000 0.84022  0.15302  0.75881  Biso   1.000  H
  H12      1.0000 0.85597  0.12518  0.88519  Biso   1.000  H
  N10      1.0000 0.82838  0.05495  0.76540  Biso   1.000  N
  H13      1.0000 0.84022  0.15297  0.75881  Biso   1.000  H
  C16      1.0000 0.12767  0.05741  0.23787  Biso   1.000  C
  C17      1.0000 0.28350  0.09088  0.18683  Biso   1.000  C
  N11      1.0000 0.13479  0.02341  0.34490  Biso   1.000  N
  H14      1.0000 0.02626  0.07698  0.39670  Biso   1.000  H
  H15      1.0000 0.06807  0.01311  0.47359  Biso   1.000  H
  H16      1.0000 0.64828  0.96540  0.96217  Biso   1.000  H
  N12      1.0000 0.74038  0.97196  0.85471  Biso   1.000  N
  H17      1.0000 0.74614  0.01750  0.00181  Biso   1.000  H
  C18      1.0000 0.85159  0.04327  0.66419  Biso   1.000  C
  C19      1.0000 0.84066  0.99694  0.83647  Biso   1.000  C
  C20      1.0000 0.15928  0.00306  0.16346  Biso   1.000  C
  H18      1.0000 0.05220  0.07481  0.20148  Biso   1.000  H
  N13      1.0000 0.25958  0.02804  0.14531  Biso   1.000  N
  O6       1.0000 0.35605  0.12597  0.17390  Biso   1.000  O
  C21      1.0000 0.14838  0.95673  0.33582  Biso   1.000  C
  C22      1.0000 0.71647  0.90912  0.81318  Biso   1.000  C
  O7       1.0000 0.85893  0.08457  0.59398  Biso   1.000  O
  N14      1.0000 0.86515  0.97659  0.65503  Biso   1.000  N
  H19      1.0000 0.89907  0.00310  0.91062  Biso   1.000  H
  C23      1.0000 0.87235  0.94259  0.76206  Biso   1.000  C
  H20      1.0000 0.10090  0.99690  0.08939  Biso   1.000  H
  N15      1.0000 0.17166  0.94505  0.23461  Biso   1.000  N
  C24      1.0000 0.31152  0.99956  0.06525  Biso   1.000  C
  O8       1.0000 0.14109  0.91543  0.40595  Biso   1.000  O
  N16      1.0000 0.79005  0.89281  0.75470  Biso   1.000  N
  O9       1.0000 0.64397  0.87403  0.82603  Biso   1.000  O
  C25      1.0000 0.90824  0.94998  0.56675  Biso   1.000  C
  H21      1.0000 0.94782  0.92519  0.79845  Biso   1.000  H
  C26      1.0000 0.18775  0.87950  0.19591  Biso   1.000  C
  C27      1.0000 0.18775  0.87945  0.19591  Biso   1.000  C
  H22      1.0000 0.35166  0.03460  0.03776  Biso   1.000  H
  H23      1.0000 0.25382  0.98250  0.99820  Biso   1.000  H
  N17      1.0000 0.38680  0.94663  0.11320  Biso   1.000  N
  C28      1.0000 0.78980  0.82933  0.70196  Biso   1.000  C
  N18      1.0000 0.83055  0.91006  0.48412  Biso   1.000  N
  H24      1.0000 0.97371  0.92302  0.60331  Biso   1.000  H
  H25      1.0000 0.93189  0.98689  0.52642  Biso   1.000  H
  H26      1.0000 0.15982  0.84698  0.24121  Biso   1.000  H
  H27      1.0000 0.14400  0.87482  0.11482  Biso   1.000  H
  N19      1.0000 0.30137  0.86413  0.20559  Biso   1.000  N
  H28      1.0000 0.14400  0.87477  0.11482  Biso   1.000  H
  C29      1.0000 0.49828  0.95431  0.14274  Biso   1.000  C
  C30      1.0000 0.35396  0.87891  0.11791  Biso   1.000  C
  C31      1.0000 0.49828  0.95427  0.14274  Biso   1.000  C
  N20      1.0000 0.74330  0.83012  0.57900  Biso   1.000  N
  N21      1.0000 0.74330  0.83007  0.57900  Biso   1.000  N
  H29      1.0000 0.86606  0.81302  0.72045  Biso   1.000  H
  H30      1.0000 0.74771  0.79809  0.73518  Biso   1.000  H
  C32      1.0000 0.78610  0.92943  0.37290  Biso   1.000  C
  C33      1.0000 0.80851  0.84141  0.50125  Biso   1.000  C
  C34      1.0000 0.36134  0.82120  0.28684  Biso   1.000  C
  O10      1.0000 0.54727  0.00522  0.13828  Biso   1.000  O
  O11      1.0000 0.54727  0.00517  0.13828  Biso   1.000  O
  N22      1.0000 0.54502  0.89434  0.17682  Biso   1.000  N
  C35      1.0000 0.46496  0.84180  0.15935  Biso   1.000  C
  H31      1.0000 0.30942  0.86289  0.04110  Biso   1.000  H
  C36      1.0000 0.64499  0.80109  0.52634  Biso   1.000  C
  N23      1.0000 0.72241  0.87921  0.31544  Biso   1.000  N
  O12      1.0000 0.80202  0.98250  0.33300  Biso   1.000  O
  C37      1.0000 0.73061  0.82031  0.38369  Biso   1.000  C
  H32      1.0000 0.87723  0.81460  0.52257  Biso   1.000  H
  N24      1.0000 0.45799  0.80913  0.26253  Biso   1.000  N
  O13      1.0000 0.33226  0.79681  0.36442  Biso   1.000  O
  C38      1.0000 0.66101  0.88310  0.19540  Biso   1.000  C
  H33      1.0000 0.47403  0.80942  0.10087  Biso   1.000  H
  H34      1.0000 0.47403  0.80937  0.10087  Biso   1.000  H
  N25      1.0000 0.63138  0.80090  0.41057  Biso   1.000  N
  O14      1.0000 0.58051  0.77926  0.57429  Biso   1.000  O
  H35      1.0000 0.76199  0.78291  0.35004  Biso   1.000  H
  C39      1.0000 0.54151  0.76620  0.33128  Biso   1.000  C
  H36      1.0000 0.67089  0.84151  0.15721  Biso   1.000  H
  H37      1.0000 0.69121  0.91932  0.15918  Biso   1.000  H
  H38      1.0000 0.69121  0.91927  0.15918  Biso   1.000  H
  H39      1.0000 0.50757  0.73609  0.37530  Biso   1.000  H
  H40      1.0000 0.57114  0.73880  0.27991  Biso   1.000  H
  C40      1.0000 0.45851  0.23380  0.66865  Biso   1.000  C
  N26      1.0000 0.36864  0.19910  0.58936  Biso   1.000  N
  H41      1.0000 0.49239  0.26391  0.62472  Biso   1.000  H
  H42      1.0000 0.42890  0.26120  0.72011  Biso   1.000  H
  N27      1.0000 0.54203  0.19087  0.73740  Biso   1.000  N
  C41      1.0000 0.35506  0.19891  0.47368  Biso   1.000  C
  C42      1.0000 0.26935  0.17969  0.61633  Biso   1.000  C
  C43      1.0000 0.53498  0.15820  0.84058  Biso   1.000  C
  C44      1.0000 0.63862  0.17880  0.71317  Biso   1.000  C
  N28      1.0000 0.25667  0.16988  0.42102  Biso   1.000  N
  O15      1.0000 0.41951  0.22074  0.42564  Biso   1.000  O
  C45      1.0000 0.19151  0.15859  0.49868  Biso   1.000  C
  C46      1.0000 0.19151  0.15854  0.49868  Biso   1.000  C
  H43      1.0000 0.23797  0.21709  0.64998  Biso   1.000  H
  N29      1.0000 0.27763  0.12079  0.68457  Biso   1.000  N
  N30      1.0000 0.45492  0.10566  0.82311  Biso   1.000  N
  H44      1.0000 0.52598  0.19058  0.89906  Biso   1.000  H
  C47      1.0000 0.64606  0.12109  0.88202  Biso   1.000  C
  N31      1.0000 0.69867  0.13587  0.79443  Biso   1.000  N
  O16      1.0000 0.66778  0.20319  0.63560  Biso   1.000  O
  O17      1.0000 0.66778  0.20314  0.63560  Biso   1.000  O
  C48      1.0000 0.21022  0.17067  0.29798  Biso   1.000  C
  H45      1.0000 0.12278  0.18540  0.47736  Biso   1.000  H
  N32      1.0000 0.16942  0.08994  0.51589  Biso   1.000  N
  C49      1.0000 0.21392  0.07057  0.62703  Biso   1.000  C
  C50      1.0000 0.33895  0.11690  0.80462  Biso   1.000  C
  C51      1.0000 0.50176  0.04569  0.85728  Biso   1.000  C
  H46      1.0000 0.69062  0.13711  0.95892  Biso   1.000  H
  N33      1.0000 0.61324  0.05337  0.88682  Biso   1.000  N
  C52      1.0000 0.81221  0.12050  0.80411  Biso   1.000  C
  H47      1.0000 0.13388  0.18698  0.27948  Biso   1.000  H
  H48      1.0000 0.25233  0.20191  0.26484  Biso   1.000  H
  N34      1.0000 0.20997  0.10719  0.24523  Biso   1.000  N
  C53      1.0000 0.09178  0.05002  0.43318  Biso   1.000  C
  O18      1.0000 0.19794  0.01750  0.66702  Biso   1.000  O
  H49      1.0000 0.32907  0.15849  0.84281  Biso   1.000  H
  H50      1.0000 0.30881  0.08068  0.84075  Biso   1.000  H
  O19      1.0000 0.45269  0.99478  0.86173  Biso   1.000  O
  C54      1.0000 0.68852  0.00044  0.93477  Biso   1.000  C
  H51      1.0000 0.85597  0.12518  0.88519  Biso   1.000  H
  N35      1.0000 0.82838  0.05495  0.76540  Biso   1.000  N
  H52      1.0000 0.84022  0.15302  0.75881  Biso   1.000  H
  H53      1.0000 0.84022  0.15297  0.75881  Biso   1.000  H
  C55      1.0000 0.12767  0.05741  0.23787  Biso   1.000  C
  C56      1.0000 0.28350  0.09088  0.18683  Biso   1.000  C
  N36      1.0000 0.13479  0.02341  0.34490  Biso   1.000  N
  H54      1.0000 0.02626  0.07698  0.39670  Biso   1.000  H
  H55      1.0000 0.06807  0.01311  0.47359  Biso   1.000  H
  H56      1.0000 0.64828  0.96540  0.96217  Biso   1.000  H
  N37      1.0000 0.74038  0.97196  0.85471  Biso   1.000  N
  H57      1.0000 0.74614  0.01750  0.00181  Biso   1.000  H
  C57      1.0000 0.85159  0.04327  0.66419  Biso   1.000  C
  C58      1.0000 0.84066  0.99694  0.83647  Biso   1.000  C
  C59      1.0000 0.15928  0.00306  0.16346  Biso   1.000  C
  H58      1.0000 0.05220  0.07481  0.20148  Biso   1.000  H
  N38      1.0000 0.25958  0.02804  0.14531  Biso   1.000  N
  O20      1.0000 0.35605  0.12597  0.17390  Biso   1.000  O
  C60      1.0000 0.14838  0.95673  0.33582  Biso   1.000  C
  C61      1.0000 0.71647  0.90912  0.81318  Biso   1.000  C
  O21      1.0000 0.85893  0.08457  0.59398  Biso   1.000  O
  N39      1.0000 0.86515  0.97659  0.65503  Biso   1.000  N
  H59      1.0000 0.89907  0.00310  0.91062  Biso   1.000  H
  C62      1.0000 0.87235  0.94259  0.76206  Biso   1.000  C
  H60      1.0000 0.10090  0.99690  0.08939  Biso   1.000  H
  N40      1.0000 0.17166  0.94505  0.23461  Biso   1.000  N
  C63      1.0000 0.31152  0.99956  0.06525  Biso   1.000  C
  O22      1.0000 0.14109  0.91543  0.40595  Biso   1.000  O
  N41      1.0000 0.79005  0.89281  0.75470  Biso   1.000  N
  O23      1.0000 0.64397  0.87403  0.82603  Biso   1.000  O
  C64      1.0000 0.90824  0.94998  0.56675  Biso   1.000  C
  H61      1.0000 0.94782  0.92519  0.79845  Biso   1.000  H
  C65      1.0000 0.18775  0.87950  0.19591  Biso   1.000  C
  C66      1.0000 0.18775  0.87945  0.19591  Biso   1.000  C
  H62      1.0000 0.35166  0.03460  0.03776  Biso   1.000  H
  H63      1.0000 0.25382  0.98250  0.99820  Biso   1.000  H
  N42      1.0000 0.38680  0.94663  0.11320  Biso   1.000  N
  C67      1.0000 0.78980  0.82933  0.70196  Biso   1.000  C
  N43      1.0000 0.83055  0.91006  0.48412  Biso   1.000  N
  H64      1.0000 0.97371  0.92302  0.60331  Biso   1.000  H
  H65      1.0000 0.93189  0.98689  0.52642  Biso   1.000  H
  H66      1.0000 0.15982  0.84698  0.24121  Biso   1.000  H
  H67      1.0000 0.14400  0.87482  0.11482  Biso   1.000  H
  N44      1.0000 0.30137  0.86413  0.20559  Biso   1.000  N
  H68      1.0000 0.14400  0.87477  0.11482  Biso   1.000  H
  C68      1.0000 0.49828  0.95431  0.14274  Biso   1.000  C
  C69      1.0000 0.35396  0.87891  0.11791  Biso   1.000  C
  C70      1.0000 0.49828  0.95427  0.14274  Biso   1.000  C
  N45      1.0000 0.74330  0.83012  0.57900  Biso   1.000  N
  N46      1.0000 0.74330  0.83007  0.57900  Biso   1.000  N
  H69      1.0000 0.86606  0.81302  0.72045  Biso   1.000  H
  H70      1.0000 0.74771  0.79809  0.73518  Biso   1.000  H
  C71      1.0000 0.78610  0.92943  0.37290  Biso   1.000  C
  C72      1.0000 0.80851  0.84141  0.50125  Biso   1.000  C
  C73      1.0000 0.36134  0.82120  0.28684  Biso   1.000  C
  N47      1.0000 0.54502  0.89434  0.17682  Biso   1.000  N
  O24      1.0000 0.54727  0.00522  0.13828  Biso   1.000  O
  O25      1.0000 0.54727  0.00517  0.13828  Biso   1.000  O
  C74      1.0000 0.46496  0.84180  0.15935  Biso   1.000  C
  H71      1.0000 0.30942  0.86289  0.04110  Biso   1.000  H
  C75      1.0000 0.64499  0.80109  0.52634  Biso   1.000  C
  N48      1.0000 0.72241  0.87921  0.31544  Biso   1.000  N
  O26      1.0000 0.80202  0.98250  0.33300  Biso   1.000  O
  C76      1.0000 0.73061  0.82031  0.38369  Biso   1.000  C
  H72      1.0000 0.87723  0.81460  0.52257  Biso   1.000  H
  N49      1.0000 0.45799  0.80913  0.26253  Biso   1.000  N
  O27      1.0000 0.33226  0.79681  0.36442  Biso   1.000  O
  C77      1.0000 0.66101  0.88310  0.19540  Biso   1.000  C
  H73      1.0000 0.47403  0.80942  0.10087  Biso   1.000  H
  H74      1.0000 0.47403  0.80937  0.10087  Biso   1.000  H
  N50      1.0000 0.63138  0.80090  0.41057  Biso   1.000  N
  O28      1.0000 0.58051  0.77926  0.57429  Biso   1.000  O
  H75      1.0000 0.76199  0.78291  0.35004  Biso   1.000  H
  C78      1.0000 0.54151  0.76620  0.33128  Biso   1.000  C
  H76      1.0000 0.67089  0.84151  0.15721  Biso   1.000  H
  H77      1.0000 0.69121  0.91932  0.15918  Biso   1.000  H
  H78      1.0000 0.69121  0.91927  0.15918  Biso   1.000  H
  H79      1.0000 0.50757  0.73609  0.37530  Biso   1.000  H
  H80      1.0000 0.57114  0.73880  0.27991  Biso   1.000  H
  O29      1.0000 0.35600  0.37401  0.67396  Biso   1.000  O
  C79      1.0000 0.28351  0.40915  0.68680  Biso   1.000  C
  N51      1.0000 0.25961  0.47193  0.64536  Biso   1.000  N
  N52      1.0000 0.20993  0.39278  0.74528  Biso   1.000  N
  N53      1.0000 0.25959  0.47193  0.64527  Biso   1.000  N
  C80      1.0000 0.15931  0.49692  0.66351  Biso   1.000  C
  C81      1.0000 0.31148  0.50047  0.56530  Biso   1.000  C
  C82      1.0000 0.31145  0.50047  0.56521  Biso   1.000  C
  C83      1.0000 0.12762  0.44256  0.73792  Biso   1.000  C
  C84      1.0000 0.21017  0.32936  0.79803  Biso   1.000  C
  H81      1.0000 0.10085  0.50308  0.58944  Biso   1.000  H
  N54      1.0000 0.17159  0.55498  0.73458  Biso   1.000  N
  H82      1.0000 0.10090  0.50308  0.58936  Biso   1.000  H
  H83      1.0000 0.25393  0.51752  0.49825  Biso   1.000  H
  H84      1.0000 0.35169  0.46538  0.53781  Biso   1.000  H
  N55      1.0000 0.38673  0.55340  0.61316  Biso   1.000  N
  H85      1.0000 0.25391  0.51752  0.49817  Biso   1.000  H
  H86      1.0000 0.05216  0.42521  0.70153  Biso   1.000  H
  N56      1.0000 0.13474  0.47657  0.84495  Biso   1.000  N
  N57      1.0000 0.13482  0.47657  0.84495  Biso   1.000  N
  H87      1.0000 0.13391  0.31300  0.77953  Biso   1.000  H
  H88      1.0000 0.25226  0.29811  0.76480  Biso   1.000  H
  N58      1.0000 0.25668  0.33010  0.92098  Biso   1.000  N
  C85      1.0000 0.14841  0.54330  0.83587  Biso   1.000  C
  C86      1.0000 0.18776  0.62052  0.69588  Biso   1.000  C
  C87      1.0000 0.14838  0.54330  0.83579  Biso   1.000  C
  C88      1.0000 0.49821  0.54571  0.64270  Biso   1.000  C
  C89      1.0000 0.35392  0.62106  0.61796  Biso   1.000  C
  C90      1.0000 0.09174  0.44995  0.93323  Biso   1.000  C
  C91      1.0000 0.19146  0.34143  0.99873  Biso   1.000  C
  C92      1.0000 0.35501  0.30112  0.97373  Biso   1.000  C
  C93      1.0000 0.35507  0.30112  0.97364  Biso   1.000  C
  O30      1.0000 0.14105  0.58454  0.90600  Biso   1.000  O
  H89      1.0000 0.15977  0.65300  0.74126  Biso   1.000  H
  H90      1.0000 0.14401  0.62520  0.61479  Biso   1.000  H
  N59      1.0000 0.30133  0.63585  0.70564  Biso   1.000  N
  H91      1.0000 0.15975  0.65300  0.74117  Biso   1.000  H
  N60      1.0000 0.30130  0.63585  0.70555  Biso   1.000  N
  N61      1.0000 0.54505  0.60564  0.67687  Biso   1.000  N
  O31      1.0000 0.54731  0.49480  0.63834  Biso   1.000  O
  O32      1.0000 0.54728  0.49480  0.63825  Biso   1.000  O
  C94      1.0000 0.46499  0.65817  0.65940  Biso   1.000  C
  H92      1.0000 0.30938  0.63708  0.54115  Biso   1.000  H
  H93      1.0000 0.30935  0.63708  0.54107  Biso   1.000  H
  H94      1.0000 0.02629  0.42300  0.89675  Biso   1.000  H
  H95      1.0000 0.06811  0.48692  0.97364  Biso   1.000  H
  H96      1.0000 0.02627  0.42300  0.89667  Biso   1.000  H
  H97      1.0000 0.06808  0.48692  0.97356  Biso   1.000  H
  N62      1.0000 0.16950  0.41003  0.01586  Biso   1.000  N
  H98      1.0000 0.12274  0.31462  0.97741  Biso   1.000  H
  C95      1.0000 0.26946  0.32034  0.11638  Biso   1.000  C
  C96      1.0000 0.26944  0.32034  0.11630  Biso   1.000  C
  O33      1.0000 0.41946  0.27924  0.92569  Biso   1.000  O
  N63      1.0000 0.36867  0.30092  0.08941  Biso   1.000  N
  C97      1.0000 0.36138  0.67877  0.78690  Biso   1.000  C
  C98      1.0000 0.36135  0.67877  0.78681  Biso   1.000  C
  C99      1.0000 0.66097  0.61692  0.69545  Biso   1.000  C
  C100     1.0000 0.66102  0.61692  0.69536  Biso   1.000  C
  H99      1.0000 0.47399  0.69060  0.60092  Biso   1.000  H
  N64      1.0000 0.45794  0.69090  0.76258  Biso   1.000  N
  C101     1.0000 0.21395  0.42940  0.12708  Biso   1.000  C
  H100     1.0000 0.23809  0.28288  0.15003  Biso   1.000  H
  N65      1.0000 0.27767  0.37923  0.18462  Biso   1.000  N
  H101     1.0000 0.23806  0.28288  0.14995  Biso   1.000  H
  N66      1.0000 0.27764  0.37923  0.18454  Biso   1.000  N
  C102     1.0000 0.45854  0.26618  0.16870  Biso   1.000  C
  O34      1.0000 0.33221  0.70317  0.86447  Biso   1.000  O
  O35      1.0000 0.33219  0.70317  0.86439  Biso   1.000  O
  H102     1.0000 0.67093  0.65852  0.65726  Biso   1.000  H
  H103     1.0000 0.69116  0.58070  0.65923  Biso   1.000  H
  N67      1.0000 0.72234  0.62077  0.81541  Biso   1.000  N
  H104     1.0000 0.67090  0.65852  0.65717  Biso   1.000  H
  H105     1.0000 0.69124  0.58070  0.65923  Biso   1.000  H
  C103     1.0000 0.54146  0.73382  0.83133  Biso   1.000  C
  O36      1.0000 0.19805  0.48248  0.16707  Biso   1.000  O
  O37      1.0000 0.19803  0.48248  0.16699  Biso   1.000  O
  C104     1.0000 0.33904  0.38308  0.30459  Biso   1.000  C
  H106     1.0000 0.49248  0.23611  0.12469  Biso   1.000  H
  H107     1.0000 0.42891  0.23878  0.22007  Biso   1.000  H
  N68      1.0000 0.54206  0.30910  0.23745  Biso   1.000  N
  N69      1.0000 0.54214  0.30910  0.23745  Biso   1.000  N
  C105     1.0000 0.78605  0.57060  0.87295  Biso   1.000  C
  C106     1.0000 0.73062  0.67966  0.88365  Biso   1.000  C
  H108     1.0000 0.50760  0.76389  0.87535  Biso   1.000  H
  H109     1.0000 0.57109  0.76117  0.77996  Biso   1.000  H
  N70      1.0000 0.63133  0.69908  0.91062  Biso   1.000  N
  H110     1.0000 0.50758  0.76389  0.87526  Biso   1.000  H
  H111     1.0000 0.57107  0.76117  0.77987  Biso   1.000  H
  H112     1.0000 0.32916  0.34148  0.34277  Biso   1.000  H
  H113     1.0000 0.30884  0.41930  0.34080  Biso   1.000  H
  N71      1.0000 0.45503  0.39436  0.32317  Biso   1.000  N
  C107     1.0000 0.53510  0.34183  0.34063  Biso   1.000  C
  C108     1.0000 0.63871  0.32118  0.21314  Biso   1.000  C
  N72      1.0000 0.83058  0.58997  0.98418  Biso   1.000  N
  O38      1.0000 0.80203  0.51752  0.83296  Biso   1.000  O
  N73      1.0000 0.83056  0.58997  0.98409  Biso   1.000  N
  H114     1.0000 0.76200  0.71712  0.85000  Biso   1.000  H
  C109     1.0000 0.80854  0.65857  0.00130  Biso   1.000  C
  C110     1.0000 0.64499  0.69888  0.02630  Biso   1.000  C
  C111     1.0000 0.50180  0.45429  0.35733  Biso   1.000  C
  C112     1.0000 0.50185  0.45429  0.35724  Biso   1.000  C
  H115     1.0000 0.52602  0.30940  0.39912  Biso   1.000  H
  C113     1.0000 0.64609  0.37894  0.38208  Biso   1.000  C
  N74      1.0000 0.69868  0.36415  0.29440  Biso   1.000  N
  O39      1.0000 0.66779  0.29683  0.13556  Biso   1.000  O
  C114     1.0000 0.90827  0.55005  0.06680  Biso   1.000  C
  H116     1.0000 0.87727  0.68538  0.02262  Biso   1.000  H
  N75      1.0000 0.74341  0.66990  0.07905  Biso   1.000  N
  N76      1.0000 0.74338  0.66990  0.07896  Biso   1.000  N
  O40      1.0000 0.58054  0.72076  0.07434  Biso   1.000  O
  O41      1.0000 0.58062  0.72076  0.07434  Biso   1.000  O
  N77      1.0000 0.61328  0.44660  0.38687  Biso   1.000  N
  O42      1.0000 0.45278  0.50520  0.36170  Biso   1.000  O
  N78      1.0000 0.61325  0.44660  0.38679  Biso   1.000  N
  H117     1.0000 0.69063  0.36292  0.45888  Biso   1.000  H
  C115     1.0000 0.81232  0.37948  0.30416  Biso   1.000  C
  H118     1.0000 0.97379  0.57700  0.10328  Biso   1.000  H
  H119     1.0000 0.93198  0.51308  0.02639  Biso   1.000  H
  N79      1.0000 0.86526  0.52338  0.15508  Biso   1.000  N
  C116     1.0000 0.78983  0.67064  0.20201  Biso   1.000  C
  C117     1.0000 0.68853  0.49953  0.43474  Biso   1.000  C
  C118     1.0000 0.68861  0.49953  0.43474  Biso   1.000  C
  H120     1.0000 0.84023  0.34700  0.25878  Biso   1.000  H
  H121     1.0000 0.85608  0.37480  0.38524  Biso   1.000  H
  N80      1.0000 0.82842  0.44502  0.26545  Biso   1.000  N
  H122     1.0000 0.85606  0.37480  0.38516  Biso   1.000  H
  N81      1.0000 0.82839  0.44502  0.26537  Biso   1.000  N
  C119     1.0000 0.85168  0.45670  0.16416  Biso   1.000  C
  C120     1.0000 0.87238  0.55744  0.26212  Biso   1.000  C
  H123     1.0000 0.86618  0.68700  0.22050  Biso   1.000  H
  H124     1.0000 0.74774  0.70189  0.23523  Biso   1.000  H
  N82      1.0000 0.79008  0.60717  0.25475  Biso   1.000  N
  H125     1.0000 0.74615  0.48248  0.50178  Biso   1.000  H
  H126     1.0000 0.64831  0.53462  0.46222  Biso   1.000  H
  N83      1.0000 0.74047  0.52807  0.35468  Biso   1.000  N
  H127     1.0000 0.64839  0.53462  0.46222  Biso   1.000  H
  C121     1.0000 0.84077  0.50308  0.33652  Biso   1.000  C
  O43      1.0000 0.85896  0.41546  0.09403  Biso   1.000  O
  H128     1.0000 0.94785  0.57479  0.29851  Biso   1.000  H
  C122     1.0000 0.71658  0.59085  0.31323  Biso   1.000  C
  C123     1.0000 0.71655  0.59085  0.31315  Biso   1.000  C
  H129     1.0000 0.89916  0.49692  0.41059  Biso   1.000  H
  O44      1.0000 0.64400  0.62594  0.32608  Biso   1.000  O
  O45      1.0000 0.35600  0.37401  0.67396  Biso   1.000  O
  C124     1.0000 0.28351  0.40915  0.68680  Biso   1.000  C
  N84      1.0000 0.20993  0.39278  0.74528  Biso   1.000  N
  N85      1.0000 0.25961  0.47193  0.64536  Biso   1.000  N
  N86      1.0000 0.25959  0.47193  0.64527  Biso   1.000  N
  C125     1.0000 0.12762  0.44256  0.73792  Biso   1.000  C
  C126     1.0000 0.21017  0.32936  0.79803  Biso   1.000  C
  C127     1.0000 0.15931  0.49692  0.66351  Biso   1.000  C
  C128     1.0000 0.31148  0.50047  0.56530  Biso   1.000  C
  C129     1.0000 0.31145  0.50047  0.56521  Biso   1.000  C
  H130     1.0000 0.05216  0.42521  0.70153  Biso   1.000  H
  N87      1.0000 0.13474  0.47657  0.84495  Biso   1.000  N
  N88      1.0000 0.13482  0.47657  0.84495  Biso   1.000  N
  H131     1.0000 0.13391  0.31300  0.77953  Biso   1.000  H
  H132     1.0000 0.25226  0.29811  0.76480  Biso   1.000  H
  N89      1.0000 0.25668  0.33010  0.92098  Biso   1.000  N
  N90      1.0000 0.17159  0.55498  0.73458  Biso   1.000  N
  H133     1.0000 0.10085  0.50308  0.58944  Biso   1.000  H
  H134     1.0000 0.10090  0.50308  0.58936  Biso   1.000  H
  H135     1.0000 0.35169  0.46538  0.53781  Biso   1.000  H
  N91      1.0000 0.38673  0.55340  0.61316  Biso   1.000  N
  H136     1.0000 0.25393  0.51752  0.49825  Biso   1.000  H
  H137     1.0000 0.25391  0.51752  0.49817  Biso   1.000  H
  C130     1.0000 0.09174  0.44995  0.93323  Biso   1.000  C
  C131     1.0000 0.14841  0.54330  0.83587  Biso   1.000  C
  C132     1.0000 0.14838  0.54330  0.83579  Biso   1.000  C
  C133     1.0000 0.19146  0.34143  0.99873  Biso   1.000  C
  C134     1.0000 0.35501  0.30112  0.97373  Biso   1.000  C
  C135     1.0000 0.35507  0.30112  0.97364  Biso   1.000  C
  C136     1.0000 0.18776  0.62052  0.69588  Biso   1.000  C
  C137     1.0000 0.49821  0.54571  0.64270  Biso   1.000  C
  C138     1.0000 0.35392  0.62106  0.61796  Biso   1.000  C
  H138     1.0000 0.02629  0.42300  0.89675  Biso   1.000  H
  H139     1.0000 0.06811  0.48692  0.97364  Biso   1.000  H
  H140     1.0000 0.02627  0.42300  0.89667  Biso   1.000  H
  H141     1.0000 0.06808  0.48692  0.97356  Biso   1.000  H
  N92      1.0000 0.16950  0.41003  0.01586  Biso   1.000  N
  O46      1.0000 0.14105  0.58454  0.90600  Biso   1.000  O
  H142     1.0000 0.12274  0.31462  0.97741  Biso   1.000  H
  C139     1.0000 0.26946  0.32034  0.11638  Biso   1.000  C
  C140     1.0000 0.26944  0.32034  0.11630  Biso   1.000  C
  O47      1.0000 0.41946  0.27924  0.92569  Biso   1.000  O
  N93      1.0000 0.36867  0.30092  0.08941  Biso   1.000  N
  H143     1.0000 0.14401  0.62520  0.61479  Biso   1.000  H
  H144     1.0000 0.15977  0.65300  0.74126  Biso   1.000  H
  N94      1.0000 0.30133  0.63585  0.70564  Biso   1.000  N
  H145     1.0000 0.15975  0.65300  0.74117  Biso   1.000  H
  N95      1.0000 0.30130  0.63585  0.70555  Biso   1.000  N
  N96      1.0000 0.54505  0.60564  0.67687  Biso   1.000  N
  O48      1.0000 0.54731  0.49480  0.63834  Biso   1.000  O
  O49      1.0000 0.54728  0.49480  0.63825  Biso   1.000  O
  C141     1.0000 0.46499  0.65817  0.65940  Biso   1.000  C
  H146     1.0000 0.30938  0.63708  0.54115  Biso   1.000  H
  H147     1.0000 0.30935  0.63708  0.54107  Biso   1.000  H
  C142     1.0000 0.21395  0.42940  0.12708  Biso   1.000  C
  H148     1.0000 0.23809  0.28288  0.15003  Biso   1.000  H
  N97      1.0000 0.27767  0.37923  0.18462  Biso   1.000  N
  H149     1.0000 0.23806  0.28288  0.14995  Biso   1.000  H
  N98      1.0000 0.27764  0.37923  0.18454  Biso   1.000  N
  C143     1.0000 0.45854  0.26618  0.16870  Biso   1.000  C
  C144     1.0000 0.36138  0.67877  0.78690  Biso   1.000  C
  C145     1.0000 0.36135  0.67877  0.78681  Biso   1.000  C
  C146     1.0000 0.66097  0.61692  0.69545  Biso   1.000  C
  C147     1.0000 0.66102  0.61692  0.69536  Biso   1.000  C
  H150     1.0000 0.47399  0.69060  0.60092  Biso   1.000  H
  N99      1.0000 0.45794  0.69090  0.76258  Biso   1.000  N
  O50      1.0000 0.19805  0.48248  0.16707  Biso   1.000  O
  O51      1.0000 0.19803  0.48248  0.16699  Biso   1.000  O
  C148     1.0000 0.33904  0.38308  0.30459  Biso   1.000  C
  H151     1.0000 0.49248  0.23611  0.12469  Biso   1.000  H
  H152     1.0000 0.42891  0.23878  0.22007  Biso   1.000  H
  N100     1.0000 0.54206  0.30910  0.23745  Biso   1.000  N
  N101     1.0000 0.54214  0.30910  0.23745  Biso   1.000  N
  O52      1.0000 0.33221  0.70317  0.86447  Biso   1.000  O
  O53      1.0000 0.33219  0.70317  0.86439  Biso   1.000  O
  N102     1.0000 0.72234  0.62077  0.81541  Biso   1.000  N
  H153     1.0000 0.67093  0.65852  0.65726  Biso   1.000  H
  H154     1.0000 0.69116  0.58070  0.65923  Biso   1.000  H
  H155     1.0000 0.67090  0.65852  0.65717  Biso   1.000  H
  H156     1.0000 0.69124  0.58070  0.65923  Biso   1.000  H
  C149     1.0000 0.54146  0.73382  0.83133  Biso   1.000  C
  H157     1.0000 0.32916  0.34148  0.34277  Biso   1.000  H
  H158     1.0000 0.30884  0.41930  0.34080  Biso   1.000  H
  N103     1.0000 0.45503  0.39436  0.32317  Biso   1.000  N
  C150     1.0000 0.53510  0.34183  0.34063  Biso   1.000  C
  C151     1.0000 0.63871  0.32118  0.21314  Biso   1.000  C
  C152     1.0000 0.78605  0.57060  0.87295  Biso   1.000  C
  C153     1.0000 0.73062  0.67966  0.88365  Biso   1.000  C
  N104     1.0000 0.63133  0.69908  0.91062  Biso   1.000  N
  H159     1.0000 0.50760  0.76389  0.87535  Biso   1.000  H
  H160     1.0000 0.57109  0.76117  0.77996  Biso   1.000  H
  H161     1.0000 0.50758  0.76389  0.87526  Biso   1.000  H
  H162     1.0000 0.57107  0.76117  0.77987  Biso   1.000  H
  C154     1.0000 0.50180  0.45429  0.35733  Biso   1.000  C
  C155     1.0000 0.50185  0.45429  0.35724  Biso   1.000  C
  H163     1.0000 0.52602  0.30940  0.39912  Biso   1.000  H
  C156     1.0000 0.64609  0.37894  0.38208  Biso   1.000  C
  N105     1.0000 0.69868  0.36415  0.29440  Biso   1.000  N
  O54      1.0000 0.66779  0.29683  0.13556  Biso   1.000  O
  O55      1.0000 0.80203  0.51752  0.83296  Biso   1.000  O
  N106     1.0000 0.83058  0.58997  0.98418  Biso   1.000  N
  N107     1.0000 0.83056  0.58997  0.98409  Biso   1.000  N
  H164     1.0000 0.76200  0.71712  0.85000  Biso   1.000  H
  C157     1.0000 0.80854  0.65857  0.00130  Biso   1.000  C
  C158     1.0000 0.64499  0.69888  0.02630  Biso   1.000  C
  N108     1.0000 0.61328  0.44660  0.38687  Biso   1.000  N
  O56      1.0000 0.45278  0.50520  0.36170  Biso   1.000  O
  N109     1.0000 0.61325  0.44660  0.38679  Biso   1.000  N
  H165     1.0000 0.69063  0.36292  0.45888  Biso   1.000  H
  C159     1.0000 0.81232  0.37948  0.30416  Biso   1.000  C
  C160     1.0000 0.90827  0.55005  0.06680  Biso   1.000  C
  H166     1.0000 0.87727  0.68538  0.02262  Biso   1.000  H
  N110     1.0000 0.74341  0.66990  0.07905  Biso   1.000  N
  N111     1.0000 0.74338  0.66990  0.07896  Biso   1.000  N
  O57      1.0000 0.58054  0.72076  0.07434  Biso   1.000  O
  O58      1.0000 0.58062  0.72076  0.07434  Biso   1.000  O
  C161     1.0000 0.68853  0.49953  0.43474  Biso   1.000  C
  C162     1.0000 0.68861  0.49953  0.43474  Biso   1.000  C
  H167     1.0000 0.84023  0.34700  0.25878  Biso   1.000  H
  H168     1.0000 0.85608  0.37480  0.38524  Biso   1.000  H
  N112     1.0000 0.82842  0.44502  0.26545  Biso   1.000  N
  H169     1.0000 0.85606  0.37480  0.38516  Biso   1.000  H
  N113     1.0000 0.82839  0.44502  0.26537  Biso   1.000  N
  H170     1.0000 0.97379  0.57700  0.10328  Biso   1.000  H
  H171     1.0000 0.93198  0.51308  0.02639  Biso   1.000  H
  N114     1.0000 0.86526  0.52338  0.15508  Biso   1.000  N
  C163     1.0000 0.78983  0.67064  0.20201  Biso   1.000  C
  H172     1.0000 0.74615  0.48248  0.50178  Biso   1.000  H
  H173     1.0000 0.64831  0.53462  0.46222  Biso   1.000  H
  N115     1.0000 0.74047  0.52807  0.35468  Biso   1.000  N
  H174     1.0000 0.64839  0.53462  0.46222  Biso   1.000  H
  C164     1.0000 0.85168  0.45670  0.16416  Biso   1.000  C
  C165     1.0000 0.84077  0.50308  0.33652  Biso   1.000  C
  C166     1.0000 0.87238  0.55744  0.26212  Biso   1.000  C
  H175     1.0000 0.86618  0.68700  0.22050  Biso   1.000  H
  H176     1.0000 0.74774  0.70189  0.23523  Biso   1.000  H
  N116     1.0000 0.79008  0.60717  0.25475  Biso   1.000  N
  C167     1.0000 0.71658  0.59085  0.31323  Biso   1.000  C
  C168     1.0000 0.71655  0.59085  0.31315  Biso   1.000  C
  O59      1.0000 0.85896  0.41546  0.09403  Biso   1.000  O
  H177     1.0000 0.89916  0.49692  0.41059  Biso   1.000  H
  H178     1.0000 0.94785  0.57479  0.29851  Biso   1.000  H
  O60      1.0000 0.64400  0.62594  0.32608  Biso   1.000  O
