data_image0
_cell_length_a       11.805
_cell_length_b       12.994
_cell_length_c       17.857
_cell_angle_alpha    89.7
_cell_angle_beta     89.72
_cell_angle_gamma    88.26

_symmetry_space_group_name_H-M    "P 1"
_symmetry_int_tables_number       1

loop_
  _symmetry_equiv_pos_as_xyz
  'x, y, z'

loop_
  _atom_site_label
  _atom_site_occupancy
  _atom_site_fract_x
  _atom_site_fract_y
  _atom_site_fract_z
  _atom_site_thermal_displace_type
  _atom_site_B_iso_or_equiv
  _atom_site_type_symbol
  O1       1.0000 0.53780  0.55669  0.57962  Biso   1.000  O
  C1       1.0000 0.63329  0.57205  0.53090  Biso   1.000  C
  C2       1.0000 0.50045  0.64125  0.62112  Biso   1.000  C
  C3       1.0000 0.69498  0.47011  0.51936  Biso   1.000  C
  H1       1.0000 0.60756  0.59971  0.48318  Biso   1.000  H
  H2       1.0000 0.68376  0.62071  0.55313  Biso   1.000  H
  C4       1.0000 0.47946  0.62663  0.69655  Biso   1.000  C
  C5       1.0000 0.47587  0.73749  0.58897  Biso   1.000  C
  O2       1.0000 0.75593  0.43424  0.58410  Biso   1.000  O
  H3       1.0000 0.74775  0.47671  0.47792  Biso   1.000  H
  H4       1.0000 0.64053  0.41924  0.50570  Biso   1.000  H
  C6       1.0000 0.43869  0.70569  0.74303  Biso   1.000  C
  H5       1.0000 0.49300  0.56150  0.71722  Biso   1.000  H
  C7       1.0000 0.44175  0.81793  0.63556  Biso   1.000  C
  O3       1.0000 0.48537  0.74657  0.51219  Biso   1.000  O
  C8       1.0000 0.85226  0.48531  0.60292  Biso   1.000  C
  C9       1.0000 0.41025  0.67956  0.82390  Biso   1.000  C
  C10      1.0000 0.42478  0.80422  0.71262  Biso   1.000  C
  H6       1.0000 0.42981  0.88321  0.61490  Biso   1.000  H
  C11      1.0000 0.42126  0.82926  0.47898  Biso   1.000  C
  C12      1.0000 0.90231  0.45534  0.67090  Biso   1.000  C
  C13      1.0000 0.90396  0.55983  0.56041  Biso   1.000  C
  C14      1.0000 0.51298  0.67389  0.87497  Biso   1.000  C
  H7       1.0000 0.35679  0.73132  0.84300  Biso   1.000  H
  H8       1.0000 0.37347  0.61387  0.82530  Biso   1.000  H
  C15      1.0000 0.39485  0.89852  0.75888  Biso   1.000  C
  H9       1.0000 0.45538  0.89324  0.49069  Biso   1.000  H
  H10      1.0000 0.42008  0.82055  0.42573  Biso   1.000  H
  H11      1.0000 0.34513  0.82959  0.49819  Biso   1.000  H
  C16      1.0000 0.99963  0.50123  0.69392  Biso   1.000  C
  O4       1.0000 0.84976  0.37677  0.70943  Biso   1.000  O
  H12      1.0000 0.87224  0.57863  0.51460  Biso   1.000  H
  C17      1.0000 0.00196  0.60810  0.58365  Biso   1.000  C
  C18      1.0000 0.55114  0.75760  0.91591  Biso   1.000  C
  C19      1.0000 0.57219  0.57907  0.88074  Biso   1.000  C
  H13      1.0000 0.35152  0.94717  0.72830  Biso   1.000  H
  H14      1.0000 0.34735  0.87852  0.80060  Biso   1.000  H
  C20      1.0000 0.49852  0.95082  0.78884  Biso   1.000  C
  C21      1.0000 0.05099  0.57836  0.65186  Biso   1.000  C
  H15      1.0000 0.03245  0.48028  0.73900  Biso   1.000  H
  C22      1.0000 0.85260  0.38068  0.78890  Biso   1.000  C
  C23      1.0000 0.04823  0.69222  0.53347  Biso   1.000  C
  C24      1.0000 0.49003  0.86207  0.91787  Biso   1.000  C
  C25      1.0000 0.63819  0.74549  0.96323  Biso   1.000  C
  C26      1.0000 0.66778  0.74345  0.94621  Biso   1.000  C
  C27      1.0000 0.66818  0.56661  0.92297  Biso   1.000  C
  H16      1.0000 0.54537  0.52281  0.85504  Biso   1.000  H
  C28      1.0000 0.53830  0.93814  0.86220  Biso   1.000  C
  C29      1.0000 0.55768  0.01630  0.74096  Biso   1.000  C
  C30      1.0000 0.15501  0.62710  0.68395  Biso   1.000  C
  H17      1.0000 0.84409  0.45202  0.80441  Biso   1.000  H
  H18      1.0000 0.78836  0.34428  0.80883  Biso   1.000  H
  C31      1.0000 0.95643  0.33634  0.82149  Biso   1.000  C
  C32      1.0000 0.99136  0.79668  0.54675  Biso   1.000  C
  H19      1.0000 0.03806  0.67325  0.48150  Biso   1.000  H
  H20      1.0000 0.12890  0.69716  0.54221  Biso   1.000  H
  H21      1.0000 0.41044  0.85329  0.90689  Biso   1.000  H
  H22      1.0000 0.49499  0.89005  0.96794  Biso   1.000  H
  H23      1.0000 0.65868  0.79979  0.99353  Biso   1.000  H
  C33      1.0000 0.69787  0.65207  0.96721  Biso   1.000  C
  C34      1.0000 0.72683  0.65151  0.94850  Biso   1.000  C
  H24      1.0000 0.70290  0.80107  0.96491  Biso   1.000  H
  O5       1.0000 0.72149  0.47070  0.92980  Biso   1.000  O
  C35      1.0000 0.62928  0.99611  0.88601  Biso   1.000  C
  H25      1.0000 0.53356  0.02380  0.69173  Biso   1.000  H
  C36      1.0000 0.64950  0.06949  0.76370  Biso   1.000  C
  H26      1.0000 0.20097  0.57442  0.70910  Biso   1.000  H
  H27      1.0000 0.19988  0.65449  0.64324  Biso   1.000  H
  C37      1.0000 0.12623  0.71311  0.73900  Biso   1.000  C
  C38      1.0000 0.03862  0.30134  0.84977  Biso   1.000  C
  C39      1.0000 0.89164  0.82106  0.50721  Biso   1.000  C
  C40      1.0000 0.03250  0.87018  0.59536  Biso   1.000  C
  O6       1.0000 0.83215  0.64581  0.98182  Biso   1.000  O
  O7       1.0000 0.78732  0.64126  0.01593  Biso   1.000  O
  C41      1.0000 0.69203  0.41758  0.99532  Biso   1.000  C
  H28      1.0000 0.65388  0.98930  0.93523  Biso   1.000  H
  C42      1.0000 0.68381  0.06296  0.83874  Biso   1.000  C
  O8       1.0000 0.70014  0.13452  0.71285  Biso   1.000  O
  C43      1.0000 0.12063  0.81641  0.71985  Biso   1.000  C
  C44      1.0000 0.10308  0.68472  0.81309  Biso   1.000  C
  H29      1.0000 0.10376  0.27362  0.87212  Biso   1.000  H
  H30      1.0000 0.86360  0.77239  0.47462  Biso   1.000  H
  C45      1.0000 0.83377  0.91371  0.51449  Biso   1.000  C
  C46      1.0000 0.97272  0.96437  0.60275  Biso   1.000  C
  C47      1.0000 0.14058  0.85562  0.64033  Biso   1.000  C
  C48      1.0000 0.92002  0.59686  0.93540  Biso   1.000  C
  H31      1.0000 0.88697  0.59256  0.93361  Biso   1.000  H
  C49      1.0000 0.89436  0.63258  0.97902  Biso   1.000  C
  H32      1.0000 0.61518  0.39597  0.99174  Biso   1.000  H
  H33      1.0000 0.74165  0.35848  0.00154  Biso   1.000  H
  H34      1.0000 0.69869  0.46225  0.03760  Biso   1.000  H
  O9       1.0000 0.76930  0.12618  0.85996  Biso   1.000  O
  C50      1.0000 0.82037  0.12089  0.70215  Biso   1.000  C
  C51      1.0000 0.09456  0.88978  0.77568  Biso   1.000  C
  C52      1.0000 0.07555  0.75632  0.86775  Biso   1.000  C
  H35      1.0000 0.10616  0.61518  0.82603  Biso   1.000  H
  C53      1.0000 0.87431  0.98720  0.56433  Biso   1.000  C
  O10      1.0000 0.73876  0.94424  0.47462  Biso   1.000  O
  H36      1.0000 0.00074  0.01350  0.63489  Biso   1.000  H
  H37      1.0000 0.19085  0.80714  0.61440  Biso   1.000  H
  H38      1.0000 0.17811  0.92082  0.64273  Biso   1.000  H
  C54      1.0000 0.03206  0.62985  0.96234  Biso   1.000  C
  H39      1.0000 0.91562  0.52261  0.93904  Biso   1.000  H
  H40      1.0000 0.90957  0.61701  0.88354  Biso   1.000  H
  C55      1.0000 0.93595  0.73589  0.95982  Biso   1.000  C
  H41      1.0000 0.94843  0.59686  0.01134  Biso   1.000  H
  C56      1.0000 0.79237  0.13087  0.93781  Biso   1.000  C
  C57      1.0000 0.84796  0.15202  0.62274  Biso   1.000  C
  H42      1.0000 0.86046  0.16330  0.73710  Biso   1.000  H
  H43      1.0000 0.84328  0.04946  0.71061  Biso   1.000  H
  H44      1.0000 0.09207  0.95932  0.76291  Biso   1.000  H
  C58      1.0000 0.07245  0.86086  0.84916  Biso   1.000  C
  O11      1.0000 0.05397  0.72932  0.94117  Biso   1.000  O
  O12      1.0000 0.81245  0.07817  0.56870  Biso   1.000  O
  C59      1.0000 0.69800  0.87271  0.42113  Biso   1.000  C
  H45      1.0000 0.09084  0.58387  0.94234  Biso   1.000  H
  H46      1.0000 0.03412  0.62478  0.01643  Biso   1.000  H
  H47      1.0000 0.89356  0.76406  0.91765  Biso   1.000  H
  H48      1.0000 0.92411  0.78172  0.00204  Biso   1.000  H
  H49      1.0000 0.81819  0.06430  0.95534  Biso   1.000  H
  H50      1.0000 0.84997  0.17993  0.94643  Biso   1.000  H
  H51      1.0000 0.72448  0.15147  0.96430  Biso   1.000  H
  H52      1.0000 0.92904  0.16013  0.61809  Biso   1.000  H
  H53      1.0000 0.81110  0.21808  0.61193  Biso   1.000  H
  O13      1.0000 0.04627  0.92666  0.90779  Biso   1.000  O
  H54      1.0000 0.68593  0.80755  0.44622  Biso   1.000  H
  H55      1.0000 0.62537  0.89817  0.40260  Biso   1.000  H
  C60      1.0000 0.77396  0.85475  0.35774  Biso   1.000  C
  C61      1.0000 0.06208  0.03399  0.89637  Biso   1.000  C
  C62      1.0000 0.83345  0.83733  0.30594  Biso   1.000  C
  H56      1.0000 0.01997  0.05655  0.85240  Biso   1.000  H
  H57      1.0000 0.03145  0.07150  0.93909  Biso   1.000  H
  C63      1.0000 0.18084  0.05901  0.88634  Biso   1.000  C
  H58      1.0000 0.88039  0.82352  0.26500  Biso   1.000  H
  C64      1.0000 0.27694  0.08255  0.87844  Biso   1.000  C
  H59      1.0000 0.35193  0.10092  0.87223  Biso   1.000  H
  O14      1.0000 0.46230  0.44316  0.42041  Biso   1.000  O
  C65      1.0000 0.49965  0.35868  0.37885  Biso   1.000  C
  C66      1.0000 0.36682  0.42781  0.46913  Biso   1.000  C
  C67      1.0000 0.52065  0.37322  0.30347  Biso   1.000  C
  C68      1.0000 0.52424  0.26237  0.41105  Biso   1.000  C
  C69      1.0000 0.30513  0.52974  0.48066  Biso   1.000  C
  H60      1.0000 0.39255  0.40014  0.51678  Biso   1.000  H
  H61      1.0000 0.31634  0.37915  0.44689  Biso   1.000  H
  C70      1.0000 0.56142  0.29417  0.25699  Biso   1.000  C
  H62      1.0000 0.50710  0.43835  0.28281  Biso   1.000  H
  C71      1.0000 0.55836  0.18193  0.36446  Biso   1.000  C
  O15      1.0000 0.51474  0.25328  0.48783  Biso   1.000  O
  O16      1.0000 0.24418  0.56561  0.41593  Biso   1.000  O
  H63      1.0000 0.25235  0.52314  0.52211  Biso   1.000  H
  H64      1.0000 0.35957  0.58062  0.49433  Biso   1.000  H
  C72      1.0000 0.58977  0.32029  0.17613  Biso   1.000  C
  C73      1.0000 0.57533  0.19563  0.28740  Biso   1.000  C
  H65      1.0000 0.57030  0.11665  0.38512  Biso   1.000  H
  C74      1.0000 0.57884  0.17067  0.52099  Biso   1.000  C
  C75      1.0000 0.14785  0.51454  0.39711  Biso   1.000  C
  C76      1.0000 0.48712  0.32597  0.12500  Biso   1.000  C
  H66      1.0000 0.64331  0.26861  0.15703  Biso   1.000  H
  H67      1.0000 0.62664  0.38598  0.17473  Biso   1.000  H
  C77      1.0000 0.60525  0.10141  0.24114  Biso   1.000  C
  H68      1.0000 0.54473  0.10661  0.50934  Biso   1.000  H
  H69      1.0000 0.58002  0.17930  0.57430  Biso   1.000  H
  H70      1.0000 0.65489  0.17026  0.50183  Biso   1.000  H
  C78      1.0000 0.09771  0.54451  0.32912  Biso   1.000  C
  C79      1.0000 0.09615  0.44002  0.43961  Biso   1.000  C
  C80      1.0000 0.44897  0.24225  0.08411  Biso   1.000  C
  C81      1.0000 0.42792  0.42078  0.11928  Biso   1.000  C
  C82      1.0000 0.50159  0.04903  0.21118  Biso   1.000  C
  H71      1.0000 0.64858  0.05269  0.27172  Biso   1.000  H
  H72      1.0000 0.65266  0.12141  0.19942  Biso   1.000  H
  C83      1.0000 0.00047  0.49863  0.30611  Biso   1.000  C
  O17      1.0000 0.15034  0.62308  0.29059  Biso   1.000  O
  C84      1.0000 0.99814  0.39176  0.41637  Biso   1.000  C
  H73      1.0000 0.12786  0.42123  0.48542  Biso   1.000  H
  C85      1.0000 0.33233  0.25640  0.05382  Biso   1.000  C
  C86      1.0000 0.51008  0.13778  0.08215  Biso   1.000  C
  C87      1.0000 0.36192  0.25436  0.03679  Biso   1.000  C
  C88      1.0000 0.33192  0.43325  0.07706  Biso   1.000  C
  H74      1.0000 0.45473  0.47704  0.14499  Biso   1.000  H
  C89      1.0000 0.46181  0.06171  0.13782  Biso   1.000  C
  C90      1.0000 0.44243  0.98356  0.25901  Biso   1.000  C
  C91      1.0000 0.94912  0.42149  0.34816  Biso   1.000  C
  H75      1.0000 0.96766  0.51958  0.26102  Biso   1.000  H
  C92      1.0000 0.14750  0.61917  0.21113  Biso   1.000  C
  C93      1.0000 0.95188  0.30764  0.46655  Biso   1.000  C
  H76      1.0000 0.34142  0.20006  0.00650  Biso   1.000  H
  C94      1.0000 0.30224  0.34778  0.03282  Biso   1.000  C
  C95      1.0000 0.27328  0.34835  0.05152  Biso   1.000  C
  H77      1.0000 0.29721  0.19878  0.03511  Biso   1.000  H
  H78      1.0000 0.58967  0.14656  0.09308  Biso   1.000  H
  H79      1.0000 0.50511  0.10980  0.03209  Biso   1.000  H
  O18      1.0000 0.27862  0.52915  0.07023  Biso   1.000  O
  C96      1.0000 0.37082  0.00382  0.11402  Biso   1.000  C
  H80      1.0000 0.46654  0.97605  0.30829  Biso   1.000  H
  C97      1.0000 0.35060  0.93044  0.23633  Biso   1.000  C
  C98      1.0000 0.84501  0.37275  0.31607  Biso   1.000  C
  H81      1.0000 0.15602  0.54783  0.19561  Biso   1.000  H
  H82      1.0000 0.21175  0.65558  0.19119  Biso   1.000  H
  C99      1.0000 0.04359  0.66360  0.17848  Biso   1.000  C
  C100     1.0000 0.00875  0.20317  0.45328  Biso   1.000  C
  H83      1.0000 0.96204  0.32668  0.51852  Biso   1.000  H
  H84      1.0000 0.87112  0.30277  0.45782  Biso   1.000  H
  O19      1.0000 0.16787  0.35412  0.01820  Biso   1.000  O
  O20      1.0000 0.21278  0.35860  0.98410  Biso   1.000  O
  C101     1.0000 0.30808  0.58227  0.00470  Biso   1.000  C
  H85      1.0000 0.34622  0.01056  0.06479  Biso   1.000  H
  C102     1.0000 0.31629  0.93689  0.16129  Biso   1.000  C
  O21      1.0000 0.29996  0.86533  0.28718  Biso   1.000  O
  C103     1.0000 0.87387  0.28675  0.26102  Biso   1.000  C
  H86      1.0000 0.79913  0.42544  0.29093  Biso   1.000  H
  H87      1.0000 0.80022  0.34536  0.35679  Biso   1.000  H
  C104     1.0000 0.96139  0.69859  0.15025  Biso   1.000  C
  C105     1.0000 0.96752  0.12967  0.40467  Biso   1.000  C
  C106     1.0000 0.10846  0.17887  0.49282  Biso   1.000  C
  H88      1.0000 0.11313  0.40730  0.06642  Biso   1.000  H
  C107     1.0000 0.08008  0.40300  0.06463  Biso   1.000  C
  C108     1.0000 0.10574  0.36727  0.02100  Biso   1.000  C
  H89      1.0000 0.38492  0.60388  0.00829  Biso   1.000  H
  H90      1.0000 0.25846  0.64137  0.99849  Biso   1.000  H
  H91      1.0000 0.30133  0.53760  0.96242  Biso   1.000  H
  O22      1.0000 0.23072  0.87367  0.14006  Biso   1.000  O
  C109     1.0000 0.17973  0.87896  0.29787  Biso   1.000  C
  C110     1.0000 0.89702  0.31514  0.18693  Biso   1.000  C
  C111     1.0000 0.87947  0.18344  0.28018  Biso   1.000  C
  H92      1.0000 0.89634  0.72624  0.12791  Biso   1.000  H
  C112     1.0000 0.85953  0.14423  0.35970  Biso   1.000  C
  C113     1.0000 0.02730  0.03549  0.39728  Biso   1.000  C
  C114     1.0000 0.16634  0.08615  0.48554  Biso   1.000  C
  H93      1.0000 0.13642  0.22746  0.52541  Biso   1.000  H
  H94      1.0000 0.08449  0.47724  0.06099  Biso   1.000  H
  H95      1.0000 0.09054  0.38285  0.11648  Biso   1.000  H
  C115     1.0000 0.96804  0.37000  0.03769  Biso   1.000  C
  C116     1.0000 0.06407  0.26396  0.04021  Biso   1.000  C
  H96      1.0000 0.05167  0.40299  0.98869  Biso   1.000  H
  C117     1.0000 0.20773  0.86898  0.06222  Biso   1.000  C
  C118     1.0000 0.15215  0.84784  0.37728  Biso   1.000  C
  H97      1.0000 0.13965  0.83655  0.26293  Biso   1.000  H
  H98      1.0000 0.15682  0.95039  0.28942  Biso   1.000  H
  C119     1.0000 0.92455  0.24361  0.13228  Biso   1.000  C
  H99      1.0000 0.89395  0.38468  0.17400  Biso   1.000  H
  C120     1.0000 0.90555  0.11007  0.22434  Biso   1.000  C
  H100     1.0000 0.80926  0.19279  0.38563  Biso   1.000  H
  H101     1.0000 0.82191  0.07904  0.35729  Biso   1.000  H
  C121     1.0000 0.12571  0.01266  0.43569  Biso   1.000  C
  H102     1.0000 0.99937  0.98636  0.36513  Biso   1.000  H
  O23      1.0000 0.26135  0.05561  0.52541  Biso   1.000  O
  H103     1.0000 0.96598  0.37508  0.98359  Biso   1.000  H
  O24      1.0000 0.94614  0.27053  0.05886  Biso   1.000  O
  H104     1.0000 0.90918  0.41598  0.05768  Biso   1.000  H
  H105     1.0000 0.10655  0.23580  0.08238  Biso   1.000  H
  H106     1.0000 0.07599  0.21814  0.99798  Biso   1.000  H
  H107     1.0000 0.18191  0.93563  0.04469  Biso   1.000  H
  H108     1.0000 0.15014  0.81992  0.05359  Biso   1.000  H
  H109     1.0000 0.27562  0.84838  0.03567  Biso   1.000  H
  O25      1.0000 0.18765  0.92168  0.43133  Biso   1.000  O
  H110     1.0000 0.07106  0.83980  0.38193  Biso   1.000  H
  H111     1.0000 0.18901  0.78178  0.38809  Biso   1.000  H
  C122     1.0000 0.92766  0.13900  0.15087  Biso   1.000  C
  H112     1.0000 0.90803  0.04061  0.23711  Biso   1.000  H
  C123     1.0000 0.30202  0.12715  0.57889  Biso   1.000  C
  O26      1.0000 0.95375  0.07319  0.09224  Biso   1.000  O
  H113     1.0000 0.31417  0.19231  0.55380  Biso   1.000  H
  H114     1.0000 0.37473  0.10176  0.59743  Biso   1.000  H
  C124     1.0000 0.22615  0.14510  0.64229  Biso   1.000  C
  C125     1.0000 0.93803  0.96586  0.10366  Biso   1.000  C
  C126     1.0000 0.16665  0.16253  0.69409  Biso   1.000  C
  H115     1.0000 0.98013  0.94330  0.14762  Biso   1.000  H
  H116     1.0000 0.96865  0.92843  0.06087  Biso   1.000  H
  C127     1.0000 0.81926  0.94092  0.11368  Biso   1.000  C
  H117     1.0000 0.11972  0.17633  0.73502  Biso   1.000  H
  C128     1.0000 0.72317  0.91730  0.12158  Biso   1.000  C
  H118     1.0000 0.64817  0.89901  0.12780  Biso   1.000  H
