data_image0
_cell_length_a       13.334
_cell_length_b       20.593
_cell_length_c       15.411
_cell_angle_alpha    90
_cell_angle_beta     103.84
_cell_angle_gamma    90

_symmetry_space_group_name_H-M    "P 1"
_symmetry_int_tables_number       1

loop_
  _symmetry_equiv_pos_as_xyz
  'x, y, z'

loop_
  _atom_site_label
  _atom_site_occupancy
  _atom_site_fract_x
  _atom_site_fract_y
  _atom_site_fract_z
  _atom_site_thermal_displace_type
  _atom_site_B_iso_or_equiv
  _atom_site_type_symbol
  O1       1.0000 0.58112  0.65498  0.50743  Biso   1.000  O
  C1       1.0000 0.51558  0.67892  0.54138  Biso   1.000  C
  N1       1.0000 0.41751  0.69820  0.49507  Biso   1.000  N
  N2       1.0000 0.52478  0.68970  0.63080  Biso   1.000  N
  C2       1.0000 0.37512  0.67931  0.40331  Biso   1.000  C
  C3       1.0000 0.35552  0.71811  0.55648  Biso   1.000  C
  C4       1.0000 0.42969  0.71422  0.64898  Biso   1.000  C
  C5       1.0000 0.61217  0.67110  0.69923  Biso   1.000  C
  N3       1.0000 0.35193  0.73438  0.34303  Biso   1.000  N
  H1       1.0000 0.31097  0.65411  0.39970  Biso   1.000  H
  H2       1.0000 0.42501  0.65061  0.38360  Biso   1.000  H
  N4       1.0000 0.32411  0.78561  0.54760  Biso   1.000  N
  H3       1.0000 0.29483  0.68878  0.55207  Biso   1.000  H
  N5       1.0000 0.43434  0.77978  0.68072  Biso   1.000  N
  H4       1.0000 0.40294  0.68421  0.68921  Biso   1.000  H
  N6       1.0000 0.68118  0.72389  0.73398  Biso   1.000  N
  H5       1.0000 0.65118  0.63740  0.67511  Biso   1.000  H
  H6       1.0000 0.58761  0.65129  0.74902  Biso   1.000  H
  C6       1.0000 0.25640  0.77021  0.32980  Biso   1.000  C
  C7       1.0000 0.39370  0.73909  0.27032  Biso   1.000  C
  C8       1.0000 0.36540  0.82008  0.62532  Biso   1.000  C
  C9       1.0000 0.23810  0.81042  0.48117  Biso   1.000  C
  C10      1.0000 0.48027  0.79838  0.77228  Biso   1.000  C
  C11      1.0000 0.66999  0.76439  0.81017  Biso   1.000  C
  C12      1.0000 0.77862  0.72860  0.72022  Biso   1.000  C
  N7       1.0000 0.25771  0.82081  0.39449  Biso   1.000  N
  H7       1.0000 0.19588  0.74059  0.32519  Biso   1.000  H
  C13      1.0000 0.24999  0.80741  0.24179  Biso   1.000  C
  O2       1.0000 0.47113  0.70990  0.26070  Biso   1.000  O
  N8       1.0000 0.33920  0.78449  0.21292  Biso   1.000  N
  O3       1.0000 0.34246  0.87491  0.64029  Biso   1.000  O
  H8       1.0000 0.21643  0.85218  0.50289  Biso   1.000  H
  H9       1.0000 0.17982  0.77968  0.47489  Biso   1.000  H
  N9       1.0000 0.58867  0.81280  0.78811  Biso   1.000  N
  H10      1.0000 0.44384  0.83708  0.78751  Biso   1.000  H
  H11      1.0000 0.47047  0.76269  0.81251  Biso   1.000  H
  C14      1.0000 0.76843  0.80668  0.82768  Biso   1.000  C
  H12      1.0000 0.66559  0.73782  0.86343  Biso   1.000  H
  O4       1.0000 0.81281  0.69528  0.66729  Biso   1.000  O
  N10      1.0000 0.83102  0.77551  0.77441  Biso   1.000  N
  C15      1.0000 0.25570  0.88190  0.35767  Biso   1.000  C
  N11      1.0000 0.25702  0.87481  0.26939  Biso   1.000  N
  H13      1.0000 0.18410  0.79809  0.19661  Biso   1.000  H
  C16      1.0000 0.33906  0.78352  0.11909  Biso   1.000  C
  C17      1.0000 0.62700  0.87389  0.78297  Biso   1.000  C
  N12      1.0000 0.73113  0.87068  0.79747  Biso   1.000  N
  H14      1.0000 0.80450  0.80688  0.89250  Biso   1.000  H
  C18      1.0000 0.93693  0.79158  0.77963  Biso   1.000  C
  O5       1.0000 0.25201  0.93362  0.39529  Biso   1.000  O
  C19      1.0000 0.22338  0.92599  0.20550  Biso   1.000  C
  N13      1.0000 0.36692  0.84650  0.08721  Biso   1.000  N
  H15      1.0000 0.26951  0.77099  0.08400  Biso   1.000  H
  H16      1.0000 0.38860  0.75030  0.10893  Biso   1.000  H
  O6       1.0000 0.57382  0.92352  0.76532  Biso   1.000  O
  C20      1.0000 0.79179  0.92988  0.82647  Biso   1.000  C
  N14      1.0000 0.95112  0.85150  0.73599  Biso   1.000  N
  H17      1.0000 0.96860  0.75589  0.75229  Biso   1.000  H
  H18      1.0000 0.97404  0.79449  0.84331  Biso   1.000  H
  N15      1.0000 0.29362  0.93901  0.14923  Biso   1.000  N
  H19      1.0000 0.21451  0.96620  0.23798  Biso   1.000  H
  H20      1.0000 0.15509  0.91419  0.16707  Biso   1.000  H
  C21      1.0000 0.29562  0.89972  0.07211  Biso   1.000  C
  C22      1.0000 0.44180  0.85291  0.04150  Biso   1.000  C
  N16      1.0000 0.86077  0.94629  0.77080  Biso   1.000  N
  H21      1.0000 0.74382  0.96659  0.82627  Biso   1.000  H
  H22      1.0000 0.83260  0.92381  0.88862  Biso   1.000  H
  C23      1.0000 0.95829  0.91361  0.77983  Biso   1.000  C
  C24      1.0000 0.99001  0.85301  0.66181  Biso   1.000  C
  C25      1.0000 0.32250  0.00282  0.13947  Biso   1.000  C
  H23      1.0000 0.22460  0.88491  0.04117  Biso   1.000  H
  C26      1.0000 0.34092  0.94629  0.01163  Biso   1.000  C
  O7       1.0000 0.50499  0.81032  0.03569  Biso   1.000  O
  N17      1.0000 0.43348  0.91259  0.00381  Biso   1.000  N
  C27      1.0000 0.85817  0.00660  0.73017  Biso   1.000  C
  H24      1.0000 0.99763  0.91070  0.84372  Biso   1.000  H
  C28      1.0000 0.01448  0.95659  0.72402  Biso   1.000  C
  O8       1.0000 0.99680  0.80668  0.61342  Biso   1.000  O
  N18      1.0000 0.02120  0.91502  0.65011  Biso   1.000  N
  O9       1.0000 0.31820  0.04710  0.19040  Biso   1.000  O
  N19      1.0000 0.35959  0.00529  0.06342  Biso   1.000  N
  H25      1.0000 0.29202  0.95329  0.95222  Biso   1.000  H
  C29      1.0000 0.49151  0.93192  0.93892  Biso   1.000  C
  O10      1.0000 0.79036  0.04691  0.72309  Biso   1.000  O
  N20      1.0000 0.94593  0.01180  0.69850  Biso   1.000  N
  H26      1.0000 0.08431  0.97028  0.75931  Biso   1.000  H
  C30      1.0000 0.09097  0.92740  0.59297  Biso   1.000  C
  C31      1.0000 0.37622  0.06740  0.02372  Biso   1.000  C
  N21      1.0000 0.56107  0.98490  0.96779  Biso   1.000  N
  H27      1.0000 0.53141  0.89409  0.92589  Biso   1.000  H
  H28      1.0000 0.44209  0.94440  0.88251  Biso   1.000  H
  C32      1.0000 0.98192  0.07328  0.67110  Biso   1.000  C
  N22      1.0000 0.05292  0.97621  0.52668  Biso   1.000  N
  H29      1.0000 0.15859  0.94139  0.63033  Biso   1.000  H
  H30      1.0000 0.10193  0.88651  0.56263  Biso   1.000  H
  H31      1.0000 0.33408  0.06891  0.96137  Biso   1.000  H
  N23      1.0000 0.48423  0.07881  0.02379  Biso   1.000  N
  H32      1.0000 0.35197  0.10280  0.05727  Biso   1.000  H
  C33      1.0000 0.66641  0.97689  0.98750  Biso   1.000  C
  C34      1.0000 0.53097  0.05230  0.95549  Biso   1.000  C
  N24      1.0000 0.98499  0.07512  0.57747  Biso   1.000  N
  H33      1.0000 0.93604  0.10839  0.68252  Biso   1.000  H
  H34      1.0000 0.05214  0.08202  0.70832  Biso   1.000  H
  C35      1.0000 0.03820  0.96188  0.43793  Biso   1.000  C
  C36      1.0000 0.06730  0.04472  0.54479  Biso   1.000  C
  C37      1.0000 0.53989  0.12519  0.07512  Biso   1.000  C
  O11      1.0000 0.71276  0.92502  0.99539  Biso   1.000  O
  N25      1.0000 0.71028  0.03681  0.99292  Biso   1.000  N
  H35      1.0000 0.48821  0.06099  0.89388  Biso   1.000  H
  C38      1.0000 0.63723  0.09008  0.97501  Biso   1.000  C
  C39      1.0000 0.93303  0.11980  0.51919  Biso   1.000  C
  O12      1.0000 0.02713  0.90744  0.40438  Biso   1.000  O
  N26      1.0000 0.03620  0.01908  0.39162  Biso   1.000  N
  C40      1.0000 0.05381  0.07498  0.45043  Biso   1.000  C
  H36      1.0000 0.13700  0.05429  0.58422  Biso   1.000  H
  O13      1.0000 0.51526  0.15738  0.13359  Biso   1.000  O
  N27      1.0000 0.63338  0.12980  0.05059  Biso   1.000  N
  C41      1.0000 0.82158  0.04671  0.01029  Biso   1.000  C
  H37      1.0000 0.64480  0.11669  0.92261  Biso   1.000  H
  O14      1.0000 0.86729  0.15772  0.53423  Biso   1.000  O
  N28      1.0000 0.96687  0.11761  0.44167  Biso   1.000  N
  C42      1.0000 0.05317  0.02088  0.30327  Biso   1.000  C
  H38      1.0000 0.11711  0.09931  0.44528  Biso   1.000  H
  C43      1.0000 0.70717  0.18050  0.08420  Biso   1.000  C
  H39      1.0000 0.85387  0.00660  0.99419  Biso   1.000  H
  H40      1.0000 0.83550  0.08202  0.97113  Biso   1.000  H
  N29      1.0000 0.86939  0.06289  0.10131  Biso   1.000  N
  C44      1.0000 0.94943  0.17049  0.37752  Biso   1.000  C
  N30      1.0000 0.96920  0.05089  0.23851  Biso   1.000  N
  H41      1.0000 0.06289  0.97601  0.28389  Biso   1.000  H
  H42      1.0000 0.11757  0.04531  0.30481  Biso   1.000  H
  N31      1.0000 0.79368  0.15899  0.15297  Biso   1.000  N
  H43      1.0000 0.73297  0.19842  0.03402  Biso   1.000  H
  H44      1.0000 0.67169  0.21600  0.10833  Biso   1.000  H
  C45      1.0000 0.88437  0.12898  0.13459  Biso   1.000  C
  C46      1.0000 0.92390  0.01899  0.16039  Biso   1.000  C
  N32      1.0000 0.90041  0.15068  0.28837  Biso   1.000  N
  H45      1.0000 0.90580  0.20381  0.39710  Biso   1.000  H
  H46      1.0000 0.01650  0.19089  0.37732  Biso   1.000  H
  C47      1.0000 0.95672  0.12101  0.22782  Biso   1.000  C
  C48      1.0000 0.80800  0.17681  0.24139  Biso   1.000  C
  H47      1.0000 0.91603  0.15690  0.09530  Biso   1.000  H
  O15      1.0000 0.93090  0.96018  0.14582  Biso   1.000  O
  H48      1.0000 0.02453  0.14301  0.23170  Biso   1.000  H
  O16      1.0000 0.75089  0.21090  0.27353  Biso   1.000  O
  O17      1.0000 0.20959  0.54688  0.27687  Biso   1.000  O
  C49      1.0000 0.14179  0.50658  0.26979  Biso   1.000  C
  N33      1.0000 0.13920  0.44632  0.22922  Biso   1.000  N
  N34      1.0000 0.05412  0.51178  0.30153  Biso   1.000  N
  C50      1.0000 0.04168  0.41359  0.22020  Biso   1.000  C
  C51      1.0000 0.20823  0.42990  0.17349  Biso   1.000  C
  C52      1.0000 0.98549  0.45661  0.27600  Biso   1.000  C
  C53      1.0000 0.01812  0.57330  0.32893  Biso   1.000  C
  N35      1.0000 0.04891  0.35148  0.26397  Biso   1.000  N
  H49      1.0000 0.00242  0.41072  0.15631  Biso   1.000  H
  N36      1.0000 0.26890  0.37071  0.20249  Biso   1.000  N
  H50      1.0000 0.25621  0.46661  0.17369  Biso   1.000  H
  H51      1.0000 0.16737  0.42378  0.11140  Biso   1.000  H
  N37      1.0000 0.97877  0.41500  0.34992  Biso   1.000  N
  H52      1.0000 0.91573  0.47031  0.24072  Biso   1.000  H
  N38      1.0000 0.01496  0.57510  0.42249  Biso   1.000  N
  H53      1.0000 0.06401  0.60841  0.31750  Biso   1.000  H
  H54      1.0000 0.94791  0.58199  0.29171  Biso   1.000  H
  C54      1.0000 0.06311  0.29160  0.22040  Biso   1.000  C
  C55      1.0000 0.01004  0.35298  0.33822  Biso   1.000  C
  C56      1.0000 0.23160  0.30671  0.17228  Biso   1.000  C
  C57      1.0000 0.37303  0.37391  0.21699  Biso   1.000  C
  C58      1.0000 0.90898  0.42738  0.40699  Biso   1.000  C
  C59      1.0000 0.93273  0.54470  0.45517  Biso   1.000  C
  C60      1.0000 0.06700  0.61982  0.48077  Biso   1.000  C
  N39      1.0000 0.16902  0.27548  0.22561  Biso   1.000  N
  H55      1.0000 0.03143  0.25591  0.24767  Biso   1.000  H
  H56      1.0000 0.02600  0.29452  0.15671  Biso   1.000  H
  O18      1.0000 0.00317  0.30671  0.38661  Biso   1.000  O
  C61      1.0000 0.33003  0.26441  0.18979  Biso   1.000  C
  H57      1.0000 0.19547  0.30690  0.10753  Biso   1.000  H
  N40      1.0000 0.41130  0.31278  0.21191  Biso   1.000  N
  O19      1.0000 0.42622  0.42349  0.23470  Biso   1.000  O
  N41      1.0000 0.94711  0.47618  0.47328  Biso   1.000  N
  H58      1.0000 0.84137  0.44141  0.36970  Biso   1.000  H
  H59      1.0000 0.89811  0.38649  0.43740  Biso   1.000  H
  C62      1.0000 0.94623  0.57500  0.54960  Biso   1.000  C
  H60      1.0000 0.86297  0.55431  0.41581  Biso   1.000  H
  O20      1.0000 0.13268  0.65770  0.46580  Biso   1.000  O
  N42      1.0000 0.03308  0.61759  0.55829  Biso   1.000  N
  C63      1.0000 0.22143  0.22862  0.27981  Biso   1.000  C
  N43      1.0000 0.31877  0.22391  0.26598  Biso   1.000  N
  H61      1.0000 0.33438  0.23780  0.13660  Biso   1.000  H
  C64      1.0000 0.51968  0.29840  0.22769  Biso   1.000  C
  C65      1.0000 0.96176  0.46190  0.56210  Biso   1.000  C
  N44      1.0000 0.96377  0.51911  0.60841  Biso   1.000  N
  H62      1.0000 0.88292  0.59928  0.55468  Biso   1.000  H
  C66      1.0000 0.05061  0.67052  0.62251  Biso   1.000  C
  O21      1.0000 0.18722  0.19531  0.33267  Biso   1.000  O
  C67      1.0000 0.38780  0.17108  0.30080  Biso   1.000  C
  N45      1.0000 0.56571  0.27980  0.31931  Biso   1.000  N
  H63      1.0000 0.55620  0.33710  0.21252  Biso   1.000  H
  H64      1.0000 0.52950  0.26271  0.18752  Biso   1.000  H
  O22      1.0000 0.97290  0.40747  0.59558  Biso   1.000  O
  C68      1.0000 0.94678  0.52091  0.69669  Biso   1.000  C
  N46      1.0000 0.09962  0.65071  0.71159  Biso   1.000  N
  H65      1.0000 0.09417  0.70378  0.60293  Biso   1.000  H
  H66      1.0000 0.98347  0.69091  0.62271  Biso   1.000  H
  N47      1.0000 0.47519  0.18968  0.36923  Biso   1.000  N
  H67      1.0000 0.34879  0.13738  0.32492  Biso   1.000  H
  H68      1.0000 0.41243  0.15131  0.25101  Biso   1.000  H
  C69      1.0000 0.57026  0.21420  0.35099  Biso   1.000  C
  C70      1.0000 0.63457  0.32011  0.37471  Biso   1.000  C
  N48      1.0000 0.03077  0.55092  0.76152  Biso   1.000  N
  H69      1.0000 0.93706  0.47599  0.71607  Biso   1.000  H
  H70      1.0000 0.88240  0.54528  0.69522  Biso   1.000  H
  C71      1.0000 0.04333  0.62099  0.77221  Biso   1.000  C
  C72      1.0000 0.19203  0.67678  0.75858  Biso   1.000  C
  C73      1.0000 0.48437  0.17890  0.45858  Biso   1.000  C
  H71      1.0000 0.59711  0.18419  0.31082  Biso   1.000  H
  C74      1.0000 0.64451  0.21808  0.44348  Biso   1.000  C
  N49      1.0000 0.67593  0.28558  0.45243  Biso   1.000  N
  O23      1.0000 0.65749  0.37488  0.35967  Biso   1.000  O
  C75      1.0000 0.07613  0.51901  0.83957  Biso   1.000  C
  C76      1.0000 0.11558  0.62900  0.86537  Biso   1.000  C
  H72      1.0000 0.97551  0.64299  0.76833  Biso   1.000  H
  O24      1.0000 0.24908  0.71092  0.72650  Biso   1.000  O
  N50      1.0000 0.20627  0.65901  0.84699  Biso   1.000  N
  O25      1.0000 0.41893  0.15500  0.49260  Biso   1.000  O
  N51      1.0000 0.58252  0.19822  0.50489  Biso   1.000  N
  H73      1.0000 0.70520  0.18880  0.44789  Biso   1.000  H
  C77      1.0000 0.76193  0.31040  0.51879  Biso   1.000  C
  O26      1.0000 0.06907  0.46020  0.85421  Biso   1.000  O
  N52      1.0000 0.13058  0.56291  0.89872  Biso   1.000  N
  H74      1.0000 0.08402  0.65692  0.90473  Biso   1.000  H
  C78      1.0000 0.29280  0.68052  0.91582  Biso   1.000  C
  C79      1.0000 0.62493  0.17928  0.59672  Biso   1.000  C
  N53      1.0000 0.74232  0.32079  0.60547  Biso   1.000  N
  H75      1.0000 0.78359  0.35221  0.49707  Biso   1.000  H
  H76      1.0000 0.82021  0.27971  0.52507  Biso   1.000  H
  C80      1.0000 0.17837  0.54669  0.98967  Biso   1.000  C
  N54      1.0000 0.36657  0.62978  0.94937  Biso   1.000  N
  H77      1.0000 0.26700  0.69839  0.96601  Biso   1.000  H
  H78      1.0000 0.32828  0.71602  0.89170  Biso   1.000  H
  N55      1.0000 0.64812  0.23440  0.65700  Biso   1.000  N
  H79      1.0000 0.68900  0.15408  0.60032  Biso   1.000  H
  H80      1.0000 0.57503  0.15059  0.61643  Biso   1.000  H
  C81      1.0000 0.74357  0.27019  0.67023  Biso   1.000  C
  C82      1.0000 0.74432  0.38188  0.64229  Biso   1.000  C
  N56      1.0000 0.28969  0.53678  0.00711  Biso   1.000  N
  H81      1.0000 0.14608  0.50658  0.00578  Biso   1.000  H
  H82      1.0000 0.16447  0.58199  0.02890  Biso   1.000  H
  C83      1.0000 0.36281  0.59010  0.02502  Biso   1.000  C
  C84      1.0000 0.46008  0.62521  0.92491  Biso   1.000  C
  C85      1.0000 0.60627  0.23911  0.72971  Biso   1.000  C
  H83      1.0000 0.80408  0.24062  0.67477  Biso   1.000  H
  C86      1.0000 0.74996  0.30739  0.75817  Biso   1.000  C
  O27      1.0000 0.74802  0.43359  0.60467  Biso   1.000  O
  N57      1.0000 0.74301  0.37479  0.73057  Biso   1.000  N
  C87      1.0000 0.33363  0.47691  0.01253  Biso   1.000  C
  C88      1.0000 0.46898  0.55232  0.04447  Biso   1.000  C
  H84      1.0000 0.35517  0.61671  0.07742  Biso   1.000  H
  N58      1.0000 0.51580  0.57879  0.97617  Biso   1.000  N
  O28      1.0000 0.48469  0.65741  0.86637  Biso   1.000  O
  O29      1.0000 0.52891  0.20988  0.73933  Biso   1.000  O
  N59      1.0000 0.66077  0.28451  0.78711  Biso   1.000  N
  H85      1.0000 0.81587  0.29811  0.80342  Biso   1.000  H
  C89      1.0000 0.77659  0.42602  0.79453  Biso   1.000  C
  N60      1.0000 0.43888  0.48492  0.03217  Biso   1.000  N
  O30      1.0000 0.28719  0.42500  0.00457  Biso   1.000  O
  H86      1.0000 0.51182  0.56102  0.10609  Biso   1.000  H
  C90      1.0000 0.62383  0.56738  0.97630  Biso   1.000  C
  C91      1.0000 0.66089  0.28349  0.88087  Biso   1.000  C
  N61      1.0000 0.70642  0.43898  0.85080  Biso   1.000  N
  H87      1.0000 0.78551  0.46618  0.76198  Biso   1.000  H
  H88      1.0000 0.84487  0.41422  0.83289  Biso   1.000  H
  C92      1.0000 0.50853  0.43189  0.06111  Biso   1.000  C
  N62      1.0000 0.64038  0.50532  0.93661  Biso   1.000  N
  H89      1.0000 0.64798  0.60278  0.94269  Biso   1.000  H
  H90      1.0000 0.66587  0.56888  0.03859  Biso   1.000  H
  N63      1.0000 0.63312  0.34648  0.91282  Biso   1.000  N
  H91      1.0000 0.73053  0.27101  0.91602  Biso   1.000  H
  H92      1.0000 0.61137  0.25028  0.89110  Biso   1.000  H
  C93      1.0000 0.70442  0.39970  0.92792  Biso   1.000  C
  C94      1.0000 0.67753  0.50279  0.86049  Biso   1.000  C
  N64      1.0000 0.56649  0.41262  0.99622  Biso   1.000  N
  H93      1.0000 0.46862  0.39411  0.07407  Biso   1.000  H
  H94      1.0000 0.55787  0.44442  0.11751  Biso   1.000  H
  C95      1.0000 0.65912  0.44632  0.98840  Biso   1.000  C
  C96      1.0000 0.55824  0.35289  0.95853  Biso   1.000  C
  H95      1.0000 0.77543  0.38489  0.95879  Biso   1.000  H
  O31      1.0000 0.68184  0.54708  0.80963  Biso   1.000  O
  H96      1.0000 0.70802  0.45331  0.04781  Biso   1.000  H
  O32      1.0000 0.49496  0.31030  0.96427  Biso   1.000  O
