data_image0
_cell_length_a       8.634
_cell_length_b       18.17
_cell_length_c       10.884
_cell_angle_alpha    90
_cell_angle_beta     112.03
_cell_angle_gamma    90

_symmetry_space_group_name_H-M    "P 1"
_symmetry_int_tables_number       1

loop_
  _symmetry_equiv_pos_as_xyz
  'x, y, z'

loop_
  _atom_site_label
  _atom_site_occupancy
  _atom_site_fract_x
  _atom_site_fract_y
  _atom_site_fract_z
  _atom_site_thermal_displace_type
  _atom_site_B_iso_or_equiv
  _atom_site_type_symbol
  C1       1.0000 0.38534  0.57711  0.33927  Biso   1.000  C
  N1       1.0000 0.33585  0.64948  0.32401  Biso   1.000  N
  C2       1.0000 0.53007  0.57380  0.32153  Biso   1.000  C
  C3       1.0000 0.18564  0.67980  0.33848  Biso   1.000  C
  C4       1.0000 0.44968  0.68789  0.29873  Biso   1.000  C
  N2       1.0000 0.56975  0.64298  0.29596  Biso   1.000  N
  C5       1.0000 0.12716  0.74838  0.25472  Biso   1.000  C
  C6       1.0000 0.71936  0.66582  0.26870  Biso   1.000  C
  C7       1.0000 0.03513  0.74062  0.11814  Biso   1.000  C
  C8       1.0000 0.17132  0.81789  0.30745  Biso   1.000  C
  C9       1.0000 0.68225  0.73418  0.18336  Biso   1.000  C
  C10      1.0000 0.99168  0.80198  0.03826  Biso   1.000  C
  C11      1.0000 0.12678  0.87931  0.22747  Biso   1.000  C
  C12      1.0000 0.72396  0.80330  0.24045  Biso   1.000  C
  C13      1.0000 0.59395  0.72510  0.04609  Biso   1.000  C
  C14      1.0000 0.03692  0.87149  0.09277  Biso   1.000  C
  C15      1.0000 0.90869  0.79241  0.88969  Biso   1.000  C
  C16      1.0000 0.18021  0.95509  0.28486  Biso   1.000  C
  C17      1.0000 0.68089  0.86610  0.15769  Biso   1.000  C
  C18      1.0000 0.81397  0.81392  0.38942  Biso   1.000  C
  C19      1.0000 0.54765  0.78872  0.96680  Biso   1.000  C
  C20      1.0000 0.54580  0.65003  0.98860  Biso   1.000  C
  N3       1.0000 0.03039  0.80429  0.82814  Biso   1.000  N
  N4       1.0000 0.34201  0.97622  0.27603  Biso   1.000  N
  C21      1.0000 0.71865  0.94172  0.21795  Biso   1.000  C
  C22      1.0000 0.59036  0.85922  0.02062  Biso   1.000  C
  C23      1.0000 0.43875  0.78200  0.82001  Biso   1.000  C
  C24      1.0000 0.01278  0.84612  0.72060  Biso   1.000  C
  C25      1.0000 0.18217  0.77672  0.87234  Biso   1.000  C
  C26      1.0000 0.43609  0.93550  0.23520  Biso   1.000  C
  C27      1.0000 0.42149  0.04111  0.31945  Biso   1.000  C
  N5       1.0000 0.57743  0.97039  0.25096  Biso   1.000  N
  C28      1.0000 0.53690  0.92642  0.93498  Biso   1.000  C
  N6       1.0000 0.26365  0.79890  0.79800  Biso   1.000  N
  C29      1.0000 0.15849  0.84320  0.70077  Biso   1.000  C
  C30      1.0000 0.57073  0.03698  0.30537  Biso   1.000  C
  C31      1.0000 0.57848  0.54111  0.68062  Biso   1.000  C
  C32      1.0000 0.42920  0.53698  0.69459  Biso   1.000  C
  N7       1.0000 0.65796  0.47622  0.72403  Biso   1.000  N
  N8       1.0000 0.42250  0.47039  0.74901  Biso   1.000  N
  C33      1.0000 0.56384  0.43550  0.76477  Biso   1.000  C
  C34      1.0000 0.81983  0.45509  0.71511  Biso   1.000  C
  C35      1.0000 0.28128  0.44172  0.78201  Biso   1.000  C
  C36      1.0000 0.87314  0.37931  0.77250  Biso   1.000  C
  C37      1.0000 0.31904  0.36610  0.84228  Biso   1.000  C
  C38      1.0000 0.96313  0.37149  0.90720  Biso   1.000  C
  C39      1.0000 0.82872  0.31789  0.69251  Biso   1.000  C
  C40      1.0000 0.27597  0.30330  0.75952  Biso   1.000  C
  C41      1.0000 0.40957  0.35922  0.97935  Biso   1.000  C
  C42      1.0000 0.00836  0.30198  0.96171  Biso   1.000  C
  C43      1.0000 0.87293  0.24838  0.74534  Biso   1.000  C
  C44      1.0000 0.18600  0.31392  0.61064  Biso   1.000  C
  C45      1.0000 0.31767  0.23418  0.81661  Biso   1.000  C
  C46      1.0000 0.45227  0.28872  0.03317  Biso   1.000  C
  C47      1.0000 0.46315  0.42642  0.06499  Biso   1.000  C
  C48      1.0000 0.09124  0.29241  0.11028  Biso   1.000  C
  C49      1.0000 0.96496  0.24062  0.88192  Biso   1.000  C
  C50      1.0000 0.81429  0.17980  0.66149  Biso   1.000  C
  C51      1.0000 0.28057  0.16582  0.73127  Biso   1.000  C
  C52      1.0000 0.40609  0.22510  0.95388  Biso   1.000  C
  C53      1.0000 0.56117  0.28200  0.17996  Biso   1.000  C
  N9       1.0000 0.96959  0.30429  0.17193  Biso   1.000  N
  N10      1.0000 0.66419  0.14948  0.67596  Biso   1.000  N
  N11      1.0000 0.43017  0.14298  0.70401  Biso   1.000  N
  C54      1.0000 0.45424  0.15003  0.01137  Biso   1.000  C
  N12      1.0000 0.73628  0.29890  0.20196  Biso   1.000  N
  C55      1.0000 0.81792  0.27672  0.12773  Biso   1.000  C
  C56      1.0000 0.98715  0.34612  0.27937  Biso   1.000  C
  C57      1.0000 0.55029  0.18789  0.70133  Biso   1.000  C
  C58      1.0000 0.61458  0.07711  0.66070  Biso   1.000  C
  C59      1.0000 0.46990  0.07380  0.67854  Biso   1.000  C
  C60      1.0000 0.84155  0.34320  0.29919  Biso   1.000  C
