data_image0
_cell_length_a       12.002
_cell_length_b       12.588
_cell_length_c       13.041
_cell_angle_alpha    118.59
_cell_angle_beta     94.74
_cell_angle_gamma    104.46

_symmetry_space_group_name_H-M    "P 1"
_symmetry_int_tables_number       1

loop_
  _symmetry_equiv_pos_as_xyz
  'x, y, z'

loop_
  _atom_site_label
  _atom_site_occupancy
  _atom_site_fract_x
  _atom_site_fract_y
  _atom_site_fract_z
  _atom_site_thermal_displace_type
  _atom_site_B_iso_or_equiv
  _atom_site_type_symbol
  N1       1.0000 0.32878  0.67508  0.73032  Biso   1.000  N
  C1       1.0000 0.40968  0.62941  0.65569  Biso   1.000  C
  C2       1.0000 0.40960  0.62941  0.65569  Biso   1.000  C
  C3       1.0000 0.33658  0.80814  0.78920  Biso   1.000  C
  C4       1.0000 0.27678  0.61492  0.78606  Biso   1.000  C
  C5       1.0000 0.33650  0.80814  0.78920  Biso   1.000  C
  C6       1.0000 0.27670  0.61492  0.78606  Biso   1.000  C
  N2       1.0000 0.37172  0.59759  0.53270  Biso   1.000  N
  H1       1.0000 0.48723  0.69491  0.69175  Biso   1.000  H
  H2       1.0000 0.41739  0.55394  0.65452  Biso   1.000  H
  N3       1.0000 0.32886  0.67508  0.73032  Biso   1.000  N
  H3       1.0000 0.41731  0.55394  0.65452  Biso   1.000  H
  N4       1.0000 0.27417  0.84200  0.71539  Biso   1.000  N
  N5       1.0000 0.27408  0.84200  0.71539  Biso   1.000  N
  C7       1.0000 0.26478  0.82201  0.88532  Biso   1.000  C
  H4       1.0000 0.41883  0.86532  0.82580  Biso   1.000  H
  C8       1.0000 0.26469  0.82201  0.88532  Biso   1.000  C
  N6       1.0000 0.23001  0.69643  0.87093  Biso   1.000  N
  O1       1.0000 0.27222  0.50894  0.76601  Biso   1.000  O
  C9       1.0000 0.35090  0.47680  0.43596  Biso   1.000  C
  C10      1.0000 0.35082  0.47680  0.43596  Biso   1.000  C
  C11      1.0000 0.39890  0.69319  0.49898  Biso   1.000  C
  C12      1.0000 0.39882  0.69319  0.49898  Biso   1.000  C
  C13      1.0000 0.32900  0.87722  0.63690  Biso   1.000  C
  C14      1.0000 0.32892  0.87722  0.63690  Biso   1.000  C
  C15      1.0000 0.18187  0.88063  0.75882  Biso   1.000  C
  N7       1.0000 0.16817  0.85642  0.85043  Biso   1.000  N
  N8       1.0000 0.16809  0.85642  0.85043  Biso   1.000  N
  H5       1.0000 0.31265  0.88823  0.96641  Biso   1.000  H
  C16      1.0000 0.17864  0.67113  0.95715  Biso   1.000  C
  N9       1.0000 0.34563  0.48415  0.33535  Biso   1.000  N
  N10      1.0000 0.34554  0.48415  0.33535  Biso   1.000  N
  O2       1.0000 0.34279  0.38130  0.44234  Biso   1.000  O
  O3       1.0000 0.34271  0.38130  0.44234  Biso   1.000  O
  C17      1.0000 0.37248  0.61328  0.35990  Biso   1.000  C
  C18      1.0000 0.37240  0.61328  0.35990  Biso   1.000  C
  H6       1.0000 0.48175  0.74898  0.53423  Biso   1.000  H
  N11      1.0000 0.31886  0.76710  0.52038  Biso   1.000  N
  H7       1.0000 0.41202  0.92585  0.67538  Biso   1.000  H
  H8       1.0000 0.29226  0.93217  0.62512  Biso   1.000  H
  O4       1.0000 0.12344  0.92905  0.72402  Biso   1.000  O
  C19      1.0000 0.09268  0.90531  0.93045  Biso   1.000  C
  C20      1.0000 0.09260  0.90531  0.93045  Biso   1.000  C
  H9       1.0000 0.19784  0.59997  0.95544  Biso   1.000  H
  N12      1.0000 0.05154  0.64112  0.93485  Biso   1.000  N
  H10      1.0000 0.21443  0.74570  0.03717  Biso   1.000  H
  H11      1.0000 0.21435  0.74570  0.03717  Biso   1.000  H
  C21      1.0000 0.31873  0.37455  0.21443  Biso   1.000  C
  C22      1.0000 0.31865  0.37455  0.21443  Biso   1.000  C
  N13      1.0000 0.27300  0.64281  0.32196  Biso   1.000  N
  H12      1.0000 0.44087  0.63743  0.33005  Biso   1.000  H
  C23      1.0000 0.25201  0.74202  0.41600  Biso   1.000  C
  C24      1.0000 0.25193  0.74202  0.41600  Biso   1.000  C
  H13      1.0000 0.06493  0.96304  0.91418  Biso   1.000  H
  N14      1.0000 0.99124  0.80658  0.91921  Biso   1.000  N
  H14      1.0000 0.13954  0.95454  0.01271  Biso   1.000  H
  H15      1.0000 0.13945  0.95454  0.01271  Biso   1.000  H
  C25      1.0000 0.98819  0.73432  0.98098  Biso   1.000  C
  C26      1.0000 0.97899  0.51811  0.87902  Biso   1.000  C
  C27      1.0000 0.98811  0.73432  0.98098  Biso   1.000  C
  C28      1.0000 0.97891  0.51811  0.87902  Biso   1.000  C
  N15      1.0000 0.19608  0.32545  0.15158  Biso   1.000  N
  H16      1.0000 0.33915  0.30663  0.21874  Biso   1.000  H
  H17      1.0000 0.36779  0.39882  0.16858  Biso   1.000  H
  C29      1.0000 0.23169  0.60585  0.19708  Biso   1.000  C
  C30      1.0000 0.23161  0.60585  0.19708  Biso   1.000  C
  O5       1.0000 0.18512  0.79863  0.40872  Biso   1.000  O
  O6       1.0000 0.18503  0.79863  0.40872  Biso   1.000  O
  C31      1.0000 0.88239  0.77522  0.84971  Biso   1.000  C
  C32      1.0000 0.88230  0.77522  0.84971  Biso   1.000  C
  C33      1.0000 0.85337  0.64299  0.93261  Biso   1.000  C
  C34      1.0000 0.85328  0.64299  0.93261  Biso   1.000  C
  C35      1.0000 0.03131  0.82343  0.11593  Biso   1.000  C
  C36      1.0000 0.03123  0.82343  0.11593  Biso   1.000  C
  N16      1.0000 0.86391  0.51510  0.87192  Biso   1.000  N
  O7       1.0000 0.01105  0.42359  0.84270  Biso   1.000  O
  C37      1.0000 0.11762  0.22484  0.15032  Biso   1.000  C
  C38      1.0000 0.11754  0.22484  0.15032  Biso   1.000  C
  C39      1.0000 0.14662  0.35698  0.06743  Biso   1.000  C
  C40      1.0000 0.14654  0.35698  0.06743  Biso   1.000  C
  N17      1.0000 0.13599  0.48488  0.12812  Biso   1.000  N
  H18      1.0000 0.29752  0.60030  0.15860  Biso   1.000  H
  H19      1.0000 0.20529  0.67235  0.19627  Biso   1.000  H
  H20      1.0000 0.29743  0.60030  0.15860  Biso   1.000  H
  H21      1.0000 0.20521  0.67235  0.19627  Biso   1.000  H
  N18      1.0000 0.80383  0.67452  0.84845  Biso   1.000  N
  O8       1.0000 0.86057  0.83003  0.79855  Biso   1.000  O
  C41      1.0000 0.78426  0.65892  0.02872  Biso   1.000  C
  H22      1.0000 0.98814  0.88273  0.14326  Biso   1.000  H
  H23      1.0000 0.11426  0.86995  0.13571  Biso   1.000  H
  H24      1.0000 0.01889  0.77426  0.15441  Biso   1.000  H
  C42      1.0000 0.76830  0.39412  0.80296  Biso   1.000  C
  C43      1.0000 0.76822  0.39412  0.80296  Biso   1.000  C
  O9       1.0000 0.13936  0.17003  0.20148  Biso   1.000  O
  N19      1.0000 0.00867  0.19340  0.08083  Biso   1.000  N
  C44      1.0000 0.01180  0.26566  0.01906  Biso   1.000  C
  C45      1.0000 0.21564  0.34105  0.97132  Biso   1.000  C
  C46      1.0000 0.21572  0.34105  0.97132  Biso   1.000  C
  C47      1.0000 0.02100  0.48186  0.12101  Biso   1.000  C
  C48      1.0000 0.68128  0.62550  0.78561  Biso   1.000  C
  C49      1.0000 0.68120  0.62550  0.78561  Biso   1.000  C
  H25      1.0000 0.70633  0.59654  0.99221  Biso   1.000  H
  H26      1.0000 0.77831  0.74346  0.06747  Biso   1.000  H
  H27      1.0000 0.82466  0.64709  0.08716  Biso   1.000  H
  H28      1.0000 0.77839  0.74346  0.06747  Biso   1.000  H
  N20      1.0000 0.72701  0.35721  0.67817  Biso   1.000  N
  N21      1.0000 0.72693  0.35721  0.67817  Biso   1.000  N
  H29      1.0000 0.70249  0.39976  0.84144  Biso   1.000  H
  H30      1.0000 0.79470  0.32762  0.80377  Biso   1.000  H
  H31      1.0000 0.70241  0.39976  0.84144  Biso   1.000  H
  H32      1.0000 0.79462  0.32762  0.80377  Biso   1.000  H
  C50      1.0000 0.90731  0.09466  0.06959  Biso   1.000  C
  C51      1.0000 0.90723  0.09466  0.06959  Biso   1.000  C
  C52      1.0000 0.96867  0.17654  0.88411  Biso   1.000  C
  C53      1.0000 0.96859  0.17654  0.88411  Biso   1.000  C
  N22      1.0000 0.94836  0.35886  0.06518  Biso   1.000  N
  H33      1.0000 0.29360  0.40352  0.00782  Biso   1.000  H
  H34      1.0000 0.22154  0.25659  0.93257  Biso   1.000  H
  H35      1.0000 0.17527  0.35296  0.91288  Biso   1.000  H
  H36      1.0000 0.22162  0.25659  0.93257  Biso   1.000  H
  O10      1.0000 0.98894  0.57639  0.15734  Biso   1.000  O
  O11      1.0000 0.98886  0.57639  0.15734  Biso   1.000  O
  N23      1.0000 0.65438  0.51590  0.66468  Biso   1.000  N
  N24      1.0000 0.65430  0.51590  0.66468  Biso   1.000  N
  H37      1.0000 0.66077  0.69343  0.78129  Biso   1.000  H
  H38      1.0000 0.63222  0.60124  0.83146  Biso   1.000  H
  H39      1.0000 0.63213  0.60124  0.83146  Biso   1.000  H
  C54      1.0000 0.74800  0.25804  0.58404  Biso   1.000  C
  C55      1.0000 0.74791  0.25804  0.58404  Biso   1.000  C
  C56      1.0000 0.62750  0.38669  0.64014  Biso   1.000  C
  C57      1.0000 0.62742  0.38669  0.64014  Biso   1.000  C
  H40      1.0000 0.86047  0.04551  0.98732  Biso   1.000  H
  H41      1.0000 0.86039  0.04551  0.98732  Biso   1.000  H
  H42      1.0000 0.93500  0.03702  0.08586  Biso   1.000  H
  N25      1.0000 0.83184  0.14363  0.14961  Biso   1.000  N
  N26      1.0000 0.83175  0.14363  0.14961  Biso   1.000  N
  H43      1.0000 0.88567  0.13011  0.86433  Biso   1.000  H
  H44      1.0000 0.98103  0.22579  0.84563  Biso   1.000  H
  H45      1.0000 0.01176  0.11725  0.85678  Biso   1.000  H
  C58      1.0000 0.82129  0.32892  0.04289  Biso   1.000  C
  C59      1.0000 0.64909  0.52317  0.56408  Biso   1.000  C
  C60      1.0000 0.64900  0.52317  0.56408  Biso   1.000  C
  N27      1.0000 0.68106  0.23296  0.47965  Biso   1.000  N
  O12      1.0000 0.81489  0.20143  0.59132  Biso   1.000  O
  O13      1.0000 0.81481  0.20143  0.59132  Biso   1.000  O
  C61      1.0000 0.60111  0.30686  0.50105  Biso   1.000  C
  H46      1.0000 0.55906  0.36262  0.66999  Biso   1.000  H
  C62      1.0000 0.81806  0.11942  0.24122  Biso   1.000  C
  C63      1.0000 0.73523  0.17805  0.11472  Biso   1.000  C
  C64      1.0000 0.73515  0.17805  0.11472  Biso   1.000  C
  H47      1.0000 0.78558  0.25435  0.96287  Biso   1.000  H
  H48      1.0000 0.78549  0.25435  0.96287  Biso   1.000  H
  H49      1.0000 0.80209  0.40009  0.04459  Biso   1.000  H
  N28      1.0000 0.76991  0.30362  0.12911  Biso   1.000  N
  N29      1.0000 0.62818  0.40238  0.46734  Biso   1.000  N
  O14      1.0000 0.65720  0.61868  0.55769  Biso   1.000  O
  O15      1.0000 0.65711  0.61868  0.55769  Biso   1.000  O
  C65      1.0000 0.67101  0.12283  0.36313  Biso   1.000  C
  C66      1.0000 0.67092  0.12283  0.36313  Biso   1.000  C
  H50      1.0000 0.51816  0.25100  0.46581  Biso   1.000  H
  N30      1.0000 0.72584  0.15806  0.28465  Biso   1.000  N
  O16      1.0000 0.87649  0.07101  0.27601  Biso   1.000  O
  N31      1.0000 0.72576  0.15806  0.28465  Biso   1.000  N
  H51      1.0000 0.68728  0.11182  0.03363  Biso   1.000  H
  C67      1.0000 0.66343  0.19192  0.21083  Biso   1.000  C
  C68      1.0000 0.66334  0.19192  0.21083  Biso   1.000  C
  C69      1.0000 0.72321  0.38505  0.21398  Biso   1.000  C
  C70      1.0000 0.72312  0.38505  0.21398  Biso   1.000  C
  C71      1.0000 0.59033  0.37065  0.34434  Biso   1.000  C
  C72      1.0000 0.59025  0.37065  0.34434  Biso   1.000  C
  H52      1.0000 0.58789  0.07413  0.32465  Biso   1.000  H
  H53      1.0000 0.70764  0.06780  0.37491  Biso   1.000  H
  H54      1.0000 0.58109  0.13474  0.17424  Biso   1.000  H
  N32      1.0000 0.67113  0.32490  0.26972  Biso   1.000  N
  N33      1.0000 0.67105  0.32490  0.26972  Biso   1.000  N
  O17      1.0000 0.72770  0.49111  0.23403  Biso   1.000  O
  H55      1.0000 0.51268  0.30507  0.30829  Biso   1.000  H
  H56      1.0000 0.58262  0.44611  0.34551  Biso   1.000  H
  H57      1.0000 0.58254  0.44611  0.34551  Biso   1.000  H
  N34      1.0000 0.32878  0.67508  0.73032  Biso   1.000  N
  C73      1.0000 0.40968  0.62941  0.65569  Biso   1.000  C
  C74      1.0000 0.40960  0.62941  0.65569  Biso   1.000  C
  C75      1.0000 0.33658  0.80814  0.78920  Biso   1.000  C
  C76      1.0000 0.27678  0.61492  0.78606  Biso   1.000  C
  C77      1.0000 0.33650  0.80814  0.78920  Biso   1.000  C
  C78      1.0000 0.27670  0.61492  0.78606  Biso   1.000  C
  N35      1.0000 0.37172  0.59759  0.53270  Biso   1.000  N
  H58      1.0000 0.48723  0.69491  0.69175  Biso   1.000  H
  H59      1.0000 0.41739  0.55394  0.65452  Biso   1.000  H
  N36      1.0000 0.32886  0.67508  0.73032  Biso   1.000  N
  H60      1.0000 0.41731  0.55394  0.65452  Biso   1.000  H
  N37      1.0000 0.27417  0.84200  0.71539  Biso   1.000  N
  N38      1.0000 0.27408  0.84200  0.71539  Biso   1.000  N
  H61      1.0000 0.41883  0.86532  0.82580  Biso   1.000  H
  C79      1.0000 0.26478  0.82201  0.88532  Biso   1.000  C
  C80      1.0000 0.26469  0.82201  0.88532  Biso   1.000  C
  N39      1.0000 0.23001  0.69643  0.87093  Biso   1.000  N
  O18      1.0000 0.27222  0.50894  0.76601  Biso   1.000  O
  C81      1.0000 0.35090  0.47680  0.43596  Biso   1.000  C
  C82      1.0000 0.35082  0.47680  0.43596  Biso   1.000  C
  C83      1.0000 0.39890  0.69319  0.49898  Biso   1.000  C
  C84      1.0000 0.39882  0.69319  0.49898  Biso   1.000  C
  C85      1.0000 0.32900  0.87722  0.63690  Biso   1.000  C
  C86      1.0000 0.32892  0.87722  0.63690  Biso   1.000  C
  C87      1.0000 0.18187  0.88063  0.75882  Biso   1.000  C
  N40      1.0000 0.16817  0.85642  0.85043  Biso   1.000  N
  N41      1.0000 0.16809  0.85642  0.85043  Biso   1.000  N
  H62      1.0000 0.31265  0.88823  0.96641  Biso   1.000  H
  C88      1.0000 0.17864  0.67113  0.95715  Biso   1.000  C
  N42      1.0000 0.34563  0.48415  0.33535  Biso   1.000  N
  N43      1.0000 0.34554  0.48415  0.33535  Biso   1.000  N
  O19      1.0000 0.34279  0.38130  0.44234  Biso   1.000  O
  O20      1.0000 0.34271  0.38130  0.44234  Biso   1.000  O
  C89      1.0000 0.37248  0.61328  0.35990  Biso   1.000  C
  C90      1.0000 0.37240  0.61328  0.35990  Biso   1.000  C
  H63      1.0000 0.48175  0.74898  0.53423  Biso   1.000  H
  N44      1.0000 0.31886  0.76710  0.52038  Biso   1.000  N
  H64      1.0000 0.41202  0.92585  0.67538  Biso   1.000  H
  H65      1.0000 0.29226  0.93217  0.62512  Biso   1.000  H
  O21      1.0000 0.12344  0.92905  0.72402  Biso   1.000  O
  C91      1.0000 0.09268  0.90531  0.93045  Biso   1.000  C
  C92      1.0000 0.09260  0.90531  0.93045  Biso   1.000  C
  H66      1.0000 0.19784  0.59997  0.95544  Biso   1.000  H
  N45      1.0000 0.05154  0.64112  0.93485  Biso   1.000  N
  H67      1.0000 0.21443  0.74570  0.03717  Biso   1.000  H
  H68      1.0000 0.21435  0.74570  0.03717  Biso   1.000  H
  C93      1.0000 0.31873  0.37455  0.21443  Biso   1.000  C
  C94      1.0000 0.31865  0.37455  0.21443  Biso   1.000  C
  N46      1.0000 0.27300  0.64281  0.32196  Biso   1.000  N
  H69      1.0000 0.44087  0.63743  0.33005  Biso   1.000  H
  C95      1.0000 0.25201  0.74202  0.41600  Biso   1.000  C
  C96      1.0000 0.25193  0.74202  0.41600  Biso   1.000  C
  H70      1.0000 0.06493  0.96304  0.91418  Biso   1.000  H
  N47      1.0000 0.99124  0.80658  0.91921  Biso   1.000  N
  H71      1.0000 0.13954  0.95454  0.01271  Biso   1.000  H
  H72      1.0000 0.13945  0.95454  0.01271  Biso   1.000  H
  C97      1.0000 0.98819  0.73432  0.98098  Biso   1.000  C
  C98      1.0000 0.97899  0.51811  0.87902  Biso   1.000  C
  C99      1.0000 0.98811  0.73432  0.98098  Biso   1.000  C
  C100     1.0000 0.97891  0.51811  0.87902  Biso   1.000  C
  N48      1.0000 0.19608  0.32545  0.15158  Biso   1.000  N
  H73      1.0000 0.33915  0.30663  0.21874  Biso   1.000  H
  H74      1.0000 0.36779  0.39882  0.16858  Biso   1.000  H
  C101     1.0000 0.23169  0.60585  0.19708  Biso   1.000  C
  C102     1.0000 0.23161  0.60585  0.19708  Biso   1.000  C
  O22      1.0000 0.18512  0.79863  0.40872  Biso   1.000  O
  O23      1.0000 0.18503  0.79863  0.40872  Biso   1.000  O
  C103     1.0000 0.88239  0.77522  0.84971  Biso   1.000  C
  C104     1.0000 0.88230  0.77522  0.84971  Biso   1.000  C
  C105     1.0000 0.85337  0.64299  0.93261  Biso   1.000  C
  C106     1.0000 0.85328  0.64299  0.93261  Biso   1.000  C
  C107     1.0000 0.03131  0.82343  0.11593  Biso   1.000  C
  C108     1.0000 0.03123  0.82343  0.11593  Biso   1.000  C
  N49      1.0000 0.86391  0.51510  0.87192  Biso   1.000  N
  O24      1.0000 0.01105  0.42359  0.84270  Biso   1.000  O
  C109     1.0000 0.11762  0.22484  0.15032  Biso   1.000  C
  C110     1.0000 0.11754  0.22484  0.15032  Biso   1.000  C
  C111     1.0000 0.14662  0.35698  0.06743  Biso   1.000  C
  C112     1.0000 0.14654  0.35698  0.06743  Biso   1.000  C
  N50      1.0000 0.13599  0.48488  0.12812  Biso   1.000  N
  H75      1.0000 0.29752  0.60030  0.15860  Biso   1.000  H
  H76      1.0000 0.20529  0.67235  0.19627  Biso   1.000  H
  H77      1.0000 0.29743  0.60030  0.15860  Biso   1.000  H
  H78      1.0000 0.20521  0.67235  0.19627  Biso   1.000  H
  N51      1.0000 0.80383  0.67452  0.84845  Biso   1.000  N
  O25      1.0000 0.86057  0.83003  0.79855  Biso   1.000  O
  C113     1.0000 0.78426  0.65892  0.02872  Biso   1.000  C
  H79      1.0000 0.98814  0.88273  0.14326  Biso   1.000  H
  H80      1.0000 0.11426  0.86995  0.13571  Biso   1.000  H
  H81      1.0000 0.01889  0.77426  0.15441  Biso   1.000  H
  C114     1.0000 0.76830  0.39412  0.80296  Biso   1.000  C
  C115     1.0000 0.76822  0.39412  0.80296  Biso   1.000  C
  O26      1.0000 0.13936  0.17003  0.20148  Biso   1.000  O
  N52      1.0000 0.00867  0.19340  0.08083  Biso   1.000  N
  C116     1.0000 0.01180  0.26566  0.01906  Biso   1.000  C
  C117     1.0000 0.21564  0.34105  0.97132  Biso   1.000  C
  C118     1.0000 0.21572  0.34105  0.97132  Biso   1.000  C
  C119     1.0000 0.02100  0.48186  0.12101  Biso   1.000  C
  C120     1.0000 0.68128  0.62550  0.78561  Biso   1.000  C
  C121     1.0000 0.68120  0.62550  0.78561  Biso   1.000  C
  H82      1.0000 0.70633  0.59654  0.99221  Biso   1.000  H
  H83      1.0000 0.77831  0.74346  0.06747  Biso   1.000  H
  H84      1.0000 0.82466  0.64709  0.08716  Biso   1.000  H
  H85      1.0000 0.77839  0.74346  0.06747  Biso   1.000  H
  N53      1.0000 0.72701  0.35721  0.67817  Biso   1.000  N
  N54      1.0000 0.72693  0.35721  0.67817  Biso   1.000  N
  H86      1.0000 0.70249  0.39976  0.84144  Biso   1.000  H
  H87      1.0000 0.79470  0.32762  0.80377  Biso   1.000  H
  H88      1.0000 0.70241  0.39976  0.84144  Biso   1.000  H
  H89      1.0000 0.79462  0.32762  0.80377  Biso   1.000  H
  C122     1.0000 0.90731  0.09466  0.06959  Biso   1.000  C
  C123     1.0000 0.90723  0.09466  0.06959  Biso   1.000  C
  C124     1.0000 0.96867  0.17654  0.88411  Biso   1.000  C
  C125     1.0000 0.96859  0.17654  0.88411  Biso   1.000  C
  N55      1.0000 0.94836  0.35886  0.06518  Biso   1.000  N
  H90      1.0000 0.29360  0.40352  0.00782  Biso   1.000  H
  H91      1.0000 0.22154  0.25659  0.93257  Biso   1.000  H
  H92      1.0000 0.17527  0.35296  0.91288  Biso   1.000  H
  H93      1.0000 0.22162  0.25659  0.93257  Biso   1.000  H
  O27      1.0000 0.98894  0.57639  0.15734  Biso   1.000  O
  O28      1.0000 0.98886  0.57639  0.15734  Biso   1.000  O
  N56      1.0000 0.65438  0.51590  0.66468  Biso   1.000  N
  N57      1.0000 0.65430  0.51590  0.66468  Biso   1.000  N
  H94      1.0000 0.66077  0.69343  0.78129  Biso   1.000  H
  H95      1.0000 0.63222  0.60124  0.83146  Biso   1.000  H
  H96      1.0000 0.63213  0.60124  0.83146  Biso   1.000  H
  C126     1.0000 0.74800  0.25804  0.58404  Biso   1.000  C
  C127     1.0000 0.74791  0.25804  0.58404  Biso   1.000  C
  C128     1.0000 0.62750  0.38669  0.64014  Biso   1.000  C
  C129     1.0000 0.62742  0.38669  0.64014  Biso   1.000  C
  H97      1.0000 0.86047  0.04551  0.98732  Biso   1.000  H
  H98      1.0000 0.86039  0.04551  0.98732  Biso   1.000  H
  H99      1.0000 0.93500  0.03702  0.08586  Biso   1.000  H
  N58      1.0000 0.83184  0.14363  0.14961  Biso   1.000  N
  N59      1.0000 0.83175  0.14363  0.14961  Biso   1.000  N
  H100     1.0000 0.88567  0.13011  0.86433  Biso   1.000  H
  H101     1.0000 0.98103  0.22579  0.84563  Biso   1.000  H
  H102     1.0000 0.01176  0.11725  0.85678  Biso   1.000  H
  C130     1.0000 0.82129  0.32892  0.04289  Biso   1.000  C
  C131     1.0000 0.64909  0.52317  0.56408  Biso   1.000  C
  C132     1.0000 0.64900  0.52317  0.56408  Biso   1.000  C
  N60      1.0000 0.68106  0.23296  0.47965  Biso   1.000  N
  O29      1.0000 0.81489  0.20143  0.59132  Biso   1.000  O
  O30      1.0000 0.81481  0.20143  0.59132  Biso   1.000  O
  C133     1.0000 0.60111  0.30686  0.50105  Biso   1.000  C
  H103     1.0000 0.55906  0.36262  0.66999  Biso   1.000  H
  C134     1.0000 0.81806  0.11942  0.24122  Biso   1.000  C
  C135     1.0000 0.73523  0.17805  0.11472  Biso   1.000  C
  C136     1.0000 0.73515  0.17805  0.11472  Biso   1.000  C
  H104     1.0000 0.78558  0.25435  0.96287  Biso   1.000  H
  H105     1.0000 0.78549  0.25435  0.96287  Biso   1.000  H
  H106     1.0000 0.80209  0.40009  0.04459  Biso   1.000  H
  N61      1.0000 0.76991  0.30362  0.12911  Biso   1.000  N
  N62      1.0000 0.62818  0.40238  0.46734  Biso   1.000  N
  O31      1.0000 0.65720  0.61868  0.55769  Biso   1.000  O
  O32      1.0000 0.65711  0.61868  0.55769  Biso   1.000  O
  C137     1.0000 0.67101  0.12283  0.36313  Biso   1.000  C
  C138     1.0000 0.67092  0.12283  0.36313  Biso   1.000  C
  H107     1.0000 0.51816  0.25100  0.46581  Biso   1.000  H
  N63      1.0000 0.72584  0.15806  0.28465  Biso   1.000  N
  O33      1.0000 0.87649  0.07101  0.27601  Biso   1.000  O
  N64      1.0000 0.72576  0.15806  0.28465  Biso   1.000  N
  H108     1.0000 0.68728  0.11182  0.03363  Biso   1.000  H
  C139     1.0000 0.66343  0.19192  0.21083  Biso   1.000  C
  C140     1.0000 0.66334  0.19192  0.21083  Biso   1.000  C
  C141     1.0000 0.72321  0.38505  0.21398  Biso   1.000  C
  C142     1.0000 0.72312  0.38505  0.21398  Biso   1.000  C
  C143     1.0000 0.59033  0.37065  0.34434  Biso   1.000  C
  C144     1.0000 0.59025  0.37065  0.34434  Biso   1.000  C
  H109     1.0000 0.58789  0.07413  0.32465  Biso   1.000  H
  H110     1.0000 0.70764  0.06780  0.37491  Biso   1.000  H
  H111     1.0000 0.58109  0.13474  0.17424  Biso   1.000  H
  N65      1.0000 0.67113  0.32490  0.26972  Biso   1.000  N
  N66      1.0000 0.67105  0.32490  0.26972  Biso   1.000  N
  O34      1.0000 0.72770  0.49111  0.23403  Biso   1.000  O
  H112     1.0000 0.51268  0.30507  0.30829  Biso   1.000  H
  H113     1.0000 0.58262  0.44611  0.34551  Biso   1.000  H
  H114     1.0000 0.58254  0.44611  0.34551  Biso   1.000  H
