data_image0
_cell_length_a       11.875
_cell_length_b       12.691
_cell_length_c       13.119
_cell_angle_alpha    116.9
_cell_angle_beta     90.93
_cell_angle_gamma    105.02

_symmetry_space_group_name_H-M    "P 1"
_symmetry_int_tables_number       1

loop_
  _symmetry_equiv_pos_as_xyz
  'x, y, z'

loop_
  _atom_site_label
  _atom_site_occupancy
  _atom_site_fract_x
  _atom_site_fract_y
  _atom_site_fract_z
  _atom_site_thermal_displace_type
  _atom_site_B_iso_or_equiv
  _atom_site_type_symbol
  C1       1.0000 0.31900  0.64346  0.23412  Biso   1.000  C
  O1       1.0000 0.38258  0.59711  0.26440  Biso   1.000  O
  N1       1.0000 0.22238  0.67163  0.28093  Biso   1.000  N
  N2       1.0000 0.33302  0.67391  0.14613  Biso   1.000  N
  N3       1.0000 0.22247  0.67163  0.28093  Biso   1.000  N
  C2       1.0000 0.31898  0.64338  0.23412  Biso   1.000  C
  C3       1.0000 0.16237  0.61682  0.34980  Biso   1.000  C
  C4       1.0000 0.16026  0.71479  0.21708  Biso   1.000  C
  C5       1.0000 0.16246  0.61682  0.34980  Biso   1.000  C
  C6       1.0000 0.16035  0.71479  0.21708  Biso   1.000  C
  C7       1.0000 0.23998  0.72081  0.12692  Biso   1.000  C
  C8       1.0000 0.42344  0.65266  0.07415  Biso   1.000  C
  C9       1.0000 0.24006  0.72081  0.12692  Biso   1.000  C
  C10      1.0000 0.42355  0.65274  0.07415  Biso   1.000  C
  H1       1.0000 0.08213  0.56919  0.31112  Biso   1.000  H
  H2       1.0000 0.20170  0.55980  0.35239  Biso   1.000  H
  N4       1.0000 0.15878  0.70456  0.46642  Biso   1.000  N
  H3       1.0000 0.08215  0.56927  0.31112  Biso   1.000  H
  N5       1.0000 0.15887  0.70456  0.46642  Biso   1.000  N
  H4       1.0000 0.08081  0.65832  0.18031  Biso   1.000  H
  N6       1.0000 0.15907  0.84141  0.28465  Biso   1.000  N
  N7       1.0000 0.15918  0.84149  0.28465  Biso   1.000  N
  H5       1.0000 0.19655  0.66946  0.04802  Biso   1.000  H
  N8       1.0000 0.27772  0.85116  0.15721  Biso   1.000  N
  H6       1.0000 0.19666  0.66954  0.04802  Biso   1.000  H
  N9       1.0000 0.27774  0.85125  0.15721  Biso   1.000  N
  H7       1.0000 0.45378  0.59100  0.07934  Biso   1.000  H
  N10      1.0000 0.52120  0.76485  0.10659  Biso   1.000  N
  N11      1.0000 0.52122  0.76494  0.10659  Biso   1.000  N
  H8       1.0000 0.38912  0.61996  0.99438  Biso   1.000  H
  H9       1.0000 0.38914  0.62004  0.99438  Biso   1.000  H
  C11      1.0000 0.07758  0.77911  0.50155  Biso   1.000  C
  C12      1.0000 0.23115  0.71972  0.55813  Biso   1.000  C
  C13      1.0000 0.07769  0.77919  0.50155  Biso   1.000  C
  C14      1.0000 0.23118  0.71980  0.55813  Biso   1.000  C
  C15      1.0000 0.07895  0.87732  0.36641  Biso   1.000  C
  C16      1.0000 0.22407  0.91931  0.24528  Biso   1.000  C
  C17      1.0000 0.22415  0.91931  0.24528  Biso   1.000  C
  C18      1.0000 0.33227  0.89705  0.08150  Biso   1.000  C
  C19      1.0000 0.33229  0.89713  0.08150  Biso   1.000  C
  C20      1.0000 0.62989  0.77737  0.15582  Biso   1.000  C
  C21      1.0000 0.52913  0.84723  0.05624  Biso   1.000  C
  C22      1.0000 0.62991  0.77745  0.15582  Biso   1.000  C
  C23      1.0000 0.10626  0.84494  0.63808  Biso   1.000  C
  N12      1.0000 0.11105  0.88455  0.47663  Biso   1.000  N
  C24      1.0000 0.10628  0.84502  0.63808  Biso   1.000  C
  C25      1.0000 0.94848  0.70353  0.45682  Biso   1.000  C
  C26      1.0000 0.94856  0.70353  0.45682  Biso   1.000  C
  N13      1.0000 0.20176  0.80197  0.65893  Biso   1.000  N
  O2       1.0000 0.30416  0.66595  0.55216  Biso   1.000  O
  H10      1.0000 0.00111  0.81833  0.33206  Biso   1.000  H
  H11      1.0000 0.07370  0.95754  0.37999  Biso   1.000  H
  O3       1.0000 0.22975  0.02782  0.28093  Biso   1.000  O
  H12      1.0000 0.30359  0.83360  0.00190  Biso   1.000  H
  H13      1.0000 0.30818  0.96837  0.09249  Biso   1.000  H
  N14      1.0000 0.45998  0.93218  0.10062  Biso   1.000  N
  H14      1.0000 0.30820  0.96845  0.09249  Biso   1.000  H
  N15      1.0000 0.46001  0.93226  0.10062  Biso   1.000  N
  N16      1.0000 0.70881  0.87985  0.16101  Biso   1.000  N
  O4       1.0000 0.65242  0.70649  0.18714  Biso   1.000  O
  N17      1.0000 0.70883  0.87993  0.16101  Biso   1.000  N
  O5       1.0000 0.65244  0.70657  0.18714  Biso   1.000  O
  C27      1.0000 0.65840  0.93339  0.10140  Biso   1.000  C
  H15      1.0000 0.51391  0.80139  0.97162  Biso   1.000  H
  N18      1.0000 0.14344  0.97655  0.66940  Biso   1.000  N
  C28      1.0000 0.99866  0.81169  0.69250  Biso   1.000  C
  C29      1.0000 0.99868  0.81178  0.69250  Biso   1.000  C
  C30      1.0000 0.14620  0.99542  0.57431  Biso   1.000  C
  C31      1.0000 0.14623  0.99550  0.57431  Biso   1.000  C
  C32      1.0000 0.91054  0.61093  0.50389  Biso   1.000  C
  H16      1.0000 0.93649  0.65899  0.37298  Biso   1.000  H
  H17      1.0000 0.89984  0.75871  0.48009  Biso   1.000  H
  H18      1.0000 0.93651  0.65907  0.37298  Biso   1.000  H
  C33      1.0000 0.25794  0.83151  0.77132  Biso   1.000  C
  C34      1.0000 0.25796  0.83159  0.77132  Biso   1.000  C
  C35      1.0000 0.52897  0.05372  0.16863  Biso   1.000  C
  C36      1.0000 0.52906  0.05372  0.16863  Biso   1.000  C
  C37      1.0000 0.83117  0.92158  0.21171  Biso   1.000  C
  C38      1.0000 0.83127  0.92166  0.21171  Biso   1.000  C
  H19      1.0000 0.70031  0.93319  0.03764  Biso   1.000  H
  H20      1.0000 0.70034  0.93327  0.03764  Biso   1.000  H
  N19      1.0000 0.64460  0.05452  0.17520  Biso   1.000  N
  C39      1.0000 0.16883  0.07844  0.78836  Biso   1.000  C
  C40      1.0000 0.16885  0.07852  0.78836  Biso   1.000  C
  H21      1.0000 0.02262  0.84452  0.77478  Biso   1.000  H
  H22      1.0000 0.02270  0.84452  0.77478  Biso   1.000  H
  H23      1.0000 0.94114  0.85000  0.68307  Biso   1.000  H
  C41      1.0000 0.94243  0.67273  0.63747  Biso   1.000  C
  C42      1.0000 0.94245  0.67282  0.63747  Biso   1.000  C
  O6       1.0000 0.17417  0.09858  0.57795  Biso   1.000  O
  H24      1.0000 0.94847  0.54648  0.46859  Biso   1.000  H
  H25      1.0000 0.82596  0.57208  0.48226  Biso   1.000  H
  H26      1.0000 0.94858  0.54656  0.46859  Biso   1.000  H
  H27      1.0000 0.28687  0.76377  0.76336  Biso   1.000  H
  H28      1.0000 0.19911  0.83805  0.82262  Biso   1.000  H
  N20      1.0000 0.35542  0.94558  0.82487  Biso   1.000  N
  H29      1.0000 0.28689  0.76385  0.76336  Biso   1.000  H
  H30      1.0000 0.19922  0.83814  0.82262  Biso   1.000  H
  N21      1.0000 0.35553  0.94566  0.82487  Biso   1.000  N
  O7       1.0000 0.49234  0.14411  0.20972  Biso   1.000  O
  H31      1.0000 0.85223  0.85260  0.21163  Biso   1.000  H
  H32      1.0000 0.88012  0.94846  0.16439  Biso   1.000  H
  H33      1.0000 0.85225  0.85268  0.21163  Biso   1.000  H
  H34      1.0000 0.88014  0.94854  0.16439  Biso   1.000  H
  N22      1.0000 0.85664  0.02350  0.33059  Biso   1.000  N
  C43      1.0000 0.74212  0.16846  0.22867  Biso   1.000  C
  C44      1.0000 0.74215  0.16854  0.22867  Biso   1.000  C
  H35      1.0000 0.14787  0.14750  0.78845  Biso   1.000  H
  H36      1.0000 0.11996  0.05156  0.83569  Biso   1.000  H
  N23      1.0000 0.29127  0.12017  0.83906  Biso   1.000  N
  H37      1.0000 0.11998  0.05164  0.83569  Biso   1.000  H
  N24      1.0000 0.29129  0.12025  0.83906  Biso   1.000  N
  H38      1.0000 0.87118  0.65570  0.66992  Biso   1.000  H
  H39      1.0000 0.99633  0.63627  0.65651  Biso   1.000  H
  H40      1.0000 0.87128  0.65578  0.66992  Biso   1.000  H
  C45      1.0000 0.47104  0.94638  0.83145  Biso   1.000  C
  C46      1.0000 0.34170  0.06671  0.89867  Biso   1.000  C
  C47      1.0000 0.85379  0.00460  0.42576  Biso   1.000  C
  C48      1.0000 0.89382  0.15508  0.36200  Biso   1.000  C
  C49      1.0000 0.85390  0.00468  0.42576  Biso   1.000  C
  C50      1.0000 0.89384  0.15516  0.36200  Biso   1.000  C
  H41      1.0000 0.71323  0.23633  0.23672  Biso   1.000  H
  H42      1.0000 0.80090  0.16204  0.17745  Biso   1.000  H
  N25      1.0000 0.79834  0.19813  0.34114  Biso   1.000  N
  C51      1.0000 0.37011  0.22265  0.84425  Biso   1.000  C
  C52      1.0000 0.37021  0.22273  0.84425  Biso   1.000  C
  O8       1.0000 0.50776  0.85599  0.79035  Biso   1.000  O
  N26      1.0000 0.54003  0.06792  0.89945  Biso   1.000  N
  N27      1.0000 0.54011  0.06792  0.89945  Biso   1.000  N
  C53      1.0000 0.47097  0.15287  0.94384  Biso   1.000  C
  H43      1.0000 0.29979  0.06691  0.96244  Biso   1.000  H
  C54      1.0000 0.47099  0.15295  0.94384  Biso   1.000  C
  O9       1.0000 0.82593  0.90152  0.42213  Biso   1.000  O
  O10      1.0000 0.82595  0.90160  0.42213  Biso   1.000  O
  N28      1.0000 0.88905  0.11554  0.52344  Biso   1.000  N
  C55      1.0000 0.92241  0.22090  0.49852  Biso   1.000  C
  C56      1.0000 0.92243  0.22099  0.49852  Biso   1.000  C
  C57      1.0000 0.00140  0.18828  0.30749  Biso   1.000  C
  C58      1.0000 0.00143  0.18836  0.30749  Biso   1.000  C
  C59      1.0000 0.76892  0.28030  0.44194  Biso   1.000  C
  C60      1.0000 0.76894  0.28038  0.44194  Biso   1.000  C
  N29      1.0000 0.47887  0.23516  0.89348  Biso   1.000  N
  O11      1.0000 0.34766  0.29353  0.81293  Biso   1.000  O
  N30      1.0000 0.47890  0.23524  0.89348  Biso   1.000  N
  O12      1.0000 0.34768  0.29361  0.81293  Biso   1.000  O
  C61      1.0000 0.66772  0.10297  0.91857  Biso   1.000  C
  C62      1.0000 0.66783  0.10305  0.91857  Biso   1.000  C
  H44      1.0000 0.48613  0.19879  0.02845  Biso   1.000  H
  H45      1.0000 0.48621  0.19879  0.02845  Biso   1.000  H
  C63      1.0000 0.92115  0.12278  0.63367  Biso   1.000  C
  N31      1.0000 0.84123  0.29554  0.53365  Biso   1.000  N
  N32      1.0000 0.84125  0.29562  0.53365  Biso   1.000  N
  C64      1.0000 0.05154  0.29657  0.54325  Biso   1.000  C
  H46      1.0000 0.97740  0.15558  0.22530  Biso   1.000  H
  H47      1.0000 0.97742  0.15566  0.22530  Biso   1.000  H
  H48      1.0000 0.05887  0.15010  0.31701  Biso   1.000  H
  C65      1.0000 0.05765  0.32728  0.36260  Biso   1.000  C
  H49      1.0000 0.05896  0.15010  0.31701  Biso   1.000  H
  C66      1.0000 0.05767  0.32736  0.36260  Biso   1.000  C
  O13      1.0000 0.69594  0.33415  0.44791  Biso   1.000  O
  C67      1.0000 0.57655  0.34736  0.92593  Biso   1.000  C
  C68      1.0000 0.57657  0.34744  0.92593  Biso   1.000  C
  H50      1.0000 0.69643  0.16650  0.99817  Biso   1.000  H
  H51      1.0000 0.69184  0.03173  0.90758  Biso   1.000  H
  N33      1.0000 0.72236  0.14885  0.84287  Biso   1.000  N
  H52      1.0000 0.69654  0.16658  0.99817  Biso   1.000  H
  H53      1.0000 0.69192  0.03173  0.90758  Biso   1.000  H
  N34      1.0000 0.72238  0.14893  0.84287  Biso   1.000  N
  H54      1.0000 0.99891  0.18177  0.66801  Biso   1.000  H
  H55      1.0000 0.92630  0.04252  0.62000  Biso   1.000  H
  N35      1.0000 0.84094  0.15869  0.71543  Biso   1.000  N
  H56      1.0000 0.99899  0.18177  0.66801  Biso   1.000  H
  H57      1.0000 0.92641  0.04260  0.62000  Biso   1.000  H
  C69      1.0000 0.83764  0.38328  0.65028  Biso   1.000  C
  C70      1.0000 0.08955  0.38913  0.49610  Biso   1.000  C
  H58      1.0000 0.06351  0.34107  0.62700  Biso   1.000  H
  H59      1.0000 0.10025  0.24134  0.51989  Biso   1.000  H
  H60      1.0000 0.06360  0.34107  0.62700  Biso   1.000  H
  H61      1.0000 0.12882  0.34431  0.33016  Biso   1.000  H
  H62      1.0000 0.00375  0.36378  0.34348  Biso   1.000  H
  H63      1.0000 0.12884  0.34440  0.33016  Biso   1.000  H
  H64      1.0000 0.00377  0.36387  0.34348  Biso   1.000  H
  H65      1.0000 0.54623  0.40910  0.92074  Biso   1.000  H
  N36      1.0000 0.66708  0.32619  0.85394  Biso   1.000  N
  H66      1.0000 0.54632  0.40910  0.92074  Biso   1.000  H
  H67      1.0000 0.61100  0.38022  0.00570  Biso   1.000  H
  C71      1.0000 0.77593  0.08074  0.75471  Biso   1.000  C
  C72      1.0000 0.76004  0.27929  0.87315  Biso   1.000  C
  C73      1.0000 0.76012  0.27929  0.87315  Biso   1.000  C
  C74      1.0000 0.83974  0.28527  0.78291  Biso   1.000  C
  H68      1.0000 0.91795  0.43083  0.68895  Biso   1.000  H
  H69      1.0000 0.79838  0.44025  0.64760  Biso   1.000  H
  N37      1.0000 0.77763  0.32847  0.71915  Biso   1.000  N
  H70      1.0000 0.91797  0.43091  0.68895  Biso   1.000  H
  H71      1.0000 0.05150  0.45349  0.53140  Biso   1.000  H
  H72      1.0000 0.17414  0.42802  0.51782  Biso   1.000  H
  H73      1.0000 0.05153  0.45357  0.53140  Biso   1.000  H
  H74      1.0000 0.17416  0.42810  0.51782  Biso   1.000  H
  C75      1.0000 0.68101  0.35664  0.76595  Biso   1.000  C
  C76      1.0000 0.68112  0.35672  0.76595  Biso   1.000  C
  O14      1.0000 0.77035  0.97227  0.71915  Biso   1.000  O
  H75      1.0000 0.80344  0.33056  0.95206  Biso   1.000  H
  H76      1.0000 0.80346  0.33064  0.95206  Biso   1.000  H
  H77      1.0000 0.91929  0.34177  0.81977  Biso   1.000  H
  H78      1.0000 0.91931  0.34186  0.81977  Biso   1.000  H
  O15      1.0000 0.61743  0.40299  0.73567  Biso   1.000  O
  O16      1.0000 0.61752  0.40299  0.73567  Biso   1.000  O
  C77      1.0000 0.31900  0.64346  0.23412  Biso   1.000  C
  O17      1.0000 0.38258  0.59711  0.26440  Biso   1.000  O
  N38      1.0000 0.33302  0.67391  0.14613  Biso   1.000  N
  N39      1.0000 0.22238  0.67163  0.28093  Biso   1.000  N
  N40      1.0000 0.22247  0.67163  0.28093  Biso   1.000  N
  C78      1.0000 0.31898  0.64338  0.23412  Biso   1.000  C
  C79      1.0000 0.23998  0.72081  0.12692  Biso   1.000  C
  C80      1.0000 0.42344  0.65266  0.07415  Biso   1.000  C
  C81      1.0000 0.24006  0.72081  0.12692  Biso   1.000  C
  C82      1.0000 0.42355  0.65274  0.07415  Biso   1.000  C
  C83      1.0000 0.16237  0.61682  0.34980  Biso   1.000  C
  C84      1.0000 0.16026  0.71479  0.21708  Biso   1.000  C
  C85      1.0000 0.16246  0.61682  0.34980  Biso   1.000  C
  C86      1.0000 0.16035  0.71479  0.21708  Biso   1.000  C
  H79      1.0000 0.19655  0.66946  0.04802  Biso   1.000  H
  N41      1.0000 0.27772  0.85116  0.15721  Biso   1.000  N
  H80      1.0000 0.19666  0.66954  0.04802  Biso   1.000  H
  N42      1.0000 0.27774  0.85125  0.15721  Biso   1.000  N
  H81      1.0000 0.45378  0.59100  0.07934  Biso   1.000  H
  H82      1.0000 0.38912  0.61996  0.99438  Biso   1.000  H
  H83      1.0000 0.38914  0.62004  0.99438  Biso   1.000  H
  N43      1.0000 0.52120  0.76485  0.10659  Biso   1.000  N
  N44      1.0000 0.52122  0.76494  0.10659  Biso   1.000  N
  H84      1.0000 0.20170  0.55980  0.35239  Biso   1.000  H
  H85      1.0000 0.08213  0.56919  0.31112  Biso   1.000  H
  N45      1.0000 0.15878  0.70456  0.46642  Biso   1.000  N
  H86      1.0000 0.08215  0.56927  0.31112  Biso   1.000  H
  N46      1.0000 0.15887  0.70456  0.46642  Biso   1.000  N
  H87      1.0000 0.08081  0.65832  0.18031  Biso   1.000  H
  N47      1.0000 0.15907  0.84141  0.28465  Biso   1.000  N
  N48      1.0000 0.15918  0.84149  0.28465  Biso   1.000  N
  C87      1.0000 0.22407  0.91931  0.24528  Biso   1.000  C
  C88      1.0000 0.33227  0.89705  0.08150  Biso   1.000  C
  C89      1.0000 0.22415  0.91931  0.24528  Biso   1.000  C
  C90      1.0000 0.33229  0.89713  0.08150  Biso   1.000  C
  C91      1.0000 0.52913  0.84723  0.05624  Biso   1.000  C
  C92      1.0000 0.62989  0.77737  0.15582  Biso   1.000  C
  C93      1.0000 0.62991  0.77745  0.15582  Biso   1.000  C
  C94      1.0000 0.07758  0.77911  0.50155  Biso   1.000  C
  C95      1.0000 0.23115  0.71972  0.55813  Biso   1.000  C
  C96      1.0000 0.07769  0.77919  0.50155  Biso   1.000  C
  C97      1.0000 0.23118  0.71980  0.55813  Biso   1.000  C
  C98      1.0000 0.07895  0.87732  0.36641  Biso   1.000  C
  O18      1.0000 0.22975  0.02782  0.28093  Biso   1.000  O
  H88      1.0000 0.30359  0.83360  0.00190  Biso   1.000  H
  H89      1.0000 0.30818  0.96837  0.09249  Biso   1.000  H
  N49      1.0000 0.45998  0.93218  0.10062  Biso   1.000  N
  H90      1.0000 0.30820  0.96845  0.09249  Biso   1.000  H
  N50      1.0000 0.46001  0.93226  0.10062  Biso   1.000  N
  C99      1.0000 0.65840  0.93339  0.10140  Biso   1.000  C
  H91      1.0000 0.51391  0.80139  0.97162  Biso   1.000  H
  N51      1.0000 0.70881  0.87985  0.16101  Biso   1.000  N
  O19      1.0000 0.65242  0.70649  0.18714  Biso   1.000  O
  N52      1.0000 0.70883  0.87993  0.16101  Biso   1.000  N
  O20      1.0000 0.65244  0.70657  0.18714  Biso   1.000  O
  N53      1.0000 0.11105  0.88455  0.47663  Biso   1.000  N
  C100     1.0000 0.94848  0.70353  0.45682  Biso   1.000  C
  C101     1.0000 0.94856  0.70353  0.45682  Biso   1.000  C
  C102     1.0000 0.10626  0.84494  0.63808  Biso   1.000  C
  C103     1.0000 0.10628  0.84502  0.63808  Biso   1.000  C
  N54      1.0000 0.20176  0.80197  0.65893  Biso   1.000  N
  O21      1.0000 0.30416  0.66595  0.55216  Biso   1.000  O
  H92      1.0000 0.00111  0.81833  0.33206  Biso   1.000  H
  H93      1.0000 0.07370  0.95754  0.37999  Biso   1.000  H
  C104     1.0000 0.52897  0.05372  0.16863  Biso   1.000  C
  C105     1.0000 0.52906  0.05372  0.16863  Biso   1.000  C
  H94      1.0000 0.70031  0.93319  0.03764  Biso   1.000  H
  H95      1.0000 0.70034  0.93327  0.03764  Biso   1.000  H
  N55      1.0000 0.64460  0.05452  0.17520  Biso   1.000  N
  C106     1.0000 0.83117  0.92158  0.21171  Biso   1.000  C
  C107     1.0000 0.83127  0.92166  0.21171  Biso   1.000  C
  C108     1.0000 0.14620  0.99542  0.57431  Biso   1.000  C
  C109     1.0000 0.14623  0.99550  0.57431  Biso   1.000  C
  C110     1.0000 0.91054  0.61093  0.50389  Biso   1.000  C
  H96      1.0000 0.93649  0.65899  0.37298  Biso   1.000  H
  H97      1.0000 0.89984  0.75871  0.48009  Biso   1.000  H
  H98      1.0000 0.93651  0.65907  0.37298  Biso   1.000  H
  N56      1.0000 0.14344  0.97655  0.66940  Biso   1.000  N
  C111     1.0000 0.99866  0.81169  0.69250  Biso   1.000  C
  C112     1.0000 0.99868  0.81178  0.69250  Biso   1.000  C
  C113     1.0000 0.25794  0.83151  0.77132  Biso   1.000  C
  C114     1.0000 0.25796  0.83159  0.77132  Biso   1.000  C
  O22      1.0000 0.49234  0.14411  0.20972  Biso   1.000  O
  C115     1.0000 0.74212  0.16846  0.22867  Biso   1.000  C
  C116     1.0000 0.74215  0.16854  0.22867  Biso   1.000  C
  H99      1.0000 0.85223  0.85260  0.21163  Biso   1.000  H
  H100     1.0000 0.88012  0.94846  0.16439  Biso   1.000  H
  H101     1.0000 0.85225  0.85268  0.21163  Biso   1.000  H
  H102     1.0000 0.88014  0.94854  0.16439  Biso   1.000  H
  N57      1.0000 0.85664  0.02350  0.33059  Biso   1.000  N
  O23      1.0000 0.17417  0.09858  0.57795  Biso   1.000  O
  C117     1.0000 0.94243  0.67273  0.63747  Biso   1.000  C
  H103     1.0000 0.94847  0.54648  0.46859  Biso   1.000  H
  H104     1.0000 0.82596  0.57208  0.48226  Biso   1.000  H
  C118     1.0000 0.94245  0.67282  0.63747  Biso   1.000  C
  H105     1.0000 0.94858  0.54656  0.46859  Biso   1.000  H
  C119     1.0000 0.16883  0.07844  0.78836  Biso   1.000  C
  C120     1.0000 0.16885  0.07852  0.78836  Biso   1.000  C
  H106     1.0000 0.94114  0.85000  0.68307  Biso   1.000  H
  H107     1.0000 0.02262  0.84452  0.77478  Biso   1.000  H
  H108     1.0000 0.02270  0.84452  0.77478  Biso   1.000  H
  H109     1.0000 0.28687  0.76377  0.76336  Biso   1.000  H
  H110     1.0000 0.19911  0.83805  0.82262  Biso   1.000  H
  N58      1.0000 0.35542  0.94558  0.82487  Biso   1.000  N
  H111     1.0000 0.28689  0.76385  0.76336  Biso   1.000  H
  H112     1.0000 0.19922  0.83814  0.82262  Biso   1.000  H
  N59      1.0000 0.35553  0.94566  0.82487  Biso   1.000  N
  H113     1.0000 0.71323  0.23633  0.23672  Biso   1.000  H
  H114     1.0000 0.80090  0.16204  0.17745  Biso   1.000  H
  N60      1.0000 0.79834  0.19813  0.34114  Biso   1.000  N
  C121     1.0000 0.85379  0.00460  0.42576  Biso   1.000  C
  C122     1.0000 0.89382  0.15508  0.36200  Biso   1.000  C
  C123     1.0000 0.85390  0.00468  0.42576  Biso   1.000  C
  C124     1.0000 0.89384  0.15516  0.36200  Biso   1.000  C
  H115     1.0000 0.87118  0.65570  0.66992  Biso   1.000  H
  H116     1.0000 0.99633  0.63627  0.65651  Biso   1.000  H
  H117     1.0000 0.87128  0.65578  0.66992  Biso   1.000  H
  H118     1.0000 0.14787  0.14750  0.78845  Biso   1.000  H
  H119     1.0000 0.11996  0.05156  0.83569  Biso   1.000  H
  N61      1.0000 0.29127  0.12017  0.83906  Biso   1.000  N
  H120     1.0000 0.11998  0.05164  0.83569  Biso   1.000  H
  N62      1.0000 0.29129  0.12025  0.83906  Biso   1.000  N
  C125     1.0000 0.47104  0.94638  0.83145  Biso   1.000  C
  C126     1.0000 0.34170  0.06671  0.89867  Biso   1.000  C
  C127     1.0000 0.76892  0.28030  0.44194  Biso   1.000  C
  C128     1.0000 0.76894  0.28038  0.44194  Biso   1.000  C
  O24      1.0000 0.82593  0.90152  0.42213  Biso   1.000  O
  O25      1.0000 0.82595  0.90160  0.42213  Biso   1.000  O
  N63      1.0000 0.88905  0.11554  0.52344  Biso   1.000  N
  C129     1.0000 0.92241  0.22090  0.49852  Biso   1.000  C
  C130     1.0000 0.92243  0.22099  0.49852  Biso   1.000  C
  C131     1.0000 0.00140  0.18828  0.30749  Biso   1.000  C
  C132     1.0000 0.00143  0.18836  0.30749  Biso   1.000  C
  C133     1.0000 0.37011  0.22265  0.84425  Biso   1.000  C
  C134     1.0000 0.37021  0.22273  0.84425  Biso   1.000  C
  O26      1.0000 0.50776  0.85599  0.79035  Biso   1.000  O
  N64      1.0000 0.54003  0.06792  0.89945  Biso   1.000  N
  N65      1.0000 0.54011  0.06792  0.89945  Biso   1.000  N
  C135     1.0000 0.47097  0.15287  0.94384  Biso   1.000  C
  H121     1.0000 0.29979  0.06691  0.96244  Biso   1.000  H
  C136     1.0000 0.47099  0.15295  0.94384  Biso   1.000  C
  N66      1.0000 0.84123  0.29554  0.53365  Biso   1.000  N
  O27      1.0000 0.69594  0.33415  0.44791  Biso   1.000  O
  N67      1.0000 0.84125  0.29562  0.53365  Biso   1.000  N
  C137     1.0000 0.92115  0.12278  0.63367  Biso   1.000  C
  C138     1.0000 0.05154  0.29657  0.54325  Biso   1.000  C
  H122     1.0000 0.97740  0.15558  0.22530  Biso   1.000  H
  H123     1.0000 0.97742  0.15566  0.22530  Biso   1.000  H
  H124     1.0000 0.05887  0.15010  0.31701  Biso   1.000  H
  C139     1.0000 0.05765  0.32728  0.36260  Biso   1.000  C
  H125     1.0000 0.05896  0.15010  0.31701  Biso   1.000  H
  C140     1.0000 0.05767  0.32736  0.36260  Biso   1.000  C
  N68      1.0000 0.47887  0.23516  0.89348  Biso   1.000  N
  O28      1.0000 0.34766  0.29353  0.81293  Biso   1.000  O
  N69      1.0000 0.47890  0.23524  0.89348  Biso   1.000  N
  O29      1.0000 0.34768  0.29361  0.81293  Biso   1.000  O
  C141     1.0000 0.66772  0.10297  0.91857  Biso   1.000  C
  C142     1.0000 0.66783  0.10305  0.91857  Biso   1.000  C
  H126     1.0000 0.48613  0.19879  0.02845  Biso   1.000  H
  H127     1.0000 0.48621  0.19879  0.02845  Biso   1.000  H
  C143     1.0000 0.83764  0.38328  0.65028  Biso   1.000  C
  H128     1.0000 0.99891  0.18177  0.66801  Biso   1.000  H
  H129     1.0000 0.92630  0.04252  0.62000  Biso   1.000  H
  N70      1.0000 0.84094  0.15869  0.71543  Biso   1.000  N
  H130     1.0000 0.99899  0.18177  0.66801  Biso   1.000  H
  H131     1.0000 0.92641  0.04260  0.62000  Biso   1.000  H
  C144     1.0000 0.08955  0.38913  0.49610  Biso   1.000  C
  H132     1.0000 0.06351  0.34107  0.62700  Biso   1.000  H
  H133     1.0000 0.10025  0.24134  0.51989  Biso   1.000  H
  H134     1.0000 0.06360  0.34107  0.62700  Biso   1.000  H
  H135     1.0000 0.12882  0.34431  0.33016  Biso   1.000  H
  H136     1.0000 0.00375  0.36378  0.34348  Biso   1.000  H
  H137     1.0000 0.12884  0.34440  0.33016  Biso   1.000  H
  H138     1.0000 0.00377  0.36387  0.34348  Biso   1.000  H
  C145     1.0000 0.57655  0.34736  0.92593  Biso   1.000  C
  C146     1.0000 0.57657  0.34744  0.92593  Biso   1.000  C
  H139     1.0000 0.69643  0.16650  0.99817  Biso   1.000  H
  H140     1.0000 0.69184  0.03173  0.90758  Biso   1.000  H
  N71      1.0000 0.72236  0.14885  0.84287  Biso   1.000  N
  H141     1.0000 0.69654  0.16658  0.99817  Biso   1.000  H
  H142     1.0000 0.69192  0.03173  0.90758  Biso   1.000  H
  N72      1.0000 0.72238  0.14893  0.84287  Biso   1.000  N
  H143     1.0000 0.91795  0.43083  0.68895  Biso   1.000  H
  H144     1.0000 0.79838  0.44025  0.64760  Biso   1.000  H
  N73      1.0000 0.77763  0.32847  0.71915  Biso   1.000  N
  H145     1.0000 0.91797  0.43091  0.68895  Biso   1.000  H
  C147     1.0000 0.77593  0.08074  0.75471  Biso   1.000  C
  C148     1.0000 0.83974  0.28527  0.78291  Biso   1.000  C
  H146     1.0000 0.05150  0.45349  0.53140  Biso   1.000  H
  H147     1.0000 0.17414  0.42802  0.51782  Biso   1.000  H
  H148     1.0000 0.05153  0.45357  0.53140  Biso   1.000  H
  H149     1.0000 0.17416  0.42810  0.51782  Biso   1.000  H
  H150     1.0000 0.54623  0.40910  0.92074  Biso   1.000  H
  N74      1.0000 0.66708  0.32619  0.85394  Biso   1.000  N
  H151     1.0000 0.54632  0.40910  0.92074  Biso   1.000  H
  H152     1.0000 0.61100  0.38022  0.00570  Biso   1.000  H
  C149     1.0000 0.76004  0.27929  0.87315  Biso   1.000  C
  C150     1.0000 0.76012  0.27929  0.87315  Biso   1.000  C
  C151     1.0000 0.68101  0.35664  0.76595  Biso   1.000  C
  C152     1.0000 0.68112  0.35672  0.76595  Biso   1.000  C
  O30      1.0000 0.77035  0.97227  0.71915  Biso   1.000  O
  H153     1.0000 0.91929  0.34177  0.81977  Biso   1.000  H
  H154     1.0000 0.91931  0.34186  0.81977  Biso   1.000  H
  H155     1.0000 0.80344  0.33056  0.95206  Biso   1.000  H
  H156     1.0000 0.80346  0.33064  0.95206  Biso   1.000  H
  O31      1.0000 0.61743  0.40299  0.73567  Biso   1.000  O
  O32      1.0000 0.61752  0.40299  0.73567  Biso   1.000  O
