data_image0
_cell_length_a       13.916
_cell_length_b       21.217
_cell_length_c       21.768
_cell_angle_alpha    90
_cell_angle_beta     95.42
_cell_angle_gamma    90

_symmetry_space_group_name_H-M    "P 1"
_symmetry_int_tables_number       1

loop_
  _symmetry_equiv_pos_as_xyz
  'x, y, z'

loop_
  _atom_site_label
  _atom_site_occupancy
  _atom_site_fract_x
  _atom_site_fract_y
  _atom_site_fract_z
  _atom_site_thermal_displace_type
  _atom_site_B_iso_or_equiv
  _atom_site_type_symbol
  N1       1.0000 0.59796  0.45228  0.52001  Biso   1.000  N
  C1       1.0000 0.61016  0.46821  0.46251  Biso   1.000  C
  C2       1.0000 0.64118  0.48800  0.56500  Biso   1.000  C
  C3       1.0000 0.56186  0.42909  0.41139  Biso   1.000  C
  C4       1.0000 0.66625  0.51921  0.44719  Biso   1.000  C
  C5       1.0000 0.62565  0.47189  0.63058  Biso   1.000  C
  C6       1.0000 0.69977  0.53938  0.55397  Biso   1.000  C
  O1       1.0000 0.51628  0.37871  0.43169  Biso   1.000  O
  O2       1.0000 0.56405  0.44252  0.35809  Biso   1.000  O
  C7       1.0000 0.71293  0.55418  0.49371  Biso   1.000  C
  H1       1.0000 0.67149  0.52991  0.40289  Biso   1.000  H
  O3       1.0000 0.56746  0.42268  0.63510  Biso   1.000  O
  O4       1.0000 0.66387  0.50219  0.67331  Biso   1.000  O
  H2       1.0000 0.73276  0.56412  0.58900  Biso   1.000  H
  C8       1.0000 0.46073  0.34062  0.38499  Biso   1.000  C
  H3       1.0000 0.75504  0.59028  0.48402  Biso   1.000  H
  C9       1.0000 0.53983  0.40802  0.69610  Biso   1.000  C
  C10      1.0000 0.48446  0.27209  0.39431  Biso   1.000  C
  H4       1.0000 0.47646  0.35401  0.34309  Biso   1.000  H
  H5       1.0000 0.39027  0.34689  0.38859  Biso   1.000  H
  C11      1.0000 0.56166  0.33902  0.71059  Biso   1.000  C
  H6       1.0000 0.57847  0.43479  0.72711  Biso   1.000  H
  H7       1.0000 0.46954  0.41660  0.69799  Biso   1.000  H
  C12      1.0000 0.40956  0.22930  0.39611  Biso   1.000  C
  C13      1.0000 0.58005  0.25211  0.39828  Biso   1.000  C
  C14      1.0000 0.48464  0.29811  0.71751  Biso   1.000  C
  C15      1.0000 0.65622  0.31800  0.71737  Biso   1.000  C
  C16      1.0000 0.42930  0.16572  0.40128  Biso   1.000  C
  H8       1.0000 0.34148  0.24480  0.39399  Biso   1.000  H
  C17      1.0000 0.59823  0.18749  0.40271  Biso   1.000  C
  H9       1.0000 0.63427  0.28298  0.39759  Biso   1.000  H
  C18      1.0000 0.50515  0.23491  0.72988  Biso   1.000  C
  H10      1.0000 0.41655  0.31371  0.71428  Biso   1.000  H
  C19      1.0000 0.67444  0.25541  0.73122  Biso   1.000  C
  H11      1.0000 0.71072  0.34750  0.71170  Biso   1.000  H
  C20      1.0000 0.52355  0.14460  0.40502  Biso   1.000  C
  O5       1.0000 0.36054  0.11990  0.40428  Biso   1.000  O
  O6       1.0000 0.68999  0.16218  0.40700  Biso   1.000  O
  O7       1.0000 0.43647  0.18971  0.73680  Biso   1.000  O
  C21      1.0000 0.59882  0.21341  0.73740  Biso   1.000  C
  O8       1.0000 0.76514  0.22920  0.74008  Biso   1.000  O
  H12      1.0000 0.53784  0.09860  0.40931  Biso   1.000  H
  C22      1.0000 0.26183  0.14041  0.39620  Biso   1.000  C
  C23      1.0000 0.76808  0.20498  0.40299  Biso   1.000  C
  C24      1.0000 0.33756  0.21040  0.73509  Biso   1.000  C
  H13      1.0000 0.61271  0.16812  0.74728  Biso   1.000  H
  C25      1.0000 0.84510  0.26988  0.73219  Biso   1.000  C
  C26      1.0000 0.19728  0.08531  0.40239  Biso   1.000  C
  H14      1.0000 0.24808  0.16030  0.35472  Biso   1.000  H
  H15      1.0000 0.25008  0.17180  0.42901  Biso   1.000  H
  C27      1.0000 0.85967  0.16708  0.40719  Biso   1.000  C
  H16      1.0000 0.75927  0.22812  0.36279  Biso   1.000  H
  H17      1.0000 0.77056  0.23599  0.43778  Biso   1.000  H
  C28      1.0000 0.27571  0.15332  0.74451  Biso   1.000  C
  H18      1.0000 0.33144  0.24188  0.76860  Biso   1.000  H
  H19      1.0000 0.31664  0.23000  0.69421  Biso   1.000  H
  C29      1.0000 0.93555  0.23109  0.73929  Biso   1.000  C
  H20      1.0000 0.84806  0.30461  0.76338  Biso   1.000  H
  H21      1.0000 0.83790  0.28831  0.68978  Biso   1.000  H
  O9       1.0000 0.19718  0.06259  0.46399  Biso   1.000  O
  H22      1.0000 0.22115  0.05062  0.37668  Biso   1.000  H
  H23      1.0000 0.12980  0.09671  0.38628  Biso   1.000  H
  O10      1.0000 0.88004  0.14281  0.46768  Biso   1.000  O
  H24      1.0000 0.85169  0.13150  0.37701  Biso   1.000  H
  H25      1.0000 0.91445  0.19451  0.39708  Biso   1.000  H
  O11      1.0000 0.26394  0.11321  0.69259  Biso   1.000  O
  H26      1.0000 0.30796  0.12862  0.77990  Biso   1.000  H
  H27      1.0000 0.21062  0.16741  0.75480  Biso   1.000  H
  O12      1.0000 0.93255  0.18622  0.69029  Biso   1.000  O
  H28      1.0000 0.99395  0.25852  0.73869  Biso   1.000  H
  H29      1.0000 0.93791  0.20818  0.77958  Biso   1.000  H
  C30      1.0000 0.26346  0.01159  0.47871  Biso   1.000  C
  C31      1.0000 0.97194  0.11312  0.47442  Biso   1.000  C
  C32      1.0000 0.33772  0.06740  0.68900  Biso   1.000  C
  C33      1.0000 0.02305  0.15539  0.69001  Biso   1.000  C
  H30      1.0000 0.33078  0.02682  0.47520  Biso   1.000  H
  C34      1.0000 0.25538  0.98940  0.54271  Biso   1.000  C
  H31      1.0000 0.24835  0.97629  0.44890  Biso   1.000  H
  C35      1.0000 0.98797  0.08319  0.53672  Biso   1.000  C
  H32      1.0000 0.97476  0.08050  0.44152  Biso   1.000  H
  H33      1.0000 0.02334  0.14540  0.47022  Biso   1.000  H
  C36      1.0000 0.30116  0.01508  0.64682  Biso   1.000  C
  H34      1.0000 0.35823  0.05071  0.73108  Biso   1.000  H
  H35      1.0000 0.39413  0.08748  0.67151  Biso   1.000  H
  C37      1.0000 0.01503  0.10360  0.64400  Biso   1.000  C
  H36      1.0000 0.04234  0.13800  0.73210  Biso   1.000  H
  H37      1.0000 0.07284  0.18622  0.67880  Biso   1.000  H
  O13      1.0000 0.29297  0.03639  0.58508  Biso   1.000  O
  H38      1.0000 0.29286  0.94952  0.55028  Biso   1.000  H
  H39      1.0000 0.18597  0.98162  0.54858  Biso   1.000  H
  O14      1.0000 0.99226  0.12961  0.58328  Biso   1.000  O
  H40      1.0000 0.93287  0.05411  0.54221  Biso   1.000  H
  H41      1.0000 0.04963  0.05868  0.54018  Biso   1.000  H
  H42      1.0000 0.23605  0.00189  0.65799  Biso   1.000  H
  H43      1.0000 0.34624  0.97832  0.65139  Biso   1.000  H
  H44      1.0000 0.96205  0.07442  0.65360  Biso   1.000  H
  H45      1.0000 0.07726  0.07979  0.64548  Biso   1.000  H
  N2       1.0000 0.40198  0.54772  0.48000  Biso   1.000  N
  C38      1.0000 0.35875  0.51200  0.43501  Biso   1.000  C
  C39      1.0000 0.38978  0.53179  0.53750  Biso   1.000  C
  C40      1.0000 0.37428  0.52811  0.36939  Biso   1.000  C
  C41      1.0000 0.30016  0.46062  0.44599  Biso   1.000  C
  C42      1.0000 0.43807  0.57091  0.58858  Biso   1.000  C
  C43      1.0000 0.33361  0.48079  0.55277  Biso   1.000  C
  O15      1.0000 0.33607  0.49781  0.32671  Biso   1.000  O
  O16      1.0000 0.43247  0.57732  0.36492  Biso   1.000  O
  C44      1.0000 0.28694  0.44582  0.50631  Biso   1.000  C
  H46      1.0000 0.26718  0.43588  0.41102  Biso   1.000  H
  O17      1.0000 0.48365  0.62129  0.56828  Biso   1.000  O
  O18      1.0000 0.43581  0.55748  0.64188  Biso   1.000  O
  H47      1.0000 0.32845  0.47009  0.59707  Biso   1.000  H
  C45      1.0000 0.46011  0.59198  0.30391  Biso   1.000  C
  H48      1.0000 0.24482  0.40972  0.51600  Biso   1.000  H
  C46      1.0000 0.53913  0.65938  0.61498  Biso   1.000  C
  C47      1.0000 0.43827  0.66098  0.28938  Biso   1.000  C
  H49      1.0000 0.42147  0.56521  0.27290  Biso   1.000  H
  H50      1.0000 0.53040  0.58340  0.30202  Biso   1.000  H
  C48      1.0000 0.51548  0.72791  0.60570  Biso   1.000  C
  H51      1.0000 0.52347  0.64599  0.65688  Biso   1.000  H
  H52      1.0000 0.60966  0.65311  0.61138  Biso   1.000  H
  C49      1.0000 0.51530  0.70189  0.28250  Biso   1.000  C
  C50      1.0000 0.34371  0.68200  0.28259  Biso   1.000  C
  C51      1.0000 0.41981  0.74789  0.60169  Biso   1.000  C
  C52      1.0000 0.59038  0.77070  0.60390  Biso   1.000  C
  C53      1.0000 0.49478  0.76509  0.27009  Biso   1.000  C
  H53      1.0000 0.58339  0.68629  0.28569  Biso   1.000  H
  C54      1.0000 0.32550  0.74459  0.26880  Biso   1.000  C
  H54      1.0000 0.28915  0.65250  0.28832  Biso   1.000  H
  C55      1.0000 0.40163  0.81251  0.59730  Biso   1.000  C
  H55      1.0000 0.36566  0.71702  0.60238  Biso   1.000  H
  C56      1.0000 0.57064  0.83428  0.59869  Biso   1.000  C
  H56      1.0000 0.65845  0.75520  0.60598  Biso   1.000  H
  O19      1.0000 0.56347  0.81029  0.26321  Biso   1.000  O
  C57      1.0000 0.40105  0.78659  0.26261  Biso   1.000  C
  O20      1.0000 0.23479  0.77080  0.25989  Biso   1.000  O
  C58      1.0000 0.47631  0.85540  0.59500  Biso   1.000  C
  O21      1.0000 0.30995  0.83782  0.59301  Biso   1.000  O
  O22      1.0000 0.63932  0.88010  0.59569  Biso   1.000  O
  C59      1.0000 0.66238  0.78960  0.26492  Biso   1.000  C
  H57      1.0000 0.38715  0.83188  0.25269  Biso   1.000  H
  C60      1.0000 0.15476  0.73012  0.26778  Biso   1.000  C
  H58      1.0000 0.46203  0.90140  0.59071  Biso   1.000  H
  C61      1.0000 0.23185  0.79502  0.59698  Biso   1.000  C
  C62      1.0000 0.73804  0.85959  0.60381  Biso   1.000  C
  C63      1.0000 0.72416  0.84668  0.25551  Biso   1.000  C
  H59      1.0000 0.66850  0.75812  0.23142  Biso   1.000  H
  H60      1.0000 0.68330  0.77000  0.30580  Biso   1.000  H
  C64      1.0000 0.06439  0.76891  0.26072  Biso   1.000  C
  H61      1.0000 0.15187  0.69539  0.23659  Biso   1.000  H
  H62      1.0000 0.16196  0.71169  0.31019  Biso   1.000  H
  C65      1.0000 0.14026  0.83292  0.59278  Biso   1.000  C
  H63      1.0000 0.24067  0.77188  0.63717  Biso   1.000  H
  H64      1.0000 0.22937  0.76401  0.56219  Biso   1.000  H
  C66      1.0000 0.80265  0.91469  0.59758  Biso   1.000  C
  H65      1.0000 0.75185  0.83970  0.64530  Biso   1.000  H
  H66      1.0000 0.74986  0.82820  0.57100  Biso   1.000  H
  O23      1.0000 0.73599  0.88679  0.30742  Biso   1.000  O
  H67      1.0000 0.69198  0.87138  0.22011  Biso   1.000  H
  H68      1.0000 0.78925  0.83259  0.24522  Biso   1.000  H
  O24      1.0000 0.06739  0.81378  0.30968  Biso   1.000  O
  H69      1.0000 0.00599  0.74148  0.26132  Biso   1.000  H
  H70      1.0000 0.06195  0.79182  0.22039  Biso   1.000  H
  O25      1.0000 0.11982  0.85719  0.53229  Biso   1.000  O
  H71      1.0000 0.14824  0.86850  0.62301  Biso   1.000  H
  H72      1.0000 0.08541  0.80549  0.60289  Biso   1.000  H
  O26      1.0000 0.80275  0.93741  0.53598  Biso   1.000  O
  H73      1.0000 0.77871  0.94938  0.62328  Biso   1.000  H
  H74      1.0000 0.87014  0.90329  0.61369  Biso   1.000  H
  C67      1.0000 0.66215  0.93260  0.31102  Biso   1.000  C
  C68      1.0000 0.97689  0.84461  0.31000  Biso   1.000  C
  C69      1.0000 0.02793  0.88688  0.52560  Biso   1.000  C
  C70      1.0000 0.73648  0.98841  0.52130  Biso   1.000  C
  C71      1.0000 0.69878  0.98492  0.35320  Biso   1.000  C
  H75      1.0000 0.64170  0.94929  0.26889  Biso   1.000  H
  H76      1.0000 0.60574  0.91252  0.32851  Biso   1.000  H
  C72      1.0000 0.98484  0.89640  0.35601  Biso   1.000  C
  H77      1.0000 0.95759  0.86200  0.26792  Biso   1.000  H
  H78      1.0000 0.92710  0.81378  0.32122  Biso   1.000  H
  C73      1.0000 0.01197  0.91681  0.46330  Biso   1.000  C
  H79      1.0000 0.02517  0.91950  0.55850  Biso   1.000  H
  H80      1.0000 0.97652  0.85460  0.52979  Biso   1.000  H
  C74      1.0000 0.74456  0.01060  0.45730  Biso   1.000  C
  H81      1.0000 0.66916  0.97318  0.52481  Biso   1.000  H
  H82      1.0000 0.75152  0.02371  0.55111  Biso   1.000  H
  O27      1.0000 0.70696  0.96361  0.41489  Biso   1.000  O
  H83      1.0000 0.76388  0.99811  0.34198  Biso   1.000  H
  H84      1.0000 0.65369  0.02168  0.34858  Biso   1.000  H
  O28      1.0000 0.00767  0.87039  0.41669  Biso   1.000  O
  H85      1.0000 0.03789  0.92558  0.34641  Biso   1.000  H
  H86      1.0000 0.92267  0.92021  0.35449  Biso   1.000  H
  H87      1.0000 0.06707  0.94589  0.45781  Biso   1.000  H
  H88      1.0000 0.95023  0.94132  0.45979  Biso   1.000  H
  H89      1.0000 0.70707  0.05048  0.44969  Biso   1.000  H
  H90      1.0000 0.81396  0.01838  0.45139  Biso   1.000  H
  C75      1.0000 0.72416  0.65330  0.75549  Biso   1.000  C
  O29      1.0000 0.73592  0.61319  0.80740  Biso   1.000  O
  C76      1.0000 0.66231  0.71042  0.76490  Biso   1.000  C
  H91      1.0000 0.69191  0.62860  0.72010  Biso   1.000  H
  H92      1.0000 0.78925  0.66739  0.74520  Biso   1.000  H
  C77      1.0000 0.66215  0.56742  0.81100  Biso   1.000  C
  O30      1.0000 0.56347  0.68968  0.76320  Biso   1.000  O
  H93      1.0000 0.66843  0.74191  0.73140  Biso   1.000  H
  H94      1.0000 0.68323  0.72998  0.80579  Biso   1.000  H
  C78      1.0000 0.69871  0.51511  0.85318  Biso   1.000  C
  H95      1.0000 0.64163  0.55069  0.76892  Biso   1.000  H
  H96      1.0000 0.60574  0.58750  0.82849  Biso   1.000  H
  C79      1.0000 0.49471  0.73488  0.77012  Biso   1.000  C
  O31      1.0000 0.70689  0.53641  0.91488  Biso   1.000  O
  H97      1.0000 0.65362  0.47830  0.84861  Biso   1.000  H
  H98      1.0000 0.76382  0.50191  0.84201  Biso   1.000  H
  C80      1.0000 0.51523  0.79809  0.78249  Biso   1.000  C
  C81      1.0000 0.40105  0.71339  0.76260  Biso   1.000  C
  C82      1.0000 0.74449  0.48942  0.95728  Biso   1.000  C
  C83      1.0000 0.43821  0.83900  0.78941  Biso   1.000  C
  H99      1.0000 0.58332  0.81369  0.78572  Biso   1.000  H
  C84      1.0000 0.32543  0.75538  0.76878  Biso   1.000  C
  H100     1.0000 0.38715  0.66810  0.75268  Biso   1.000  H
  H101     1.0000 0.70701  0.44950  0.94972  Biso   1.000  H
  H102     1.0000 0.81389  0.48159  0.95138  Biso   1.000  H
  C85      1.0000 0.73648  0.51162  0.02129  Biso   1.000  C
  C86      1.0000 0.34364  0.81802  0.78258  Biso   1.000  C
  C87      1.0000 0.46004  0.90800  0.80390  Biso   1.000  C
  O32      1.0000 0.23472  0.72918  0.75987  Biso   1.000  O
  O33      1.0000 0.80276  0.56261  0.03601  Biso   1.000  O
  H103     1.0000 0.75159  0.47632  0.05110  Biso   1.000  H
  H104     1.0000 0.66916  0.52679  0.02479  Biso   1.000  H
  H105     1.0000 0.28915  0.84748  0.78830  Biso   1.000  H
  O34      1.0000 0.43240  0.92270  0.86490  Biso   1.000  O
  H106     1.0000 0.42147  0.93482  0.77289  Biso   1.000  H
  H107     1.0000 0.53033  0.91662  0.80201  Biso   1.000  H
  C88      1.0000 0.15476  0.76990  0.76781  Biso   1.000  C
  C89      1.0000 0.80266  0.58529  0.09761  Biso   1.000  C
  C90      1.0000 0.37421  0.97191  0.86938  Biso   1.000  C
  C91      1.0000 0.06432  0.73111  0.76071  Biso   1.000  C
  H108     1.0000 0.15181  0.80459  0.73662  Biso   1.000  H
  H109     1.0000 0.16196  0.78828  0.81017  Biso   1.000  H
  C92      1.0000 0.73811  0.64038  0.10380  Biso   1.000  C
  H110     1.0000 0.77879  0.55060  0.12332  Biso   1.000  H
  H111     1.0000 0.87014  0.59669  0.11372  Biso   1.000  H
  C93      1.0000 0.35868  0.98798  0.93500  Biso   1.000  C
  O35      1.0000 0.33600  0.00222  0.82669  Biso   1.000  O
  O36      1.0000 0.06732  0.68620  0.80971  Biso   1.000  O
  H112     1.0000 0.00592  0.75850  0.76131  Biso   1.000  H
  H113     1.0000 0.06196  0.70821  0.72037  Biso   1.000  H
  O37      1.0000 0.63940  0.61988  0.09567  Biso   1.000  O
  H114     1.0000 0.75186  0.66032  0.14528  Biso   1.000  H
  H115     1.0000 0.74986  0.67182  0.07099  Biso   1.000  H
  N3       1.0000 0.40191  0.95230  0.97999  Biso   1.000  N
  C94      1.0000 0.30009  0.03940  0.94598  Biso   1.000  C
  C95      1.0000 0.97682  0.65542  0.80999  Biso   1.000  C
  C96      1.0000 0.57071  0.66569  0.09867  Biso   1.000  C
  C97      1.0000 0.38978  0.96819  0.03748  Biso   1.000  C
  H116     1.0000 0.26711  0.06410  0.91100  Biso   1.000  H
  C98      1.0000 0.28701  0.05420  0.00629  Biso   1.000  C
  C99      1.0000 0.98484  0.60362  0.85600  Biso   1.000  C
  H117     1.0000 0.95752  0.63798  0.76790  Biso   1.000  H
  H118     1.0000 0.92703  0.68620  0.82120  Biso   1.000  H
  C100     1.0000 0.47639  0.64458  0.09498  Biso   1.000  C
  C101     1.0000 0.59038  0.72932  0.10389  Biso   1.000  C
  C102     1.0000 0.43808  0.92911  0.08861  Biso   1.000  C
  C103     1.0000 0.33369  0.01918  0.05281  Biso   1.000  C
  H119     1.0000 0.24490  0.09030  0.01598  Biso   1.000  H
  O38      1.0000 0.00760  0.62959  0.91668  Biso   1.000  O
  H120     1.0000 0.03782  0.57440  0.84640  Biso   1.000  H
  H121     1.0000 0.92261  0.57982  0.85452  Biso   1.000  H
  C104     1.0000 0.40171  0.68751  0.09729  Biso   1.000  C
  H122     1.0000 0.46210  0.59858  0.09069  Biso   1.000  H
  C105     1.0000 0.51548  0.77212  0.10569  Biso   1.000  C
  H123     1.0000 0.65846  0.74478  0.10601  Biso   1.000  H
  O39      1.0000 0.48366  0.87868  0.06831  Biso   1.000  O
  O40      1.0000 0.43589  0.94250  0.14191  Biso   1.000  O
  H124     1.0000 0.32845  0.02988  0.09710  Biso   1.000  H
  C106     1.0000 0.01190  0.58321  0.96328  Biso   1.000  C
  C107     1.0000 0.41989  0.75209  0.10167  Biso   1.000  C
  O41      1.0000 0.30995  0.66220  0.09300  Biso   1.000  O
  C108     1.0000 0.53921  0.84060  0.11501  Biso   1.000  C
  C109     1.0000 0.02800  0.61309  0.02558  Biso   1.000  C
  H125     1.0000 0.06700  0.55408  0.95779  Biso   1.000  H
  H126     1.0000 0.95023  0.55870  0.95978  Biso   1.000  H
  H127     1.0000 0.36567  0.78300  0.10241  Biso   1.000  H
  C110     1.0000 0.23186  0.70500  0.09701  Biso   1.000  C
  H128     1.0000 0.52348  0.85399  0.15691  Biso   1.000  H
  H129     1.0000 0.60967  0.84692  0.11141  Biso   1.000  H
  O42      1.0000 0.11990  0.64279  0.03232  Biso   1.000  O
  H130     1.0000 0.97660  0.64538  0.02978  Biso   1.000  H
  H131     1.0000 0.02518  0.58048  0.05848  Biso   1.000  H
  C111     1.0000 0.14027  0.66711  0.09281  Biso   1.000  C
  H132     1.0000 0.24067  0.72810  0.13720  Biso   1.000  H
  H133     1.0000 0.22937  0.73601  0.06217  Biso   1.000  H
  H134     1.0000 0.14825  0.63152  0.12299  Biso   1.000  H
  H135     1.0000 0.08549  0.69449  0.10287  Biso   1.000  H
  C112     1.0000 0.27577  0.34670  0.24448  Biso   1.000  C
  C113     1.0000 0.33755  0.28958  0.23511  Biso   1.000  C
  O43      1.0000 0.26401  0.38681  0.19261  Biso   1.000  O
  H136     1.0000 0.30796  0.37140  0.27992  Biso   1.000  H
  H137     1.0000 0.21069  0.33261  0.25481  Biso   1.000  H
  O44      1.0000 0.43647  0.31032  0.23682  Biso   1.000  O
  H138     1.0000 0.33151  0.25809  0.26861  Biso   1.000  H
  H139     1.0000 0.31670  0.27002  0.19418  Biso   1.000  H
  C114     1.0000 0.33779  0.43258  0.18901  Biso   1.000  C
  C115     1.0000 0.50515  0.26512  0.22990  Biso   1.000  C
  C116     1.0000 0.30115  0.48489  0.14679  Biso   1.000  C
  H140     1.0000 0.35830  0.44931  0.23110  Biso   1.000  H
  H141     1.0000 0.39420  0.41250  0.17152  Biso   1.000  H
  C117     1.0000 0.48471  0.20191  0.21748  Biso   1.000  C
  C118     1.0000 0.59889  0.28661  0.23742  Biso   1.000  C
  O45      1.0000 0.29297  0.46359  0.08509  Biso   1.000  O
  H142     1.0000 0.34631  0.52170  0.15140  Biso   1.000  H
  H143     1.0000 0.23605  0.49809  0.15800  Biso   1.000  H
  C119     1.0000 0.56166  0.16100  0.21061  Biso   1.000  C
  H144     1.0000 0.41654  0.18631  0.21430  Biso   1.000  H
  C120     1.0000 0.67450  0.24462  0.23119  Biso   1.000  C
  H145     1.0000 0.61278  0.33190  0.24729  Biso   1.000  H
  C121     1.0000 0.25537  0.51058  0.04268  Biso   1.000  C
  C122     1.0000 0.65629  0.18198  0.21739  Biso   1.000  C
  C123     1.0000 0.53990  0.09200  0.19612  Biso   1.000  C
  O46      1.0000 0.76521  0.27082  0.24009  Biso   1.000  O
  H146     1.0000 0.29286  0.55050  0.05030  Biso   1.000  H
  H147     1.0000 0.18597  0.51841  0.04859  Biso   1.000  H
  C124     1.0000 0.26345  0.48838  0.97868  Biso   1.000  C
  H148     1.0000 0.71079  0.15252  0.21171  Biso   1.000  H
  O47      1.0000 0.56746  0.07730  0.13511  Biso   1.000  O
  H149     1.0000 0.57846  0.06518  0.22708  Biso   1.000  H
  H150     1.0000 0.46961  0.08338  0.19801  Biso   1.000  H
  C125     1.0000 0.84517  0.23010  0.23220  Biso   1.000  C
  O48      1.0000 0.19711  0.43739  0.96401  Biso   1.000  O
  H151     1.0000 0.24834  0.52368  0.94892  Biso   1.000  H
  H152     1.0000 0.33070  0.47321  0.97522  Biso   1.000  H
  C126     1.0000 0.62572  0.02809  0.13059  Biso   1.000  C
  C127     1.0000 0.93555  0.26889  0.23931  Biso   1.000  C
  H153     1.0000 0.84806  0.19541  0.26340  Biso   1.000  H
  H154     1.0000 0.83797  0.21172  0.18980  Biso   1.000  H
  C128     1.0000 0.19721  0.41471  0.90240  Biso   1.000  C
  C129     1.0000 0.64118  0.01202  0.06502  Biso   1.000  C
  O49      1.0000 0.66387  0.99778  0.17332  Biso   1.000  O
  O50      1.0000 0.93254  0.31380  0.19030  Biso   1.000  O
  H155     1.0000 0.99395  0.24150  0.23871  Biso   1.000  H
  H156     1.0000 0.93798  0.29179  0.27959  Biso   1.000  H
  C130     1.0000 0.26183  0.35962  0.89622  Biso   1.000  C
  H157     1.0000 0.22115  0.44940  0.87670  Biso   1.000  H
  H158     1.0000 0.12972  0.40331  0.88630  Biso   1.000  H
  N4       1.0000 0.59802  0.04770  0.01998  Biso   1.000  N
  C131     1.0000 0.69977  0.96060  0.05399  Biso   1.000  C
  C132     1.0000 0.02304  0.34458  0.18998  Biso   1.000  C
  O51      1.0000 0.36054  0.38012  0.90429  Biso   1.000  O
  H159     1.0000 0.24800  0.33968  0.85469  Biso   1.000  H
  H160     1.0000 0.25000  0.32818  0.92898  Biso   1.000  H
  C133     1.0000 0.61015  0.03181  0.96248  Biso   1.000  C
  C134     1.0000 0.71292  0.94580  0.99368  Biso   1.000  C
  H161     1.0000 0.73276  0.93590  0.08901  Biso   1.000  H
  C135     1.0000 0.01510  0.39638  0.14402  Biso   1.000  C
  H162     1.0000 0.04234  0.36202  0.23211  Biso   1.000  H
  H163     1.0000 0.07291  0.31380  0.17881  Biso   1.000  H
  C136     1.0000 0.42922  0.33431  0.90130  Biso   1.000  C
  C137     1.0000 0.66624  0.98082  0.94721  Biso   1.000  C
  C138     1.0000 0.56186  0.07089  0.91140  Biso   1.000  C
  H164     1.0000 0.75504  0.90970  0.98399  Biso   1.000  H
  O52      1.0000 0.99226  0.37041  0.08329  Biso   1.000  O
  H165     1.0000 0.96205  0.42560  0.15362  Biso   1.000  H
  H166     1.0000 0.07726  0.42018  0.14550  Biso   1.000  H
  C139     1.0000 0.52354  0.35542  0.90499  Biso   1.000  C
  C140     1.0000 0.40955  0.27068  0.89608  Biso   1.000  C
  H167     1.0000 0.67141  0.97012  0.90291  Biso   1.000  H
  O53      1.0000 0.51621  0.12132  0.93170  Biso   1.000  O
  O54      1.0000 0.56404  0.05750  0.85810  Biso   1.000  O
  C141     1.0000 0.98796  0.41679  0.03669  Biso   1.000  C
  C142     1.0000 0.59822  0.31249  0.90268  Biso   1.000  C
  H168     1.0000 0.53783  0.40142  0.90928  Biso   1.000  H
  C143     1.0000 0.48445  0.22788  0.89428  Biso   1.000  C
  H169     1.0000 0.34141  0.25522  0.89400  Biso   1.000  H
  C144     1.0000 0.46073  0.15940  0.88501  Biso   1.000  C
  H170     1.0000 0.93286  0.44592  0.04218  Biso   1.000  H
  C145     1.0000 0.97193  0.38691  0.97439  Biso   1.000  C
  H171     1.0000 0.04970  0.44130  0.04019  Biso   1.000  H
  C146     1.0000 0.58004  0.24791  0.89830  Biso   1.000  C
  O55      1.0000 0.68991  0.33780  0.90702  Biso   1.000  O
  H172     1.0000 0.47646  0.14601  0.84311  Biso   1.000  H
  H173     1.0000 0.39027  0.15308  0.88861  Biso   1.000  H
  O56      1.0000 0.88004  0.35721  0.96770  Biso   1.000  O
  H174     1.0000 0.97476  0.41952  0.94149  Biso   1.000  H
  H175     1.0000 0.02333  0.35462  0.97019  Biso   1.000  H
  H176     1.0000 0.63427  0.21700  0.89760  Biso   1.000  H
  C147     1.0000 0.76801  0.29500  0.90300  Biso   1.000  C
  C148     1.0000 0.85960  0.33289  0.90720  Biso   1.000  C
  H177     1.0000 0.75926  0.27190  0.86281  Biso   1.000  H
  H178     1.0000 0.77056  0.26399  0.93780  Biso   1.000  H
  H179     1.0000 0.85162  0.36848  0.87702  Biso   1.000  H
  H180     1.0000 0.91445  0.30551  0.89710  Biso   1.000  H
