data_image0
_cell_length_a       11.871
_cell_length_b       23.066
_cell_length_c       20.45
_cell_angle_alpha    90
_cell_angle_beta     90.31
_cell_angle_gamma    90

_symmetry_space_group_name_H-M    "P 1"
_symmetry_int_tables_number       1

loop_
  _symmetry_equiv_pos_as_xyz
  'x, y, z'

loop_
  _atom_site_label
  _atom_site_occupancy
  _atom_site_fract_x
  _atom_site_fract_y
  _atom_site_fract_z
  _atom_site_thermal_displace_type
  _atom_site_B_iso_or_equiv
  _atom_site_type_symbol
  C1       1.0000 0.55765  0.48812  0.41438  Biso   1.000  C
  C2       1.0000 0.45637  0.45786  0.41150  Biso   1.000  C
  C3       1.0000 0.55343  0.54812  0.42221  Biso   1.000  C
  H1       1.0000 0.63133  0.46740  0.41111  Biso   1.000  H
  O1       1.0000 0.46791  0.39886  0.40245  Biso   1.000  O
  C4       1.0000 0.35458  0.48522  0.41741  Biso   1.000  C
  C5       1.0000 0.45063  0.57700  0.42842  Biso   1.000  C
  O2       1.0000 0.64730  0.58298  0.42617  Biso   1.000  O
  C6       1.0000 0.36541  0.36530  0.40450  Biso   1.000  C
  C7       1.0000 0.35163  0.54561  0.42641  Biso   1.000  C
  H2       1.0000 0.28287  0.46246  0.41561  Biso   1.000  H
  H3       1.0000 0.44866  0.62005  0.43438  Biso   1.000  H
  C8       1.0000 0.75550  0.55636  0.42098  Biso   1.000  C
  C9       1.0000 0.39445  0.30248  0.39380  Biso   1.000  C
  H4       1.0000 0.32748  0.37089  0.44749  Biso   1.000  H
  H5       1.0000 0.31402  0.37822  0.36851  Biso   1.000  H
  C10      1.0000 0.23894  0.57418  0.43790  Biso   1.000  C
  C11      1.0000 0.84424  0.60223  0.42431  Biso   1.000  C
  H6       1.0000 0.76637  0.52766  0.45712  Biso   1.000  H
  H7       1.0000 0.76075  0.53607  0.37790  Biso   1.000  H
  O3       1.0000 0.42669  0.29338  0.32758  Biso   1.000  O
  H8       1.0000 0.45808  0.29168  0.42358  Biso   1.000  H
  H9       1.0000 0.32733  0.27798  0.40392  Biso   1.000  H
  O4       1.0000 0.23690  0.63383  0.41766  Biso   1.000  O
  H10      1.0000 0.22203  0.57240  0.48568  Biso   1.000  H
  H11      1.0000 0.17940  0.55272  0.41301  Biso   1.000  H
  O5       1.0000 0.83823  0.63769  0.36729  Biso   1.000  O
  H12      1.0000 0.83206  0.62620  0.46441  Biso   1.000  H
  H13      1.0000 0.92033  0.58372  0.42661  Biso   1.000  H
  C12      1.0000 0.45446  0.23372  0.31590  Biso   1.000  C
  C13      1.0000 0.22811  0.64541  0.35179  Biso   1.000  C
  C14      1.0000 0.92517  0.68100  0.36788  Biso   1.000  C
  C15      1.0000 0.48354  0.22670  0.24460  Biso   1.000  C
  H14      1.0000 0.52001  0.22232  0.34401  Biso   1.000  H
  H15      1.0000 0.38844  0.20862  0.32641  Biso   1.000  H
  C16      1.0000 0.21975  0.60297  0.30460  Biso   1.000  C
  C17      1.0000 0.22855  0.70376  0.33541  Biso   1.000  C
  C18      1.0000 0.90522  0.72401  0.31521  Biso   1.000  C
  H16      1.0000 0.92541  0.70112  0.41130  Biso   1.000  H
  H17      1.0000 0.99974  0.66201  0.36079  Biso   1.000  H
  O6       1.0000 0.38950  0.23584  0.20519  Biso   1.000  O
  H18      1.0000 0.54273  0.25579  0.23321  Biso   1.000  H
  H19      1.0000 0.51303  0.18668  0.23668  Biso   1.000  H
  C19      1.0000 0.20903  0.61970  0.23868  Biso   1.000  C
  H20      1.0000 0.21920  0.56100  0.31702  Biso   1.000  H
  C20      1.0000 0.21910  0.72002  0.27062  Biso   1.000  C
  H21      1.0000 0.23511  0.73407  0.37018  Biso   1.000  H
  O7       1.0000 0.91458  0.69700  0.25296  Biso   1.000  O
  H22      1.0000 0.96077  0.75648  0.31868  Biso   1.000  H
  H23      1.0000 0.82717  0.73970  0.31942  Biso   1.000  H
  C21      1.0000 0.39664  0.21308  0.13971  Biso   1.000  C
  O8       1.0000 0.19364  0.57387  0.19634  Biso   1.000  O
  C22      1.0000 0.21072  0.67762  0.22132  Biso   1.000  C
  C23      1.0000 0.21706  0.78301  0.25101  Biso   1.000  C
  C24      1.0000 0.88831  0.73528  0.20030  Biso   1.000  C
  C25      1.0000 0.48504  0.24001  0.09809  Biso   1.000  C
  H24      1.0000 0.41478  0.17090  0.14382  Biso   1.000  H
  H25      1.0000 0.32188  0.21781  0.11741  Biso   1.000  H
  C26      1.0000 0.21254  0.57999  0.12690  Biso   1.000  C
  H26      1.0000 0.20523  0.68920  0.17428  Biso   1.000  H
  O9       1.0000 0.26855  0.82008  0.29785  Biso   1.000  O
  H27      1.0000 0.13706  0.79541  0.24440  Biso   1.000  H
  H28      1.0000 0.25896  0.78709  0.20900  Biso   1.000  H
  C27      1.0000 0.89699  0.70350  0.13751  Biso   1.000  C
  H29      1.0000 0.94156  0.76901  0.20098  Biso   1.000  H
  H30      1.0000 0.80943  0.74972  0.20528  Biso   1.000  H
  O10      1.0000 0.47212  0.29975  0.09570  Biso   1.000  O
  H31      1.0000 0.56119  0.23090  0.11648  Biso   1.000  H
  H32      1.0000 0.47897  0.22418  0.05271  Biso   1.000  H
  C28      1.0000 0.32559  0.55541  0.10968  Biso   1.000  C
  H33      1.0000 0.21024  0.62200  0.11482  Biso   1.000  H
  H34      1.0000 0.15225  0.55870  0.10250  Biso   1.000  H
  O11      1.0000 0.81544  0.65859  0.13663  Biso   1.000  O
  H35      1.0000 0.88291  0.73038  0.10000  Biso   1.000  H
  H36      1.0000 0.97437  0.68668  0.13379  Biso   1.000  H
  C29      1.0000 0.53432  0.32619  0.04401  Biso   1.000  C
  C30      1.0000 0.33512  0.49688  0.09232  Biso   1.000  C
  C31      1.0000 0.42157  0.58970  0.11301  Biso   1.000  C
  C32      1.0000 0.80045  0.63522  0.07311  Biso   1.000  C
  C33      1.0000 0.55113  0.38858  0.05839  Biso   1.000  C
  H37      1.0000 0.60900  0.30638  0.04010  Biso   1.000  H
  H38      1.0000 0.49189  0.32229  0.00191  Biso   1.000  H
  C34      1.0000 0.44090  0.47312  0.08059  Biso   1.000  C
  H39      1.0000 0.26593  0.47238  0.08861  Biso   1.000  H
  C35      1.0000 0.52691  0.56598  0.09849  Biso   1.000  C
  H40      1.0000 0.41537  0.63149  0.12572  Biso   1.000  H
  C36      1.0000 0.72264  0.58320  0.07692  Biso   1.000  C
  H41      1.0000 0.76598  0.66539  0.04421  Biso   1.000  H
  H42      1.0000 0.87457  0.62291  0.05472  Biso   1.000  H
  O12      1.0000 0.44227  0.41611  0.06450  Biso   1.000  O
  H43      1.0000 0.59350  0.40748  0.02201  Biso   1.000  H
  H44      1.0000 0.59465  0.39292  0.10010  Biso   1.000  H
  C37      1.0000 0.53814  0.50728  0.08372  Biso   1.000  C
  O13      1.0000 0.61554  0.60366  0.10000  Biso   1.000  O
  H45      1.0000 0.75452  0.55402  0.10802  Biso   1.000  H
  H46      1.0000 0.71314  0.56512  0.03281  Biso   1.000  H
  H47      1.0000 0.61388  0.48999  0.07511  Biso   1.000  H
  C38      1.0000 0.44249  0.51188  0.58558  Biso   1.000  C
  C39      1.0000 0.44663  0.45188  0.57781  Biso   1.000  C
  C40      1.0000 0.54377  0.54214  0.58852  Biso   1.000  C
  H48      1.0000 0.36873  0.53260  0.58891  Biso   1.000  H
  O14      1.0000 0.35275  0.41702  0.57385  Biso   1.000  O
  C41      1.0000 0.54943  0.42300  0.57160  Biso   1.000  C
  C42      1.0000 0.64556  0.51478  0.58260  Biso   1.000  C
  O15      1.0000 0.53215  0.60114  0.59756  Biso   1.000  O
  C43      1.0000 0.24455  0.44364  0.57898  Biso   1.000  C
  C44      1.0000 0.64843  0.45439  0.57360  Biso   1.000  C
  H49      1.0000 0.55148  0.37995  0.56558  Biso   1.000  H
  H50      1.0000 0.71727  0.53754  0.58441  Biso   1.000  H
  C45      1.0000 0.63465  0.63470  0.59551  Biso   1.000  C
  C46      1.0000 0.15582  0.39777  0.57571  Biso   1.000  C
  H51      1.0000 0.23377  0.47234  0.54289  Biso   1.000  H
  H52      1.0000 0.23939  0.46393  0.62211  Biso   1.000  H
  C47      1.0000 0.76111  0.42582  0.56211  Biso   1.000  C
  C48      1.0000 0.60568  0.69752  0.60622  Biso   1.000  C
  H53      1.0000 0.67266  0.62911  0.55248  Biso   1.000  H
  H54      1.0000 0.68603  0.62178  0.63150  Biso   1.000  H
  O16      1.0000 0.16182  0.36231  0.63272  Biso   1.000  O
  H55      1.0000 0.16808  0.37380  0.53561  Biso   1.000  H
  H56      1.0000 0.07973  0.41628  0.57341  Biso   1.000  H
  O17      1.0000 0.76316  0.36617  0.58231  Biso   1.000  O
  H57      1.0000 0.77802  0.42760  0.51429  Biso   1.000  H
  H58      1.0000 0.82065  0.44728  0.58700  Biso   1.000  H
  O18      1.0000 0.57336  0.70662  0.67243  Biso   1.000  O
  H59      1.0000 0.54206  0.70832  0.57639  Biso   1.000  H
  H60      1.0000 0.67273  0.72202  0.59610  Biso   1.000  H
  C49      1.0000 0.07497  0.31900  0.63209  Biso   1.000  C
  C50      1.0000 0.77194  0.35459  0.64818  Biso   1.000  C
  C51      1.0000 0.54567  0.76628  0.68412  Biso   1.000  C
  C52      1.0000 0.09483  0.27599  0.68480  Biso   1.000  C
  H61      1.0000 0.07465  0.29888  0.58871  Biso   1.000  H
  H62      1.0000 0.00040  0.33799  0.63918  Biso   1.000  H
  C53      1.0000 0.78038  0.39703  0.69541  Biso   1.000  C
  C54      1.0000 0.77159  0.29624  0.66461  Biso   1.000  C
  C55      1.0000 0.51660  0.77330  0.75541  Biso   1.000  C
  H63      1.0000 0.48004  0.77768  0.65600  Biso   1.000  H
  H64      1.0000 0.61162  0.79138  0.67360  Biso   1.000  H
  O19      1.0000 0.08547  0.30300  0.74705  Biso   1.000  O
  H65      1.0000 0.03937  0.24352  0.68128  Biso   1.000  H
  H66      1.0000 0.17297  0.26030  0.68060  Biso   1.000  H
  C56      1.0000 0.79111  0.38030  0.76128  Biso   1.000  C
  H67      1.0000 0.78086  0.43900  0.68299  Biso   1.000  H
  C57      1.0000 0.78095  0.27998  0.72940  Biso   1.000  C
  H68      1.0000 0.76495  0.26593  0.62979  Biso   1.000  H
  O20      1.0000 0.61056  0.76416  0.79483  Biso   1.000  O
  H69      1.0000 0.45740  0.74421  0.76681  Biso   1.000  H
  H70      1.0000 0.48711  0.81332  0.76329  Biso   1.000  H
  C58      1.0000 0.11174  0.26472  0.79972  Biso   1.000  C
  O21      1.0000 0.80650  0.42613  0.80368  Biso   1.000  O
  C59      1.0000 0.78933  0.32238  0.77869  Biso   1.000  C
  C60      1.0000 0.78307  0.21699  0.74901  Biso   1.000  C
  C61      1.0000 0.60350  0.78692  0.86031  Biso   1.000  C
  C62      1.0000 0.10306  0.29650  0.86251  Biso   1.000  C
  H71      1.0000 0.05858  0.23099  0.79898  Biso   1.000  H
  H72      1.0000 0.19071  0.25028  0.79468  Biso   1.000  H
  C63      1.0000 0.78760  0.42001  0.87312  Biso   1.000  C
  H73      1.0000 0.79491  0.31080  0.82568  Biso   1.000  H
  O22      1.0000 0.73159  0.17992  0.70216  Biso   1.000  O
  H74      1.0000 0.86308  0.20459  0.75561  Biso   1.000  H
  H75      1.0000 0.74118  0.21291  0.79101  Biso   1.000  H
  C64      1.0000 0.51510  0.75999  0.90192  Biso   1.000  C
  H76      1.0000 0.58527  0.82910  0.85620  Biso   1.000  H
  H77      1.0000 0.67818  0.78219  0.88260  Biso   1.000  H
  O23      1.0000 0.18470  0.34141  0.86334  Biso   1.000  O
  H78      1.0000 0.11714  0.26962  0.90001  Biso   1.000  H
  H79      1.0000 0.02568  0.31332  0.86622  Biso   1.000  H
  C65      1.0000 0.67446  0.44459  0.89028  Biso   1.000  C
  H80      1.0000 0.78990  0.37800  0.88520  Biso   1.000  H
  H81      1.0000 0.84789  0.44130  0.89752  Biso   1.000  H
  O24      1.0000 0.52801  0.70025  0.90427  Biso   1.000  O
  H82      1.0000 0.43886  0.76910  0.88348  Biso   1.000  H
  H83      1.0000 0.52109  0.77582  0.94730  Biso   1.000  H
  C66      1.0000 0.19969  0.36478  0.92691  Biso   1.000  C
  C67      1.0000 0.57848  0.41030  0.88701  Biso   1.000  C
  C68      1.0000 0.66502  0.50312  0.90769  Biso   1.000  C
  C69      1.0000 0.46582  0.67381  0.95600  Biso   1.000  C
  C70      1.0000 0.27749  0.41680  0.92309  Biso   1.000  C
  H84      1.0000 0.23408  0.33461  0.95581  Biso   1.000  H
  H85      1.0000 0.12548  0.37709  0.94530  Biso   1.000  H
  C71      1.0000 0.47315  0.43402  0.90148  Biso   1.000  C
  H86      1.0000 0.58468  0.36851  0.87429  Biso   1.000  H
  C72      1.0000 0.55915  0.52688  0.91938  Biso   1.000  C
  H87      1.0000 0.73421  0.52762  0.91141  Biso   1.000  H
  C73      1.0000 0.44901  0.61142  0.94158  Biso   1.000  C
  H88      1.0000 0.39105  0.69362  0.95992  Biso   1.000  H
  H89      1.0000 0.50817  0.67771  0.99811  Biso   1.000  H
  O25      1.0000 0.38460  0.39634  0.90001  Biso   1.000  O
  H90      1.0000 0.24561  0.44598  0.89199  Biso   1.000  H
  H91      1.0000 0.28700  0.43488  0.96720  Biso   1.000  H
  C74      1.0000 0.46200  0.49272  0.91630  Biso   1.000  C
  O26      1.0000 0.55779  0.58389  0.93551  Biso   1.000  O
  H92      1.0000 0.40655  0.59252  0.97801  Biso   1.000  H
  H93      1.0000 0.40549  0.60708  0.89992  Biso   1.000  H
  H94      1.0000 0.38618  0.51001  0.92490  Biso   1.000  H
  O27      1.0000 0.73148  0.32008  0.20215  Biso   1.000  O
  C75      1.0000 0.78305  0.28301  0.24900  Biso   1.000  C
  C76      1.0000 0.78093  0.22002  0.22939  Biso   1.000  C
  H95      1.0000 0.86305  0.29541  0.25560  Biso   1.000  H
  H96      1.0000 0.74115  0.28709  0.29101  Biso   1.000  H
  C77      1.0000 0.78930  0.17762  0.27868  Biso   1.000  C
  C78      1.0000 0.77148  0.20376  0.16460  Biso   1.000  C
  C79      1.0000 0.79100  0.11970  0.26132  Biso   1.000  C
  H97      1.0000 0.79480  0.18920  0.32568  Biso   1.000  H
  C80      1.0000 0.77191  0.14541  0.14822  Biso   1.000  C
  H98      1.0000 0.76492  0.23407  0.12978  Biso   1.000  H
  O28      1.0000 0.80647  0.07387  0.30367  Biso   1.000  O
  C81      1.0000 0.78036  0.10297  0.19541  Biso   1.000  C
  O29      1.0000 0.76313  0.13383  0.08230  Biso   1.000  O
  C82      1.0000 0.78757  0.07999  0.37311  Biso   1.000  C
  H99      1.0000 0.78083  0.06100  0.18299  Biso   1.000  H
  C83      1.0000 0.76109  0.07418  0.06210  Biso   1.000  C
  C84      1.0000 0.67443  0.05541  0.39032  Biso   1.000  C
  H100     1.0000 0.78988  0.12200  0.38519  Biso   1.000  H
  H101     1.0000 0.84786  0.05870  0.39751  Biso   1.000  H
  C85      1.0000 0.64840  0.04561  0.07360  Biso   1.000  C
  H102     1.0000 0.77800  0.07240  0.01428  Biso   1.000  H
  H103     1.0000 0.82062  0.05272  0.08699  Biso   1.000  H
  C86      1.0000 0.57845  0.08970  0.38700  Biso   1.000  C
  C87      1.0000 0.66491  0.99688  0.40768  Biso   1.000  C
  C88      1.0000 0.54940  0.07700  0.07159  Biso   1.000  C
  C89      1.0000 0.64553  0.98522  0.08259  Biso   1.000  C
  C90      1.0000 0.47312  0.06598  0.40152  Biso   1.000  C
  H104     1.0000 0.58465  0.13149  0.37428  Biso   1.000  H
  C91      1.0000 0.55913  0.97312  0.41942  Biso   1.000  C
  H105     1.0000 0.73410  0.97238  0.41140  Biso   1.000  H
  C92      1.0000 0.44660  0.04812  0.07780  Biso   1.000  C
  H106     1.0000 0.55137  0.12005  0.06562  Biso   1.000  H
  C93      1.0000 0.54374  0.95786  0.08851  Biso   1.000  C
  H107     1.0000 0.71724  0.96246  0.08440  Biso   1.000  H
  O30      1.0000 0.38457  0.10366  0.40001  Biso   1.000  O
  C94      1.0000 0.46197  0.00728  0.41629  Biso   1.000  C
  O31      1.0000 0.55776  0.91611  0.43551  Biso   1.000  O
  O32      1.0000 0.35272  0.08298  0.07384  Biso   1.000  O
  C95      1.0000 0.44238  0.98812  0.08558  Biso   1.000  C
  O33      1.0000 0.53212  0.89886  0.09756  Biso   1.000  O
  C96      1.0000 0.27747  0.08320  0.42309  Biso   1.000  C
  H108     1.0000 0.38615  0.98999  0.42490  Biso   1.000  H
  C97      1.0000 0.44898  0.88858  0.44162  Biso   1.000  C
  C98      1.0000 0.24452  0.05636  0.07902  Biso   1.000  C
  H109     1.0000 0.36870  0.96740  0.08890  Biso   1.000  H
  C99      1.0000 0.63462  0.86530  0.09550  Biso   1.000  C
  C100     1.0000 0.19967  0.13522  0.42690  Biso   1.000  C
  H110     1.0000 0.24550  0.05402  0.39199  Biso   1.000  H
  H111     1.0000 0.28698  0.06512  0.46720  Biso   1.000  H
  C101     1.0000 0.46571  0.82619  0.45600  Biso   1.000  C
  H112     1.0000 0.40653  0.90748  0.47800  Biso   1.000  H
  H113     1.0000 0.40546  0.89292  0.39991  Biso   1.000  H
  C102     1.0000 0.15579  0.10223  0.07570  Biso   1.000  C
  H114     1.0000 0.23374  0.02766  0.04289  Biso   1.000  H
  H115     1.0000 0.23928  0.03607  0.12210  Biso   1.000  H
  C103     1.0000 0.60557  0.80248  0.10621  Biso   1.000  C
  H116     1.0000 0.67263  0.87089  0.05252  Biso   1.000  H
  H117     1.0000 0.68600  0.87822  0.13149  Biso   1.000  H
  O34      1.0000 0.18467  0.15859  0.36333  Biso   1.000  O
  H118     1.0000 0.23405  0.16539  0.45580  Biso   1.000  H
  H119     1.0000 0.12545  0.12291  0.44529  Biso   1.000  H
  O35      1.0000 0.52790  0.79975  0.40431  Biso   1.000  O
  H120     1.0000 0.39103  0.80638  0.45991  Biso   1.000  H
  H121     1.0000 0.50814  0.82229  0.49810  Biso   1.000  H
  O36      1.0000 0.16180  0.13769  0.13272  Biso   1.000  O
  H122     1.0000 0.16797  0.12620  0.03560  Biso   1.000  H
  H123     1.0000 0.07970  0.08372  0.07340  Biso   1.000  H
  O37      1.0000 0.57334  0.79338  0.17242  Biso   1.000  O
  H124     1.0000 0.54203  0.79168  0.07638  Biso   1.000  H
  H125     1.0000 0.67270  0.77798  0.09609  Biso   1.000  H
  C104     1.0000 0.10303  0.20350  0.36250  Biso   1.000  C
  C105     1.0000 0.51508  0.74001  0.40191  Biso   1.000  C
  C106     1.0000 0.07494  0.18100  0.13208  Biso   1.000  C
  C107     1.0000 0.54565  0.73372  0.18411  Biso   1.000  C
  C108     1.0000 0.11171  0.23528  0.29971  Biso   1.000  C
  H126     1.0000 0.11711  0.23038  0.40001  Biso   1.000  H
  H127     1.0000 0.02565  0.18668  0.36622  Biso   1.000  H
  C109     1.0000 0.60339  0.71308  0.36030  Biso   1.000  C
  H128     1.0000 0.43884  0.73090  0.38348  Biso   1.000  H
  H129     1.0000 0.52106  0.72418  0.44729  Biso   1.000  H
  C110     1.0000 0.09481  0.22401  0.18479  Biso   1.000  C
  H130     1.0000 0.07462  0.20112  0.08871  Biso   1.000  H
  H131     1.0000 0.00029  0.16201  0.13922  Biso   1.000  H
  C111     1.0000 0.51649  0.72670  0.25541  Biso   1.000  C
  H132     1.0000 0.48002  0.72232  0.15599  Biso   1.000  H
  H133     1.0000 0.61159  0.70862  0.17360  Biso   1.000  H
  O38      1.0000 0.08545  0.19700  0.24705  Biso   1.000  O
  H134     1.0000 0.05855  0.26901  0.29898  Biso   1.000  H
  H135     1.0000 0.19060  0.24972  0.29472  Biso   1.000  H
  O39      1.0000 0.61053  0.73584  0.29482  Biso   1.000  O
  H136     1.0000 0.58524  0.67090  0.35619  Biso   1.000  H
  H137     1.0000 0.67815  0.71781  0.38260  Biso   1.000  H
  H138     1.0000 0.03934  0.25648  0.18132  Biso   1.000  H
  H139     1.0000 0.17294  0.23970  0.18059  Biso   1.000  H
  H140     1.0000 0.45729  0.75579  0.26680  Biso   1.000  H
  H141     1.0000 0.48700  0.68668  0.26328  Biso   1.000  H
  O40      1.0000 0.26858  0.67992  0.79781  Biso   1.000  O
  C112     1.0000 0.21709  0.71699  0.75101  Biso   1.000  C
  C113     1.0000 0.21913  0.77998  0.77062  Biso   1.000  C
  H142     1.0000 0.13709  0.70459  0.74441  Biso   1.000  H
  H143     1.0000 0.25899  0.71291  0.70901  Biso   1.000  H
  C114     1.0000 0.22858  0.79624  0.83542  Biso   1.000  C
  C115     1.0000 0.21075  0.82238  0.72128  Biso   1.000  C
  C116     1.0000 0.22814  0.85459  0.85180  Biso   1.000  C
  H144     1.0000 0.23522  0.76593  0.87018  Biso   1.000  H
  C117     1.0000 0.20906  0.88030  0.73869  Biso   1.000  C
  H145     1.0000 0.20526  0.81080  0.67429  Biso   1.000  H
  C118     1.0000 0.21978  0.89703  0.80461  Biso   1.000  C
  O41      1.0000 0.23701  0.86617  0.91767  Biso   1.000  O
  O42      1.0000 0.19367  0.92613  0.69634  Biso   1.000  O
  H146     1.0000 0.21931  0.93900  0.81698  Biso   1.000  H
  C119     1.0000 0.23897  0.92582  0.93791  Biso   1.000  C
  C120     1.0000 0.21257  0.92001  0.62690  Biso   1.000  C
  C121     1.0000 0.35166  0.95439  0.92642  Biso   1.000  C
  H147     1.0000 0.22206  0.92760  0.98569  Biso   1.000  H
  H148     1.0000 0.17951  0.94728  0.91302  Biso   1.000  H
  C122     1.0000 0.32562  0.94459  0.60969  Biso   1.000  C
  H149     1.0000 0.21026  0.87800  0.61478  Biso   1.000  H
  H150     1.0000 0.15228  0.94130  0.60250  Biso   1.000  H
  C123     1.0000 0.45065  0.92300  0.92842  Biso   1.000  C
  C124     1.0000 0.35460  0.01478  0.91742  Biso   1.000  C
  C125     1.0000 0.42169  0.91030  0.61302  Biso   1.000  C
  C126     1.0000 0.33515  0.00312  0.59228  Biso   1.000  C
  C127     1.0000 0.55345  0.95188  0.92221  Biso   1.000  C
  H151     1.0000 0.44869  0.87995  0.93439  Biso   1.000  H
  C128     1.0000 0.45639  0.04214  0.91150  Biso   1.000  C
  H152     1.0000 0.28290  0.03754  0.91561  Biso   1.000  H
  C129     1.0000 0.52693  0.93402  0.59849  Biso   1.000  C
  H153     1.0000 0.41549  0.86851  0.62568  Biso   1.000  H
  C130     1.0000 0.44093  0.02688  0.58060  Biso   1.000  C
  H154     1.0000 0.26595  0.02762  0.58861  Biso   1.000  H
  O43      1.0000 0.64742  0.91702  0.92617  Biso   1.000  O
  C131     1.0000 0.55768  0.01188  0.91439  Biso   1.000  C
  O44      1.0000 0.46802  0.10114  0.90241  Biso   1.000  O
  O45      1.0000 0.61557  0.89634  0.60001  Biso   1.000  O
  C132     1.0000 0.53817  0.99272  0.58368  Biso   1.000  C
  O46      1.0000 0.44238  0.08389  0.56451  Biso   1.000  O
  C133     1.0000 0.75561  0.94364  0.92099  Biso   1.000  C
  H155     1.0000 0.63135  0.03260  0.91111  Biso   1.000  H
  C134     1.0000 0.36552  0.13470  0.90451  Biso   1.000  C
  C135     1.0000 0.72267  0.91680  0.57688  Biso   1.000  C
  H156     1.0000 0.61399  0.01001  0.57512  Biso   1.000  H
  C136     1.0000 0.55116  0.11142  0.55839  Biso   1.000  C
  C137     1.0000 0.84427  0.89777  0.92432  Biso   1.000  C
  H157     1.0000 0.76640  0.97234  0.95708  Biso   1.000  H
  H158     1.0000 0.76077  0.96393  0.87791  Biso   1.000  H
  C138     1.0000 0.39448  0.19752  0.89380  Biso   1.000  C
  H159     1.0000 0.32751  0.12911  0.94750  Biso   1.000  H
  H160     1.0000 0.31405  0.12178  0.86852  Biso   1.000  H
  C139     1.0000 0.80047  0.86478  0.57311  Biso   1.000  C
  H161     1.0000 0.75455  0.94598  0.60798  Biso   1.000  H
  H162     1.0000 0.71316  0.93488  0.53282  Biso   1.000  H
  C140     1.0000 0.53434  0.17381  0.54402  Biso   1.000  C
  H163     1.0000 0.59353  0.09252  0.52201  Biso   1.000  H
  H164     1.0000 0.59468  0.10708  0.60011  Biso   1.000  H
  O47      1.0000 0.83826  0.86231  0.86725  Biso   1.000  O
  H165     1.0000 0.83209  0.87380  0.96442  Biso   1.000  H
  H166     1.0000 0.92035  0.91628  0.92662  Biso   1.000  H
  O48      1.0000 0.42680  0.20662  0.82754  Biso   1.000  O
  H167     1.0000 0.45811  0.20832  0.92358  Biso   1.000  H
  H168     1.0000 0.32735  0.22202  0.90388  Biso   1.000  H
  O49      1.0000 0.81547  0.84141  0.63664  Biso   1.000  O
  H169     1.0000 0.76609  0.83461  0.54421  Biso   1.000  H
  H170     1.0000 0.87468  0.87709  0.55468  Biso   1.000  H
  O50      1.0000 0.47215  0.20025  0.59571  Biso   1.000  O
  H171     1.0000 0.60903  0.19362  0.54011  Biso   1.000  H
  H172     1.0000 0.49192  0.17771  0.50191  Biso   1.000  H
  C141     1.0000 0.92520  0.81900  0.86789  Biso   1.000  C
  C142     1.0000 0.45449  0.26628  0.81590  Biso   1.000  C
  C143     1.0000 0.89702  0.79650  0.63752  Biso   1.000  C
  C144     1.0000 0.48506  0.25999  0.59810  Biso   1.000  C
  C145     1.0000 0.90525  0.77599  0.81522  Biso   1.000  C
  H173     1.0000 0.92552  0.79888  0.91131  Biso   1.000  H
  H174     1.0000 0.99977  0.83799  0.86079  Biso   1.000  H
  C146     1.0000 0.48356  0.27330  0.74461  Biso   1.000  C
  H175     1.0000 0.52004  0.27768  0.84402  Biso   1.000  H
  H176     1.0000 0.38846  0.29138  0.82642  Biso   1.000  H
  C147     1.0000 0.88834  0.76472  0.70030  Biso   1.000  C
  H177     1.0000 0.88294  0.76962  0.60001  Biso   1.000  H
  H178     1.0000 0.97449  0.81332  0.63380  Biso   1.000  H
  C148     1.0000 0.39666  0.28692  0.63972  Biso   1.000  C
  H179     1.0000 0.56122  0.26910  0.61649  Biso   1.000  H
  H180     1.0000 0.47908  0.27582  0.55272  Biso   1.000  H
  O51      1.0000 0.91469  0.80300  0.75297  Biso   1.000  O
  H181     1.0000 0.96079  0.74352  0.81869  Biso   1.000  H
  H182     1.0000 0.82720  0.76030  0.81938  Biso   1.000  H
  O52      1.0000 0.38952  0.26416  0.70519  Biso   1.000  O
  H183     1.0000 0.54276  0.24421  0.73321  Biso   1.000  H
  H184     1.0000 0.51306  0.31332  0.73669  Biso   1.000  H
  H185     1.0000 0.94159  0.73099  0.70099  Biso   1.000  H
  H186     1.0000 0.80945  0.75028  0.70529  Biso   1.000  H
  H187     1.0000 0.41490  0.32910  0.64382  Biso   1.000  H
  H188     1.0000 0.32199  0.28219  0.61742  Biso   1.000  H
