data_image0
_cell_length_a       12.606
_cell_length_b       30.281
_cell_length_c       10.549
_cell_angle_alpha    90
_cell_angle_beta     100.05
_cell_angle_gamma    90

_symmetry_space_group_name_H-M    "P 1"
_symmetry_int_tables_number       1

loop_
  _symmetry_equiv_pos_as_xyz
  'x, y, z'

loop_
  _atom_site_label
  _atom_site_occupancy
  _atom_site_fract_x
  _atom_site_fract_y
  _atom_site_fract_z
  _atom_site_thermal_displace_type
  _atom_site_B_iso_or_equiv
  _atom_site_type_symbol
  C1       1.0000 0.53740  0.34223  0.34629  Biso   1.000  C
  N1       1.0000 0.42888  0.35940  0.33811  Biso   1.000  N
  H1       1.0000 0.56056  0.34639  0.26205  Biso   1.000  H
  H2       1.0000 0.53664  0.31010  0.36333  Biso   1.000  H
  N2       1.0000 0.61589  0.36303  0.44594  Biso   1.000  N
  C2       1.0000 0.35733  0.34603  0.42399  Biso   1.000  C
  C3       1.0000 0.38073  0.38559  0.24039  Biso   1.000  C
  C4       1.0000 0.69243  0.39094  0.41600  Biso   1.000  C
  C5       1.0000 0.64266  0.34603  0.57600  Biso   1.000  C
  C6       1.0000 0.25092  0.37056  0.36892  Biso   1.000  C
  H3       1.0000 0.34692  0.31330  0.42331  Biso   1.000  H
  N3       1.0000 0.38410  0.36303  0.55405  Biso   1.000  N
  N4       1.0000 0.27559  0.39213  0.25589  Biso   1.000  N
  O1       1.0000 0.42108  0.39976  0.15163  Biso   1.000  O
  N5       1.0000 0.76520  0.39962  0.52700  Biso   1.000  N
  O2       1.0000 0.69692  0.40580  0.30981  Biso   1.000  O
  N6       1.0000 0.57111  0.35940  0.66188  Biso   1.000  N
  C7       1.0000 0.74907  0.37056  0.63107  Biso   1.000  C
  H4       1.0000 0.65307  0.31330  0.57667  Biso   1.000  H
  H5       1.0000 0.18950  0.34939  0.34649  Biso   1.000  H
  N7       1.0000 0.23479  0.39962  0.47299  Biso   1.000  N
  C8       1.0000 0.30756  0.39094  0.58399  Biso   1.000  C
  C9       1.0000 0.46259  0.34223  0.65369  Biso   1.000  C
  C10      1.0000 0.19962  0.42016  0.17406  Biso   1.000  C
  C11      1.0000 0.86913  0.41914  0.51997  Biso   1.000  C
  C12      1.0000 0.61925  0.38559  0.75959  Biso   1.000  C
  N8       1.0000 0.72440  0.39213  0.74409  Biso   1.000  N
  H6       1.0000 0.81049  0.34939  0.65350  Biso   1.000  H
  C13      1.0000 0.13086  0.41914  0.48002  Biso   1.000  C
  O3       1.0000 0.30307  0.40580  0.69018  Biso   1.000  O
  H7       1.0000 0.43943  0.34639  0.73793  Biso   1.000  H
  H8       1.0000 0.46335  0.31010  0.63665  Biso   1.000  H
  H9       1.0000 0.22417  0.42400  0.09069  Biso   1.000  H
  H10      1.0000 0.12883  0.40511  0.15702  Biso   1.000  H
  N9       1.0000 0.18576  0.46346  0.22797  Biso   1.000  N
  H11      1.0000 0.87891  0.41940  0.42890  Biso   1.000  H
  H12      1.0000 0.92617  0.40018  0.56840  Biso   1.000  H
  N10      1.0000 0.88272  0.46356  0.57013  Biso   1.000  N
  O4       1.0000 0.57891  0.39976  0.84836  Biso   1.000  O
  C14      1.0000 0.80037  0.42016  0.82593  Biso   1.000  C
  H13      1.0000 0.12108  0.41940  0.57109  Biso   1.000  H
  H14      1.0000 0.07381  0.40018  0.43159  Biso   1.000  H
  N11      1.0000 0.11727  0.46356  0.42986  Biso   1.000  N
  C15      1.0000 0.23377  0.50002  0.18792  Biso   1.000  C
  C16      1.0000 0.09797  0.47422  0.29498  Biso   1.000  C
  C17      1.0000 0.87029  0.50002  0.49369  Biso   1.000  C
  C18      1.0000 0.90202  0.47422  0.70501  Biso   1.000  C
  H15      1.0000 0.77581  0.42400  0.90930  Biso   1.000  H
  H16      1.0000 0.87116  0.40511  0.84297  Biso   1.000  H
  N12      1.0000 0.81423  0.46346  0.77201  Biso   1.000  N
  C19      1.0000 0.12970  0.50002  0.50630  Biso   1.000  C
  N13      1.0000 0.18576  0.53654  0.22797  Biso   1.000  N
  O5       1.0000 0.30742  0.50002  0.12621  Biso   1.000  O
  C20      1.0000 0.09797  0.52578  0.29498  Biso   1.000  C
  H17      1.0000 0.02784  0.46201  0.24983  Biso   1.000  H
  N14      1.0000 0.88272  0.53644  0.57013  Biso   1.000  N
  O6       1.0000 0.85599  0.50002  0.37518  Biso   1.000  O
  C21      1.0000 0.90202  0.52578  0.70501  Biso   1.000  C
  H18      1.0000 0.97215  0.46201  0.75016  Biso   1.000  H
  C22      1.0000 0.76622  0.50002  0.81206  Biso   1.000  C
  N15      1.0000 0.11727  0.53644  0.42986  Biso   1.000  N
  O7       1.0000 0.14400  0.50002  0.62481  Biso   1.000  O
  C23      1.0000 0.19962  0.57984  0.17406  Biso   1.000  C
  H19      1.0000 0.02784  0.53799  0.24983  Biso   1.000  H
  C24      1.0000 0.86913  0.58086  0.51997  Biso   1.000  C
  N16      1.0000 0.81423  0.53654  0.77201  Biso   1.000  N
  H20      1.0000 0.97215  0.53799  0.75016  Biso   1.000  H
  O8       1.0000 0.69257  0.50002  0.87377  Biso   1.000  O
  C25      1.0000 0.13086  0.58086  0.48002  Biso   1.000  C
  H21      1.0000 0.22417  0.57600  0.09069  Biso   1.000  H
  H22      1.0000 0.12883  0.59489  0.15702  Biso   1.000  H
  N17      1.0000 0.27559  0.60787  0.25589  Biso   1.000  N
  H23      1.0000 0.87891  0.58060  0.42890  Biso   1.000  H
  H24      1.0000 0.92617  0.59982  0.56840  Biso   1.000  H
  N18      1.0000 0.76520  0.60038  0.52700  Biso   1.000  N
  C26      1.0000 0.80037  0.57984  0.82593  Biso   1.000  C
  H25      1.0000 0.12108  0.58060  0.57109  Biso   1.000  H
  H26      1.0000 0.07381  0.59982  0.43159  Biso   1.000  H
  N19      1.0000 0.23479  0.60038  0.47299  Biso   1.000  N
  C27      1.0000 0.38073  0.61441  0.24039  Biso   1.000  C
  C28      1.0000 0.25092  0.62944  0.36892  Biso   1.000  C
  C29      1.0000 0.69243  0.60906  0.41600  Biso   1.000  C
  C30      1.0000 0.74907  0.62944  0.63107  Biso   1.000  C
  H27      1.0000 0.77581  0.57600  0.90930  Biso   1.000  H
  H28      1.0000 0.87116  0.59489  0.84297  Biso   1.000  H
  N20      1.0000 0.72440  0.60787  0.74409  Biso   1.000  N
  C31      1.0000 0.30756  0.60906  0.58399  Biso   1.000  C
  N21      1.0000 0.42888  0.64060  0.33811  Biso   1.000  N
  O9       1.0000 0.42108  0.60024  0.15163  Biso   1.000  O
  H29      1.0000 0.18950  0.65061  0.34649  Biso   1.000  H
  C32      1.0000 0.35733  0.65397  0.42399  Biso   1.000  C
  N22      1.0000 0.61589  0.63697  0.44594  Biso   1.000  N
  O10      1.0000 0.69692  0.59420  0.30981  Biso   1.000  O
  C33      1.0000 0.64266  0.65397  0.57600  Biso   1.000  C
  H30      1.0000 0.81049  0.65061  0.65350  Biso   1.000  H
  C34      1.0000 0.61925  0.61441  0.75959  Biso   1.000  C
  N23      1.0000 0.38410  0.63697  0.55405  Biso   1.000  N
  O11      1.0000 0.30307  0.59420  0.69018  Biso   1.000  O
  C35      1.0000 0.53740  0.65777  0.34629  Biso   1.000  C
  H31      1.0000 0.34692  0.68670  0.42331  Biso   1.000  H
  N24      1.0000 0.57111  0.64060  0.66188  Biso   1.000  N
  H32      1.0000 0.65307  0.68670  0.57667  Biso   1.000  H
  O12      1.0000 0.57891  0.60024  0.84836  Biso   1.000  O
  C36      1.0000 0.46259  0.65777  0.65369  Biso   1.000  C
  H33      1.0000 0.56056  0.65361  0.26205  Biso   1.000  H
  H34      1.0000 0.53664  0.68990  0.36333  Biso   1.000  H
  H35      1.0000 0.43943  0.65361  0.73793  Biso   1.000  H
  H36      1.0000 0.46335  0.68990  0.63665  Biso   1.000  H
  C37      1.0000 0.75092  0.12945  0.36892  Biso   1.000  C
  N25      1.0000 0.73479  0.10039  0.47299  Biso   1.000  N
  H37      1.0000 0.68950  0.15059  0.34649  Biso   1.000  H
  C38      1.0000 0.85733  0.15396  0.42399  Biso   1.000  C
  N26      1.0000 0.77559  0.10789  0.25589  Biso   1.000  N
  C39      1.0000 0.63086  0.08088  0.48002  Biso   1.000  C
  C40      1.0000 0.80756  0.10908  0.58399  Biso   1.000  C
  N27      1.0000 0.88410  0.13698  0.55405  Biso   1.000  N
  H38      1.0000 0.84692  0.18668  0.42331  Biso   1.000  H
  N28      1.0000 0.92888  0.14062  0.33811  Biso   1.000  N
  C41      1.0000 0.69962  0.07985  0.17406  Biso   1.000  C
  C42      1.0000 0.88073  0.11443  0.24039  Biso   1.000  C
  H39      1.0000 0.62108  0.08061  0.57109  Biso   1.000  H
  H40      1.0000 0.57381  0.09980  0.43159  Biso   1.000  H
  N29      1.0000 0.61727  0.03643  0.42986  Biso   1.000  N
  O13      1.0000 0.80307  0.09418  0.69018  Biso   1.000  O
  C43      1.0000 0.96259  0.15776  0.65369  Biso   1.000  C
  C44      1.0000 0.03740  0.15776  0.34629  Biso   1.000  C
  N30      1.0000 0.68576  0.03652  0.22797  Biso   1.000  N
  H41      1.0000 0.72417  0.07599  0.09069  Biso   1.000  H
  H42      1.0000 0.62883  0.09491  0.15702  Biso   1.000  H
  O14      1.0000 0.92108  0.10023  0.15163  Biso   1.000  O
  C45      1.0000 0.62970  0.00000  0.50630  Biso   1.000  C
  C46      1.0000 0.59797  0.02576  0.29498  Biso   1.000  C
  H43      1.0000 0.93943  0.15359  0.73793  Biso   1.000  H
  H44      1.0000 0.96335  0.18989  0.63665  Biso   1.000  H
  N31      1.0000 0.07111  0.14062  0.66188  Biso   1.000  N
  H45      1.0000 0.06056  0.15359  0.26205  Biso   1.000  H
  H46      1.0000 0.03664  0.18989  0.36333  Biso   1.000  H
  N32      1.0000 0.11589  0.13698  0.44594  Biso   1.000  N
  C47      1.0000 0.73377  0.00000  0.18792  Biso   1.000  C
  O15      1.0000 0.64400  0.00000  0.62481  Biso   1.000  O
  N33      1.0000 0.61727  0.96357  0.42986  Biso   1.000  N
  H47      1.0000 0.52784  0.03801  0.24983  Biso   1.000  H
  C48      1.0000 0.59797  0.97424  0.29498  Biso   1.000  C
  C49      1.0000 0.11925  0.11443  0.75959  Biso   1.000  C
  C50      1.0000 0.14266  0.15396  0.57600  Biso   1.000  C
  C51      1.0000 0.19243  0.10908  0.41600  Biso   1.000  C
  N34      1.0000 0.68576  0.96348  0.22797  Biso   1.000  N
  O16      1.0000 0.80742  0.00000  0.12621  Biso   1.000  O
  C52      1.0000 0.63086  0.91912  0.48002  Biso   1.000  C
  H48      1.0000 0.52784  0.96199  0.24983  Biso   1.000  H
  N35      1.0000 0.22440  0.10789  0.74409  Biso   1.000  N
  O17      1.0000 0.07891  0.10023  0.84836  Biso   1.000  O
  C53      1.0000 0.24907  0.12945  0.63107  Biso   1.000  C
  H49      1.0000 0.15307  0.18668  0.57667  Biso   1.000  H
  N36      1.0000 0.26520  0.10039  0.52700  Biso   1.000  N
  O18      1.0000 0.19692  0.09418  0.30981  Biso   1.000  O
  C54      1.0000 0.69962  0.92015  0.17406  Biso   1.000  C
  H50      1.0000 0.62108  0.91939  0.57109  Biso   1.000  H
  H51      1.0000 0.57381  0.90020  0.43159  Biso   1.000  H
  N37      1.0000 0.73479  0.89961  0.47299  Biso   1.000  N
  C55      1.0000 0.30037  0.07985  0.82593  Biso   1.000  C
  H52      1.0000 0.31049  0.15059  0.65350  Biso   1.000  H
  C56      1.0000 0.36913  0.08088  0.51997  Biso   1.000  C
  H53      1.0000 0.72417  0.92401  0.09069  Biso   1.000  H
  H54      1.0000 0.62883  0.90509  0.15702  Biso   1.000  H
  N38      1.0000 0.77559  0.89211  0.25589  Biso   1.000  N
  C57      1.0000 0.80756  0.89092  0.58399  Biso   1.000  C
  C58      1.0000 0.75092  0.87055  0.36892  Biso   1.000  C
  H55      1.0000 0.27581  0.07599  0.90930  Biso   1.000  H
  H56      1.0000 0.37116  0.09491  0.84297  Biso   1.000  H
  N39      1.0000 0.31423  0.03652  0.77201  Biso   1.000  N
  H57      1.0000 0.37891  0.08061  0.42890  Biso   1.000  H
  H58      1.0000 0.42617  0.09980  0.56840  Biso   1.000  H
  N40      1.0000 0.38272  0.03643  0.57013  Biso   1.000  N
  C59      1.0000 0.88073  0.88557  0.24039  Biso   1.000  C
  N41      1.0000 0.88410  0.86302  0.55405  Biso   1.000  N
  O19      1.0000 0.80307  0.90582  0.69018  Biso   1.000  O
  H59      1.0000 0.68950  0.84941  0.34649  Biso   1.000  H
  C60      1.0000 0.85733  0.84604  0.42399  Biso   1.000  C
  C61      1.0000 0.26622  0.00000  0.81206  Biso   1.000  C
  C62      1.0000 0.40202  0.02576  0.70501  Biso   1.000  C
  C63      1.0000 0.37029  0.00000  0.49369  Biso   1.000  C
  N42      1.0000 0.92888  0.85938  0.33811  Biso   1.000  N
  O20      1.0000 0.92108  0.89977  0.15163  Biso   1.000  O
  C64      1.0000 0.96259  0.84224  0.65369  Biso   1.000  C
  H60      1.0000 0.84692  0.81332  0.42331  Biso   1.000  H
  N43      1.0000 0.31423  0.96348  0.77201  Biso   1.000  N
  O21      1.0000 0.19257  0.00000  0.87377  Biso   1.000  O
  C65      1.0000 0.40202  0.97424  0.70501  Biso   1.000  C
  H61      1.0000 0.47215  0.03801  0.75016  Biso   1.000  H
  N44      1.0000 0.38272  0.96357  0.57013  Biso   1.000  N
  O22      1.0000 0.35599  0.00000  0.37518  Biso   1.000  O
  C66      1.0000 0.03740  0.84224  0.34629  Biso   1.000  C
  H62      1.0000 0.93943  0.84641  0.73793  Biso   1.000  H
  H63      1.0000 0.96335  0.81011  0.63665  Biso   1.000  H
  N45      1.0000 0.07111  0.85938  0.66188  Biso   1.000  N
  C67      1.0000 0.30037  0.92015  0.82593  Biso   1.000  C
  H64      1.0000 0.47215  0.96199  0.75016  Biso   1.000  H
  C68      1.0000 0.36913  0.91912  0.51997  Biso   1.000  C
  H65      1.0000 0.06056  0.84641  0.26205  Biso   1.000  H
  H66      1.0000 0.03664  0.81011  0.36333  Biso   1.000  H
  N46      1.0000 0.11589  0.86302  0.44594  Biso   1.000  N
  C69      1.0000 0.11925  0.88557  0.75959  Biso   1.000  C
  C70      1.0000 0.14266  0.84604  0.57600  Biso   1.000  C
  N47      1.0000 0.22440  0.89211  0.74409  Biso   1.000  N
  H67      1.0000 0.27581  0.92401  0.90930  Biso   1.000  H
  H68      1.0000 0.37116  0.90509  0.84297  Biso   1.000  H
  N48      1.0000 0.26520  0.89961  0.52700  Biso   1.000  N
  H69      1.0000 0.37891  0.91939  0.42890  Biso   1.000  H
  H70      1.0000 0.42617  0.90020  0.56840  Biso   1.000  H
  C71      1.0000 0.19243  0.89092  0.41600  Biso   1.000  C
  O23      1.0000 0.07891  0.89977  0.84836  Biso   1.000  O
  C72      1.0000 0.24907  0.87055  0.63107  Biso   1.000  C
  H71      1.0000 0.15307  0.81332  0.57667  Biso   1.000  H
  O24      1.0000 0.19692  0.90582  0.30981  Biso   1.000  O
  H72      1.0000 0.31049  0.84941  0.65350  Biso   1.000  H
  C73      1.0000 0.75092  0.12945  0.36892  Biso   1.000  C
  N49      1.0000 0.73479  0.10039  0.47299  Biso   1.000  N
  H73      1.0000 0.68950  0.15059  0.34649  Biso   1.000  H
  C74      1.0000 0.85733  0.15396  0.42399  Biso   1.000  C
  N50      1.0000 0.77559  0.10789  0.25589  Biso   1.000  N
  C75      1.0000 0.63086  0.08088  0.48002  Biso   1.000  C
  C76      1.0000 0.80756  0.10908  0.58399  Biso   1.000  C
  N51      1.0000 0.88410  0.13698  0.55405  Biso   1.000  N
  H74      1.0000 0.84692  0.18668  0.42331  Biso   1.000  H
  N52      1.0000 0.92888  0.14062  0.33811  Biso   1.000  N
  C77      1.0000 0.69962  0.07985  0.17406  Biso   1.000  C
  C78      1.0000 0.88073  0.11443  0.24039  Biso   1.000  C
  H75      1.0000 0.62108  0.08061  0.57109  Biso   1.000  H
  H76      1.0000 0.57381  0.09980  0.43159  Biso   1.000  H
  N53      1.0000 0.61727  0.03643  0.42986  Biso   1.000  N
  O25      1.0000 0.80307  0.09418  0.69018  Biso   1.000  O
  C79      1.0000 0.96259  0.15776  0.65369  Biso   1.000  C
  C80      1.0000 0.03740  0.15776  0.34629  Biso   1.000  C
  N54      1.0000 0.68576  0.03652  0.22797  Biso   1.000  N
  H77      1.0000 0.72417  0.07599  0.09069  Biso   1.000  H
  H78      1.0000 0.62883  0.09491  0.15702  Biso   1.000  H
  O26      1.0000 0.92108  0.10023  0.15163  Biso   1.000  O
  C81      1.0000 0.62970  0.00000  0.50630  Biso   1.000  C
  C82      1.0000 0.59797  0.02576  0.29498  Biso   1.000  C
  H79      1.0000 0.93943  0.15359  0.73793  Biso   1.000  H
  H80      1.0000 0.96335  0.18989  0.63665  Biso   1.000  H
  N55      1.0000 0.07111  0.14062  0.66188  Biso   1.000  N
  H81      1.0000 0.06056  0.15359  0.26205  Biso   1.000  H
  H82      1.0000 0.03664  0.18989  0.36333  Biso   1.000  H
  N56      1.0000 0.11589  0.13698  0.44594  Biso   1.000  N
  C83      1.0000 0.73377  0.00000  0.18792  Biso   1.000  C
  O27      1.0000 0.64400  0.00000  0.62481  Biso   1.000  O
  N57      1.0000 0.61727  0.96357  0.42986  Biso   1.000  N
  H83      1.0000 0.52784  0.03801  0.24983  Biso   1.000  H
  C84      1.0000 0.59797  0.97424  0.29498  Biso   1.000  C
  C85      1.0000 0.11925  0.11443  0.75959  Biso   1.000  C
  C86      1.0000 0.14266  0.15396  0.57600  Biso   1.000  C
  C87      1.0000 0.19243  0.10908  0.41600  Biso   1.000  C
  N58      1.0000 0.68576  0.96348  0.22797  Biso   1.000  N
  O28      1.0000 0.80742  0.00000  0.12621  Biso   1.000  O
  C88      1.0000 0.63086  0.91912  0.48002  Biso   1.000  C
  H84      1.0000 0.52784  0.96199  0.24983  Biso   1.000  H
  N59      1.0000 0.22440  0.10789  0.74409  Biso   1.000  N
  O29      1.0000 0.07891  0.10023  0.84836  Biso   1.000  O
  C89      1.0000 0.24907  0.12945  0.63107  Biso   1.000  C
  H85      1.0000 0.15307  0.18668  0.57667  Biso   1.000  H
  N60      1.0000 0.26520  0.10039  0.52700  Biso   1.000  N
  O30      1.0000 0.19692  0.09418  0.30981  Biso   1.000  O
  C90      1.0000 0.69962  0.92015  0.17406  Biso   1.000  C
  H86      1.0000 0.62108  0.91939  0.57109  Biso   1.000  H
  H87      1.0000 0.57381  0.90020  0.43159  Biso   1.000  H
  N61      1.0000 0.73479  0.89961  0.47299  Biso   1.000  N
  C91      1.0000 0.30037  0.07985  0.82593  Biso   1.000  C
  H88      1.0000 0.31049  0.15059  0.65350  Biso   1.000  H
  C92      1.0000 0.36913  0.08088  0.51997  Biso   1.000  C
  H89      1.0000 0.72417  0.92401  0.09069  Biso   1.000  H
  H90      1.0000 0.62883  0.90509  0.15702  Biso   1.000  H
  N62      1.0000 0.77559  0.89211  0.25589  Biso   1.000  N
  C93      1.0000 0.80756  0.89092  0.58399  Biso   1.000  C
  C94      1.0000 0.75092  0.87055  0.36892  Biso   1.000  C
  H91      1.0000 0.27581  0.07599  0.90930  Biso   1.000  H
  H92      1.0000 0.37116  0.09491  0.84297  Biso   1.000  H
  N63      1.0000 0.31423  0.03652  0.77201  Biso   1.000  N
  H93      1.0000 0.37891  0.08061  0.42890  Biso   1.000  H
  H94      1.0000 0.42617  0.09980  0.56840  Biso   1.000  H
  N64      1.0000 0.38272  0.03643  0.57013  Biso   1.000  N
  C95      1.0000 0.88073  0.88557  0.24039  Biso   1.000  C
  N65      1.0000 0.88410  0.86302  0.55405  Biso   1.000  N
  O31      1.0000 0.80307  0.90582  0.69018  Biso   1.000  O
  H95      1.0000 0.68950  0.84941  0.34649  Biso   1.000  H
  C96      1.0000 0.85733  0.84604  0.42399  Biso   1.000  C
  C97      1.0000 0.26622  0.00000  0.81206  Biso   1.000  C
  C98      1.0000 0.40202  0.02576  0.70501  Biso   1.000  C
  C99      1.0000 0.37029  0.00000  0.49369  Biso   1.000  C
  N66      1.0000 0.92888  0.85938  0.33811  Biso   1.000  N
  O32      1.0000 0.92108  0.89977  0.15163  Biso   1.000  O
  C100     1.0000 0.96259  0.84224  0.65369  Biso   1.000  C
  H96      1.0000 0.84692  0.81332  0.42331  Biso   1.000  H
  N67      1.0000 0.31423  0.96348  0.77201  Biso   1.000  N
  O33      1.0000 0.19257  0.00000  0.87377  Biso   1.000  O
  C101     1.0000 0.40202  0.97424  0.70501  Biso   1.000  C
  H97      1.0000 0.47215  0.03801  0.75016  Biso   1.000  H
  N68      1.0000 0.38272  0.96357  0.57013  Biso   1.000  N
  O34      1.0000 0.35599  0.00000  0.37518  Biso   1.000  O
  C102     1.0000 0.03740  0.84224  0.34629  Biso   1.000  C
  H98      1.0000 0.93943  0.84641  0.73793  Biso   1.000  H
  H99      1.0000 0.96335  0.81011  0.63665  Biso   1.000  H
  N69      1.0000 0.07111  0.85938  0.66188  Biso   1.000  N
  C103     1.0000 0.30037  0.92015  0.82593  Biso   1.000  C
  H100     1.0000 0.47215  0.96199  0.75016  Biso   1.000  H
  C104     1.0000 0.36913  0.91912  0.51997  Biso   1.000  C
  H101     1.0000 0.06056  0.84641  0.26205  Biso   1.000  H
  H102     1.0000 0.03664  0.81011  0.36333  Biso   1.000  H
  N70      1.0000 0.11589  0.86302  0.44594  Biso   1.000  N
  C105     1.0000 0.11925  0.88557  0.75959  Biso   1.000  C
  C106     1.0000 0.14266  0.84604  0.57600  Biso   1.000  C
  N71      1.0000 0.22440  0.89211  0.74409  Biso   1.000  N
  H103     1.0000 0.27581  0.92401  0.90930  Biso   1.000  H
  H104     1.0000 0.37116  0.90509  0.84297  Biso   1.000  H
  N72      1.0000 0.26520  0.89961  0.52700  Biso   1.000  N
  H105     1.0000 0.37891  0.91939  0.42890  Biso   1.000  H
  H106     1.0000 0.42617  0.90020  0.56840  Biso   1.000  H
  C107     1.0000 0.19243  0.89092  0.41600  Biso   1.000  C
  O35      1.0000 0.07891  0.89977  0.84836  Biso   1.000  O
  C108     1.0000 0.24907  0.87055  0.63107  Biso   1.000  C
  H107     1.0000 0.15307  0.81332  0.57667  Biso   1.000  H
  O36      1.0000 0.19692  0.90582  0.30981  Biso   1.000  O
  H108     1.0000 0.31049  0.84941  0.65350  Biso   1.000  H
  C109     1.0000 0.75092  0.12945  0.36892  Biso   1.000  C
  N73      1.0000 0.73479  0.10039  0.47299  Biso   1.000  N
  H109     1.0000 0.68950  0.15059  0.34649  Biso   1.000  H
  C110     1.0000 0.85733  0.15396  0.42399  Biso   1.000  C
  N74      1.0000 0.77559  0.10789  0.25589  Biso   1.000  N
  C111     1.0000 0.63086  0.08088  0.48002  Biso   1.000  C
  C112     1.0000 0.80756  0.10908  0.58399  Biso   1.000  C
  N75      1.0000 0.88410  0.13698  0.55405  Biso   1.000  N
  H110     1.0000 0.84692  0.18668  0.42331  Biso   1.000  H
  N76      1.0000 0.92888  0.14062  0.33811  Biso   1.000  N
  C113     1.0000 0.69962  0.07985  0.17406  Biso   1.000  C
  C114     1.0000 0.88073  0.11443  0.24039  Biso   1.000  C
  H111     1.0000 0.62108  0.08061  0.57109  Biso   1.000  H
  H112     1.0000 0.57381  0.09980  0.43159  Biso   1.000  H
  N77      1.0000 0.61727  0.03643  0.42986  Biso   1.000  N
  O37      1.0000 0.80307  0.09418  0.69018  Biso   1.000  O
  C115     1.0000 0.96259  0.15776  0.65369  Biso   1.000  C
  C116     1.0000 0.03740  0.15776  0.34629  Biso   1.000  C
  N78      1.0000 0.68576  0.03652  0.22797  Biso   1.000  N
  H113     1.0000 0.72417  0.07599  0.09069  Biso   1.000  H
  H114     1.0000 0.62883  0.09491  0.15702  Biso   1.000  H
  O38      1.0000 0.92108  0.10023  0.15163  Biso   1.000  O
  C117     1.0000 0.62970  0.00000  0.50630  Biso   1.000  C
  C118     1.0000 0.59797  0.02576  0.29498  Biso   1.000  C
  H115     1.0000 0.93943  0.15359  0.73793  Biso   1.000  H
  H116     1.0000 0.96335  0.18989  0.63665  Biso   1.000  H
  N79      1.0000 0.07111  0.14062  0.66188  Biso   1.000  N
  H117     1.0000 0.06056  0.15359  0.26205  Biso   1.000  H
  H118     1.0000 0.03664  0.18989  0.36333  Biso   1.000  H
  N80      1.0000 0.11589  0.13698  0.44594  Biso   1.000  N
  C119     1.0000 0.73377  0.00000  0.18792  Biso   1.000  C
  O39      1.0000 0.64400  0.00000  0.62481  Biso   1.000  O
  N81      1.0000 0.61727  0.96357  0.42986  Biso   1.000  N
  H119     1.0000 0.52784  0.03801  0.24983  Biso   1.000  H
  C120     1.0000 0.59797  0.97424  0.29498  Biso   1.000  C
  C121     1.0000 0.11925  0.11443  0.75959  Biso   1.000  C
  C122     1.0000 0.14266  0.15396  0.57600  Biso   1.000  C
  C123     1.0000 0.19243  0.10908  0.41600  Biso   1.000  C
  N82      1.0000 0.68576  0.96348  0.22797  Biso   1.000  N
  O40      1.0000 0.80742  0.00000  0.12621  Biso   1.000  O
  C124     1.0000 0.63086  0.91912  0.48002  Biso   1.000  C
  H120     1.0000 0.52784  0.96199  0.24983  Biso   1.000  H
  N83      1.0000 0.22440  0.10789  0.74409  Biso   1.000  N
  O41      1.0000 0.07891  0.10023  0.84836  Biso   1.000  O
  C125     1.0000 0.24907  0.12945  0.63107  Biso   1.000  C
  H121     1.0000 0.15307  0.18668  0.57667  Biso   1.000  H
  N84      1.0000 0.26520  0.10039  0.52700  Biso   1.000  N
  O42      1.0000 0.19692  0.09418  0.30981  Biso   1.000  O
  C126     1.0000 0.69962  0.92015  0.17406  Biso   1.000  C
  H122     1.0000 0.62108  0.91939  0.57109  Biso   1.000  H
  H123     1.0000 0.57381  0.90020  0.43159  Biso   1.000  H
  N85      1.0000 0.73479  0.89961  0.47299  Biso   1.000  N
  C127     1.0000 0.30037  0.07985  0.82593  Biso   1.000  C
  H124     1.0000 0.31049  0.15059  0.65350  Biso   1.000  H
  C128     1.0000 0.36913  0.08088  0.51997  Biso   1.000  C
  H125     1.0000 0.72417  0.92401  0.09069  Biso   1.000  H
  H126     1.0000 0.62883  0.90509  0.15702  Biso   1.000  H
  N86      1.0000 0.77559  0.89211  0.25589  Biso   1.000  N
  C129     1.0000 0.80756  0.89092  0.58399  Biso   1.000  C
  C130     1.0000 0.75092  0.87055  0.36892  Biso   1.000  C
  H127     1.0000 0.27581  0.07599  0.90930  Biso   1.000  H
  H128     1.0000 0.37116  0.09491  0.84297  Biso   1.000  H
  N87      1.0000 0.31423  0.03652  0.77201  Biso   1.000  N
  H129     1.0000 0.37891  0.08061  0.42890  Biso   1.000  H
  H130     1.0000 0.42617  0.09980  0.56840  Biso   1.000  H
  N88      1.0000 0.38272  0.03643  0.57013  Biso   1.000  N
  C131     1.0000 0.88073  0.88557  0.24039  Biso   1.000  C
  N89      1.0000 0.88410  0.86302  0.55405  Biso   1.000  N
  O43      1.0000 0.80307  0.90582  0.69018  Biso   1.000  O
  H131     1.0000 0.68950  0.84941  0.34649  Biso   1.000  H
  C132     1.0000 0.85733  0.84604  0.42399  Biso   1.000  C
  C133     1.0000 0.26622  0.00000  0.81206  Biso   1.000  C
  C134     1.0000 0.40202  0.02576  0.70501  Biso   1.000  C
  C135     1.0000 0.37029  0.00000  0.49369  Biso   1.000  C
  N90      1.0000 0.92888  0.85938  0.33811  Biso   1.000  N
  O44      1.0000 0.92108  0.89977  0.15163  Biso   1.000  O
  C136     1.0000 0.96259  0.84224  0.65369  Biso   1.000  C
  H132     1.0000 0.84692  0.81332  0.42331  Biso   1.000  H
  N91      1.0000 0.31423  0.96348  0.77201  Biso   1.000  N
  O45      1.0000 0.19257  0.00000  0.87377  Biso   1.000  O
  C137     1.0000 0.40202  0.97424  0.70501  Biso   1.000  C
  H133     1.0000 0.47215  0.03801  0.75016  Biso   1.000  H
  N92      1.0000 0.38272  0.96357  0.57013  Biso   1.000  N
  O46      1.0000 0.35599  0.00000  0.37518  Biso   1.000  O
  C138     1.0000 0.03740  0.84224  0.34629  Biso   1.000  C
  H134     1.0000 0.93943  0.84641  0.73793  Biso   1.000  H
  H135     1.0000 0.96335  0.81011  0.63665  Biso   1.000  H
  N93      1.0000 0.07111  0.85938  0.66188  Biso   1.000  N
  C139     1.0000 0.30037  0.92015  0.82593  Biso   1.000  C
  H136     1.0000 0.47215  0.96199  0.75016  Biso   1.000  H
  C140     1.0000 0.36913  0.91912  0.51997  Biso   1.000  C
  H137     1.0000 0.06056  0.84641  0.26205  Biso   1.000  H
  H138     1.0000 0.03664  0.81011  0.36333  Biso   1.000  H
  N94      1.0000 0.11589  0.86302  0.44594  Biso   1.000  N
  C141     1.0000 0.11925  0.88557  0.75959  Biso   1.000  C
  C142     1.0000 0.14266  0.84604  0.57600  Biso   1.000  C
  N95      1.0000 0.22440  0.89211  0.74409  Biso   1.000  N
  H139     1.0000 0.27581  0.92401  0.90930  Biso   1.000  H
  H140     1.0000 0.37116  0.90509  0.84297  Biso   1.000  H
  N96      1.0000 0.26520  0.89961  0.52700  Biso   1.000  N
  H141     1.0000 0.37891  0.91939  0.42890  Biso   1.000  H
  H142     1.0000 0.42617  0.90020  0.56840  Biso   1.000  H
  C143     1.0000 0.19243  0.89092  0.41600  Biso   1.000  C
  O47      1.0000 0.07891  0.89977  0.84836  Biso   1.000  O
  C144     1.0000 0.24907  0.87055  0.63107  Biso   1.000  C
  H143     1.0000 0.15307  0.81332  0.57667  Biso   1.000  H
  O48      1.0000 0.19692  0.90582  0.30981  Biso   1.000  O
  H144     1.0000 0.31049  0.84941  0.65350  Biso   1.000  H
  C145     1.0000 0.75092  0.12945  0.36892  Biso   1.000  C
  N97      1.0000 0.73479  0.10039  0.47299  Biso   1.000  N
  H145     1.0000 0.68950  0.15059  0.34649  Biso   1.000  H
  C146     1.0000 0.85733  0.15396  0.42399  Biso   1.000  C
  N98      1.0000 0.77559  0.10789  0.25589  Biso   1.000  N
  C147     1.0000 0.63086  0.08088  0.48002  Biso   1.000  C
  C148     1.0000 0.80756  0.10908  0.58399  Biso   1.000  C
  N99      1.0000 0.88410  0.13698  0.55405  Biso   1.000  N
  H146     1.0000 0.84692  0.18668  0.42331  Biso   1.000  H
  N100     1.0000 0.92888  0.14062  0.33811  Biso   1.000  N
  C149     1.0000 0.69962  0.07985  0.17406  Biso   1.000  C
  C150     1.0000 0.88073  0.11443  0.24039  Biso   1.000  C
  H147     1.0000 0.62108  0.08061  0.57109  Biso   1.000  H
  H148     1.0000 0.57381  0.09980  0.43159  Biso   1.000  H
  N101     1.0000 0.61727  0.03643  0.42986  Biso   1.000  N
  O49      1.0000 0.80307  0.09418  0.69018  Biso   1.000  O
  C151     1.0000 0.96259  0.15776  0.65369  Biso   1.000  C
  C152     1.0000 0.03740  0.15776  0.34629  Biso   1.000  C
  N102     1.0000 0.68576  0.03652  0.22797  Biso   1.000  N
  H149     1.0000 0.72417  0.07599  0.09069  Biso   1.000  H
  H150     1.0000 0.62883  0.09491  0.15702  Biso   1.000  H
  O50      1.0000 0.92108  0.10023  0.15163  Biso   1.000  O
  C153     1.0000 0.62970  0.00000  0.50630  Biso   1.000  C
  C154     1.0000 0.59797  0.02576  0.29498  Biso   1.000  C
  H151     1.0000 0.93943  0.15359  0.73793  Biso   1.000  H
  H152     1.0000 0.96335  0.18989  0.63665  Biso   1.000  H
  N103     1.0000 0.07111  0.14062  0.66188  Biso   1.000  N
  H153     1.0000 0.06056  0.15359  0.26205  Biso   1.000  H
  H154     1.0000 0.03664  0.18989  0.36333  Biso   1.000  H
  N104     1.0000 0.11589  0.13698  0.44594  Biso   1.000  N
  C155     1.0000 0.73377  0.00000  0.18792  Biso   1.000  C
  O51      1.0000 0.64400  0.00000  0.62481  Biso   1.000  O
  N105     1.0000 0.61727  0.96357  0.42986  Biso   1.000  N
  H155     1.0000 0.52784  0.03801  0.24983  Biso   1.000  H
  C156     1.0000 0.59797  0.97424  0.29498  Biso   1.000  C
  C157     1.0000 0.11925  0.11443  0.75959  Biso   1.000  C
  C158     1.0000 0.14266  0.15396  0.57600  Biso   1.000  C
  C159     1.0000 0.19243  0.10908  0.41600  Biso   1.000  C
  N106     1.0000 0.68576  0.96348  0.22797  Biso   1.000  N
  O52      1.0000 0.80742  0.00000  0.12621  Biso   1.000  O
  C160     1.0000 0.63086  0.91912  0.48002  Biso   1.000  C
  H156     1.0000 0.52784  0.96199  0.24983  Biso   1.000  H
  N107     1.0000 0.22440  0.10789  0.74409  Biso   1.000  N
  O53      1.0000 0.07891  0.10023  0.84836  Biso   1.000  O
  C161     1.0000 0.24907  0.12945  0.63107  Biso   1.000  C
  H157     1.0000 0.15307  0.18668  0.57667  Biso   1.000  H
  N108     1.0000 0.26520  0.10039  0.52700  Biso   1.000  N
  O54      1.0000 0.19692  0.09418  0.30981  Biso   1.000  O
  C162     1.0000 0.69962  0.92015  0.17406  Biso   1.000  C
  H158     1.0000 0.62108  0.91939  0.57109  Biso   1.000  H
  H159     1.0000 0.57381  0.90020  0.43159  Biso   1.000  H
  N109     1.0000 0.73479  0.89961  0.47299  Biso   1.000  N
  C163     1.0000 0.30037  0.07985  0.82593  Biso   1.000  C
  H160     1.0000 0.31049  0.15059  0.65350  Biso   1.000  H
  C164     1.0000 0.36913  0.08088  0.51997  Biso   1.000  C
  H161     1.0000 0.72417  0.92401  0.09069  Biso   1.000  H
  H162     1.0000 0.62883  0.90509  0.15702  Biso   1.000  H
  N110     1.0000 0.77559  0.89211  0.25589  Biso   1.000  N
  C165     1.0000 0.80756  0.89092  0.58399  Biso   1.000  C
  C166     1.0000 0.75092  0.87055  0.36892  Biso   1.000  C
  H163     1.0000 0.27581  0.07599  0.90930  Biso   1.000  H
  H164     1.0000 0.37116  0.09491  0.84297  Biso   1.000  H
  N111     1.0000 0.31423  0.03652  0.77201  Biso   1.000  N
  H165     1.0000 0.37891  0.08061  0.42890  Biso   1.000  H
  H166     1.0000 0.42617  0.09980  0.56840  Biso   1.000  H
  N112     1.0000 0.38272  0.03643  0.57013  Biso   1.000  N
  C167     1.0000 0.88073  0.88557  0.24039  Biso   1.000  C
  N113     1.0000 0.88410  0.86302  0.55405  Biso   1.000  N
  O55      1.0000 0.80307  0.90582  0.69018  Biso   1.000  O
  H167     1.0000 0.68950  0.84941  0.34649  Biso   1.000  H
  C168     1.0000 0.85733  0.84604  0.42399  Biso   1.000  C
  C169     1.0000 0.26622  0.00000  0.81206  Biso   1.000  C
  C170     1.0000 0.40202  0.02576  0.70501  Biso   1.000  C
  C171     1.0000 0.37029  0.00000  0.49369  Biso   1.000  C
  N114     1.0000 0.92888  0.85938  0.33811  Biso   1.000  N
  O56      1.0000 0.92108  0.89977  0.15163  Biso   1.000  O
  C172     1.0000 0.96259  0.84224  0.65369  Biso   1.000  C
  H168     1.0000 0.84692  0.81332  0.42331  Biso   1.000  H
  N115     1.0000 0.31423  0.96348  0.77201  Biso   1.000  N
  O57      1.0000 0.19257  0.00000  0.87377  Biso   1.000  O
  C173     1.0000 0.40202  0.97424  0.70501  Biso   1.000  C
  H169     1.0000 0.47215  0.03801  0.75016  Biso   1.000  H
  N116     1.0000 0.38272  0.96357  0.57013  Biso   1.000  N
  O58      1.0000 0.35599  0.00000  0.37518  Biso   1.000  O
  C174     1.0000 0.03740  0.84224  0.34629  Biso   1.000  C
  H170     1.0000 0.93943  0.84641  0.73793  Biso   1.000  H
  H171     1.0000 0.96335  0.81011  0.63665  Biso   1.000  H
  N117     1.0000 0.07111  0.85938  0.66188  Biso   1.000  N
  C175     1.0000 0.30037  0.92015  0.82593  Biso   1.000  C
  H172     1.0000 0.47215  0.96199  0.75016  Biso   1.000  H
  C176     1.0000 0.36913  0.91912  0.51997  Biso   1.000  C
  H173     1.0000 0.06056  0.84641  0.26205  Biso   1.000  H
  H174     1.0000 0.03664  0.81011  0.36333  Biso   1.000  H
  N118     1.0000 0.11589  0.86302  0.44594  Biso   1.000  N
  C177     1.0000 0.11925  0.88557  0.75959  Biso   1.000  C
  C178     1.0000 0.14266  0.84604  0.57600  Biso   1.000  C
  N119     1.0000 0.22440  0.89211  0.74409  Biso   1.000  N
  H175     1.0000 0.27581  0.92401  0.90930  Biso   1.000  H
  H176     1.0000 0.37116  0.90509  0.84297  Biso   1.000  H
  N120     1.0000 0.26520  0.89961  0.52700  Biso   1.000  N
  H177     1.0000 0.37891  0.91939  0.42890  Biso   1.000  H
  H178     1.0000 0.42617  0.90020  0.56840  Biso   1.000  H
  C179     1.0000 0.19243  0.89092  0.41600  Biso   1.000  C
  O59      1.0000 0.07891  0.89977  0.84836  Biso   1.000  O
  C180     1.0000 0.24907  0.87055  0.63107  Biso   1.000  C
  H179     1.0000 0.15307  0.81332  0.57667  Biso   1.000  H
  O60      1.0000 0.19692  0.90582  0.30981  Biso   1.000  O
  H180     1.0000 0.31049  0.84941  0.65350  Biso   1.000  H
