data_image0
_cell_length_a       11.958
_cell_length_b       12.928
_cell_length_c       24.221
_cell_angle_alpha    103.17
_cell_angle_beta     92.93
_cell_angle_gamma    93.68

_symmetry_space_group_name_H-M    "P 1"
_symmetry_int_tables_number       1

loop_
  _symmetry_equiv_pos_as_xyz
  'x, y, z'

loop_
  _atom_site_label
  _atom_site_occupancy
  _atom_site_fract_x
  _atom_site_fract_y
  _atom_site_fract_z
  _atom_site_thermal_displace_type
  _atom_site_B_iso_or_equiv
  _atom_site_type_symbol
  C1       1.0000 0.63031  0.47024  0.42975  Biso   1.000  C
  N1       1.0000 0.55658  0.47673  0.38122  Biso   1.000  N
  H1       1.0000 0.66224  0.54135  0.44820  Biso   1.000  H
  H2       1.0000 0.58612  0.44372  0.45682  Biso   1.000  H
  N2       1.0000 0.72071  0.40205  0.41483  Biso   1.000  N
  C2       1.0000 0.45361  0.42217  0.36910  Biso   1.000  C
  C3       1.0000 0.57599  0.55034  0.34497  Biso   1.000  C
  C4       1.0000 0.71803  0.29944  0.42057  Biso   1.000  C
  C5       1.0000 0.82861  0.43927  0.39987  Biso   1.000  C
  N3       1.0000 0.40700  0.44155  0.32027  Biso   1.000  N
  O1       1.0000 0.41120  0.36490  0.39766  Biso   1.000  O
  C6       1.0000 0.46902  0.52521  0.30268  Biso   1.000  C
  H3       1.0000 0.58231  0.62452  0.36672  Biso   1.000  H
  N4       1.0000 0.66701  0.52830  0.30837  Biso   1.000  N
  N5       1.0000 0.81843  0.25917  0.40442  Biso   1.000  N
  O2       1.0000 0.64032  0.25111  0.43740  Biso   1.000  O
  N6       1.0000 0.83106  0.45806  0.34310  Biso   1.000  N
  C7       1.0000 0.89945  0.34228  0.39626  Biso   1.000  C
  H4       1.0000 0.86174  0.50125  0.42869  Biso   1.000  H
  C8       1.0000 0.29379  0.39902  0.29805  Biso   1.000  C
  H5       1.0000 0.42568  0.58795  0.30561  Biso   1.000  H
  N7       1.0000 0.51540  0.49650  0.24807  Biso   1.000  N
  C9       1.0000 0.63042  0.50103  0.25189  Biso   1.000  C
  C10      1.0000 0.78341  0.54733  0.32699  Biso   1.000  C
  C11      1.0000 0.85299  0.16434  0.42057  Biso   1.000  C
  C12      1.0000 0.90351  0.39673  0.31097  Biso   1.000  C
  H6       1.0000 0.96145  0.35681  0.42559  Biso   1.000  H
  N8       1.0000 0.93984  0.32496  0.34004  Biso   1.000  N
  N9       1.0000 0.28976  0.31103  0.24951  Biso   1.000  N
  H7       1.0000 0.25482  0.37620  0.32792  Biso   1.000  H
  H8       1.0000 0.25382  0.45553  0.28772  Biso   1.000  H
  C13      1.0000 0.45027  0.47070  0.19443  Biso   1.000  C
  O3       1.0000 0.69076  0.48523  0.21199  Biso   1.000  O
  H9       1.0000 0.79265  0.60819  0.35929  Biso   1.000  H
  H10      1.0000 0.82486  0.56562  0.29669  Biso   1.000  H
  H11      1.0000 0.79297  0.13615  0.43970  Biso   1.000  H
  H12      1.0000 0.91794  0.18396  0.44752  Biso   1.000  H
  N10      1.0000 0.88103  0.08101  0.37331  Biso   1.000  N
  O4       1.0000 0.93390  0.40679  0.26494  Biso   1.000  O
  C14      1.0000 0.03058  0.25826  0.32176  Biso   1.000  C
  C15      1.0000 0.28191  0.20600  0.25291  Biso   1.000  C
  C16      1.0000 0.29652  0.32150  0.19142  Biso   1.000  C
  N11      1.0000 0.40609  0.36029  0.17777  Biso   1.000  N
  H13      1.0000 0.49708  0.48610  0.16532  Biso   1.000  H
  H14      1.0000 0.38826  0.51600  0.19681  Biso   1.000  H
  C17      1.0000 0.98879  0.07874  0.34705  Biso   1.000  C
  C18      1.0000 0.82205  0.98400  0.36056  Biso   1.000  C
  N12      1.0000 0.99672  0.14615  0.30655  Biso   1.000  N
  H15      1.0000 0.06191  0.27864  0.28929  Biso   1.000  H
  H16      1.0000 0.08941  0.27146  0.35211  Biso   1.000  H
  N13      1.0000 0.28730  0.14303  0.19936  Biso   1.000  N
  O5       1.0000 0.26924  0.17465  0.29613  Biso   1.000  O
  C19      1.0000 0.28333  0.20572  0.15618  Biso   1.000  C
  H17      1.0000 0.23700  0.36323  0.18062  Biso   1.000  H
  C20      1.0000 0.44710  0.29032  0.13289  Biso   1.000  C
  C21      1.0000 0.98081  0.96225  0.30680  Biso   1.000  C
  C22      1.0000 0.08904  0.10337  0.39086  Biso   1.000  C
  N14      1.0000 0.87465  0.91521  0.32019  Biso   1.000  N
  O6       1.0000 0.73657  0.96191  0.38249  Biso   1.000  O
  C23      1.0000 0.99493  0.08925  0.25142  Biso   1.000  C
  C24      1.0000 0.25235  0.03078  0.18666  Biso   1.000  C
  H18      1.0000 0.21206  0.19062  0.13302  Biso   1.000  H
  N15      1.0000 0.37790  0.19850  0.12138  Biso   1.000  N
  O7       1.0000 0.52826  0.30729  0.10740  Biso   1.000  O
  N16      1.0000 0.97827  0.98392  0.25002  Biso   1.000  N
  C25      1.0000 0.07953  0.89566  0.31551  Biso   1.000  C
  H19      1.0000 0.08201  0.05744  0.41679  Biso   1.000  H
  H20      1.0000 0.09089  0.17637  0.41152  Biso   1.000  H
  H21      1.0000 0.15726  0.09164  0.37191  Biso   1.000  H
  C26      1.0000 0.83279  0.80495  0.29996  Biso   1.000  C
  O8       1.0000 0.00991  0.12794  0.21029  Biso   1.000  O
  H22      1.0000 0.18870  0.01666  0.15882  Biso   1.000  H
  H23      1.0000 0.22744  0.01234  0.22091  Biso   1.000  H
  N17      1.0000 0.34041  0.96320  0.16494  Biso   1.000  N
  C27      1.0000 0.39109  0.11059  0.07340  Biso   1.000  C
  C28      1.0000 0.97622  0.90362  0.19762  Biso   1.000  C
  H24      1.0000 0.14771  0.92921  0.30621  Biso   1.000  H
  H25      1.0000 0.06613  0.82544  0.29129  Biso   1.000  H
  H26      1.0000 0.08648  0.89059  0.35448  Biso   1.000  H
  N18      1.0000 0.76716  0.78051  0.24624  Biso   1.000  N
  H27      1.0000 0.89612  0.76124  0.29639  Biso   1.000  H
  H28      1.0000 0.78685  0.78503  0.32831  Biso   1.000  H
  C29      1.0000 0.37944  0.89121  0.19350  Biso   1.000  C
  C30      1.0000 0.36483  0.93902  0.10595  Biso   1.000  C
  H29      1.0000 0.31860  0.08872  0.05270  Biso   1.000  H
  H30      1.0000 0.44109  0.13523  0.04790  Biso   1.000  H
  N19      1.0000 0.43505  0.02003  0.08938  Biso   1.000  N
  N20      1.0000 0.86527  0.85355  0.17641  Biso   1.000  N
  H31      1.0000 0.02429  0.84885  0.20340  Biso   1.000  H
  H32      1.0000 0.00759  0.93589  0.16881  Biso   1.000  H
  C31      1.0000 0.65249  0.76915  0.24399  Biso   1.000  C
  C32      1.0000 0.81275  0.75955  0.19091  Biso   1.000  C
  N21      1.0000 0.44828  0.82790  0.15861  Biso   1.000  N
  O9       1.0000 0.35705  0.88470  0.24093  Biso   1.000  O
  H33      1.0000 0.29631  0.91832  0.08079  Biso   1.000  H
  C33      1.0000 0.44217  0.84535  0.10157  Biso   1.000  C
  C34      1.0000 0.53776  0.98590  0.07365  Biso   1.000  C
  C35      1.0000 0.81042  0.88068  0.13166  Biso   1.000  C
  N22      1.0000 0.61253  0.74785  0.18806  Biso   1.000  N
  O10      1.0000 0.59501  0.77087  0.28449  Biso   1.000  O
  C36      1.0000 0.70125  0.73429  0.14866  Biso   1.000  C
  C37      1.0000 0.89196  0.66934  0.18292  Biso   1.000  C
  C38      1.0000 0.49352  0.73499  0.17238  Biso   1.000  C
  H34      1.0000 0.41010  0.78153  0.07369  Biso   1.000  H
  N23      1.0000 0.54511  0.88730  0.08398  Biso   1.000  N
  O11      1.0000 0.60823  0.03542  0.05240  Biso   1.000  O
  N24      1.0000 0.71321  0.81679  0.11683  Biso   1.000  N
  O12      1.0000 0.84281  0.95072  0.10842  Biso   1.000  O
  C39      1.0000 0.68977  0.62365  0.10867  Biso   1.000  C
  H35      1.0000 0.91942  0.65792  0.14560  Biso   1.000  H
  H36      1.0000 0.85207  0.60509  0.18721  Biso   1.000  H
  H37      1.0000 0.95407  0.68846  0.21101  Biso   1.000  H
  H38      1.0000 0.45422  0.71759  0.20349  Biso   1.000  H
  H39      1.0000 0.47882  0.67533  0.13982  Biso   1.000  H
  C40      1.0000 0.64084  0.82499  0.06813  Biso   1.000  C
  H40      1.0000 0.68173  0.57044  0.13051  Biso   1.000  H
  H41      1.0000 0.75543  0.61321  0.08751  Biso   1.000  H
  H42      1.0000 0.62462  0.61749  0.08292  Biso   1.000  H
  H43      1.0000 0.61343  0.75405  0.04722  Biso   1.000  H
  H44      1.0000 0.68458  0.85767  0.04309  Biso   1.000  H
  C41      1.0000 0.36969  0.52988  0.57030  Biso   1.000  C
  H45      1.0000 0.33784  0.45874  0.55181  Biso   1.000  H
  H46      1.0000 0.41388  0.55632  0.54322  Biso   1.000  H
  N25      1.0000 0.27929  0.59806  0.58521  Biso   1.000  N
  N26      1.0000 0.44342  0.52337  0.61879  Biso   1.000  N
  C42      1.0000 0.28205  0.70065  0.57943  Biso   1.000  C
  C43      1.0000 0.17146  0.56083  0.60013  Biso   1.000  C
  C44      1.0000 0.54638  0.57793  0.63090  Biso   1.000  C
  C45      1.0000 0.42400  0.44976  0.65504  Biso   1.000  C
  N27      1.0000 0.18157  0.74093  0.59558  Biso   1.000  N
  O13      1.0000 0.35967  0.74891  0.56260  Biso   1.000  O
  C46      1.0000 0.10063  0.65784  0.60378  Biso   1.000  C
  H47      1.0000 0.13834  0.49885  0.57132  Biso   1.000  H
  N28      1.0000 0.16894  0.54205  0.65695  Biso   1.000  N
  N29      1.0000 0.59300  0.55856  0.67977  Biso   1.000  N
  O14      1.0000 0.58879  0.63512  0.60234  Biso   1.000  O
  H48      1.0000 0.41778  0.37559  0.63332  Biso   1.000  H
  C47      1.0000 0.53106  0.47491  0.69737  Biso   1.000  C
  N30      1.0000 0.33306  0.47179  0.69163  Biso   1.000  N
  C48      1.0000 0.14700  0.83576  0.57943  Biso   1.000  C
  H49      1.0000 0.03863  0.64328  0.57442  Biso   1.000  H
  N31      1.0000 0.06024  0.67515  0.66001  Biso   1.000  N
  C49      1.0000 0.09657  0.60336  0.68904  Biso   1.000  C
  C50      1.0000 0.21667  0.45277  0.67302  Biso   1.000  C
  C51      1.0000 0.70621  0.60109  0.70200  Biso   1.000  C
  H50      1.0000 0.57432  0.41215  0.69439  Biso   1.000  H
  N32      1.0000 0.48469  0.50361  0.75198  Biso   1.000  N
  C52      1.0000 0.36966  0.49908  0.74815  Biso   1.000  C
  H51      1.0000 0.20711  0.86395  0.56031  Biso   1.000  H
  H52      1.0000 0.08214  0.81613  0.55249  Biso   1.000  H
  N33      1.0000 0.11896  0.91903  0.62673  Biso   1.000  N
  C53      1.0000 0.96942  0.74185  0.67829  Biso   1.000  C
  O15      1.0000 0.06617  0.59322  0.73506  Biso   1.000  O
  H53      1.0000 0.20734  0.39183  0.64072  Biso   1.000  H
  H54      1.0000 0.17514  0.43447  0.70332  Biso   1.000  H
  H55      1.0000 0.74526  0.62384  0.67212  Biso   1.000  H
  H56      1.0000 0.74626  0.54458  0.71233  Biso   1.000  H
  N34      1.0000 0.71023  0.68907  0.75049  Biso   1.000  N
  C54      1.0000 0.54973  0.52939  0.80557  Biso   1.000  C
  O16      1.0000 0.30924  0.51486  0.78802  Biso   1.000  O
  C55      1.0000 0.01120  0.92136  0.65296  Biso   1.000  C
  C56      1.0000 0.17793  0.01602  0.63944  Biso   1.000  C
  N35      1.0000 0.00328  0.85396  0.69350  Biso   1.000  N
  H57      1.0000 0.93816  0.72146  0.71071  Biso   1.000  H
  H58      1.0000 0.91058  0.72864  0.64790  Biso   1.000  H
  C57      1.0000 0.71809  0.79409  0.74709  Biso   1.000  C
  C58      1.0000 0.70356  0.67860  0.80859  Biso   1.000  C
  H59      1.0000 0.50292  0.51401  0.83472  Biso   1.000  H
  H60      1.0000 0.61174  0.48412  0.80323  Biso   1.000  H
  N36      1.0000 0.59390  0.63975  0.82227  Biso   1.000  N
  C59      1.0000 0.91104  0.89673  0.60914  Biso   1.000  C
  C60      1.0000 0.01919  0.03786  0.69325  Biso   1.000  C
  N37      1.0000 0.12534  0.08488  0.67982  Biso   1.000  N
  O17      1.0000 0.26350  0.03811  0.61751  Biso   1.000  O
  C61      1.0000 0.00516  0.91087  0.74862  Biso   1.000  C
  N38      1.0000 0.71270  0.85708  0.80068  Biso   1.000  N
  O18      1.0000 0.73084  0.82545  0.70387  Biso   1.000  O
  H61      1.0000 0.76300  0.63688  0.81943  Biso   1.000  H
  C62      1.0000 0.71675  0.79437  0.84382  Biso   1.000  C
  C63      1.0000 0.55298  0.70978  0.86711  Biso   1.000  C
  H62      1.0000 0.91798  0.94266  0.58322  Biso   1.000  H
  H63      1.0000 0.90911  0.82374  0.58853  Biso   1.000  H
  H64      1.0000 0.84282  0.90846  0.62809  Biso   1.000  H
  C64      1.0000 0.92046  0.10444  0.68449  Biso   1.000  C
  N39      1.0000 0.02181  0.01620  0.75002  Biso   1.000  N
  C65      1.0000 0.16729  0.19516  0.70009  Biso   1.000  C
  O19      1.0000 0.99009  0.87217  0.78976  Biso   1.000  O
  C66      1.0000 0.74772  0.96924  0.81335  Biso   1.000  C
  H65      1.0000 0.78794  0.80950  0.86702  Biso   1.000  H
  N40      1.0000 0.62218  0.80162  0.87867  Biso   1.000  N
  O20      1.0000 0.47173  0.69281  0.89261  Biso   1.000  O
  H66      1.0000 0.85228  0.07089  0.69380  Biso   1.000  H
  H67      1.0000 0.93386  0.17465  0.70871  Biso   1.000  H
  H68      1.0000 0.91360  0.10943  0.64552  Biso   1.000  H
  C67      1.0000 0.02377  0.09648  0.80238  Biso   1.000  C
  H69      1.0000 0.10387  0.23886  0.70362  Biso   1.000  H
  H70      1.0000 0.21315  0.21506  0.67170  Biso   1.000  H
  N41      1.0000 0.23291  0.21959  0.75376  Biso   1.000  N
  H71      1.0000 0.81130  0.98346  0.84123  Biso   1.000  H
  H72      1.0000 0.77264  0.98776  0.77909  Biso   1.000  H
  N42      1.0000 0.65958  0.03690  0.83506  Biso   1.000  N
  C68      1.0000 0.60891  0.88951  0.92661  Biso   1.000  C
  H73      1.0000 0.97579  0.15124  0.79660  Biso   1.000  H
  H74      1.0000 0.99240  0.06413  0.83120  Biso   1.000  H
  N43      1.0000 0.13481  0.14655  0.82359  Biso   1.000  N
  C69      1.0000 0.34758  0.23095  0.75602  Biso   1.000  C
  C70      1.0000 0.18725  0.24054  0.80910  Biso   1.000  C
  C71      1.0000 0.62056  0.10889  0.80651  Biso   1.000  C
  C72      1.0000 0.63517  0.06107  0.89405  Biso   1.000  C
  H75      1.0000 0.68139  0.91138  0.94730  Biso   1.000  H
  H76      1.0000 0.55891  0.86486  0.95211  Biso   1.000  H
  N44      1.0000 0.56503  0.98007  0.91063  Biso   1.000  N
  C73      1.0000 0.18957  0.11934  0.86834  Biso   1.000  C
  N45      1.0000 0.38747  0.25225  0.81195  Biso   1.000  N
  O21      1.0000 0.40508  0.22925  0.71556  Biso   1.000  O
  C74      1.0000 0.29882  0.26573  0.85134  Biso   1.000  C
  C75      1.0000 0.10804  0.33077  0.81713  Biso   1.000  C
  N46      1.0000 0.55180  0.17221  0.84144  Biso   1.000  N
  O22      1.0000 0.64294  0.11532  0.75908  Biso   1.000  O
  H77      1.0000 0.70369  0.08178  0.91921  Biso   1.000  H
  C76      1.0000 0.55792  0.15477  0.89847  Biso   1.000  C
  C77      1.0000 0.46233  0.01421  0.92640  Biso   1.000  C
  N47      1.0000 0.28678  0.18331  0.88317  Biso   1.000  N
  O23      1.0000 0.15718  0.04938  0.89159  Biso   1.000  O
  C78      1.0000 0.50647  0.26503  0.82763  Biso   1.000  C
  C79      1.0000 0.31031  0.37646  0.89138  Biso   1.000  C
  H78      1.0000 0.08057  0.34217  0.85440  Biso   1.000  H
  H79      1.0000 0.14800  0.39493  0.81280  Biso   1.000  H
  H80      1.0000 0.04601  0.31164  0.78900  Biso   1.000  H
  H81      1.0000 0.58990  0.21857  0.92631  Biso   1.000  H
  N48      1.0000 0.45488  0.11279  0.91603  Biso   1.000  N
  O24      1.0000 0.39184  0.96468  0.94760  Biso   1.000  O
  C80      1.0000 0.35916  0.17510  0.93188  Biso   1.000  C
  H82      1.0000 0.54577  0.28243  0.79652  Biso   1.000  H
  H83      1.0000 0.52118  0.32478  0.86022  Biso   1.000  H
  H84      1.0000 0.31827  0.42967  0.86953  Biso   1.000  H
  H85      1.0000 0.24457  0.38689  0.91250  Biso   1.000  H
  H86      1.0000 0.37537  0.38255  0.91713  Biso   1.000  H
  H87      1.0000 0.38657  0.24607  0.95283  Biso   1.000  H
  H88      1.0000 0.31541  0.14235  0.95691  Biso   1.000  H
