data_image0
_cell_length_a       14.678
_cell_length_b       18.795
_cell_length_c       12.977
_cell_angle_alpha    90
_cell_angle_beta     95.85
_cell_angle_gamma    90

_symmetry_space_group_name_H-M    "P 1"
_symmetry_int_tables_number       1

loop_
  _symmetry_equiv_pos_as_xyz
  'x, y, z'

loop_
  _atom_site_label
  _atom_site_occupancy
  _atom_site_fract_x
  _atom_site_fract_y
  _atom_site_fract_z
  _atom_site_thermal_displace_type
  _atom_site_B_iso_or_equiv
  _atom_site_type_symbol
  C1       1.0000 0.18765  0.16989  0.44781  Biso   1.000  C
  N1       1.0000 0.17990  0.16350  0.34363  Biso   1.000  N
  N2       1.0000 0.11240  0.20638  0.47392  Biso   1.000  N
  O1       1.0000 0.25125  0.14930  0.50792  Biso   1.000  O
  C2       1.0000 0.24891  0.12908  0.28692  Biso   1.000  C
  C3       1.0000 0.10310  0.20181  0.29428  Biso   1.000  C
  C4       1.0000 0.05883  0.23341  0.38592  Biso   1.000  C
  C5       1.0000 0.10814  0.23581  0.57702  Biso   1.000  C
  H1       1.0000 0.26048  0.15893  0.22859  Biso   1.000  H
  H2       1.0000 0.30564  0.12541  0.33201  Biso   1.000  H
  N3       1.0000 0.22254  0.05895  0.24912  Biso   1.000  N
  H3       1.0000 0.12254  0.23911  0.24842  Biso   1.000  H
  N4       1.0000 0.03221  0.15791  0.24254  Biso   1.000  N
  H4       1.0000 0.06013  0.28561  0.38453  Biso   1.000  H
  N5       1.0000 0.96621  0.20670  0.36973  Biso   1.000  N
  H5       1.0000 0.10061  0.28688  0.57137  Biso   1.000  H
  H6       1.0000 0.16575  0.22650  0.61831  Biso   1.000  H
  N6       1.0000 0.03384  0.20670  0.63032  Biso   1.000  N
  C6       1.0000 0.25362  0.00000  0.30141  Biso   1.000  C
  C7       1.0000 0.17493  0.04209  0.14718  Biso   1.000  C
  C8       1.0000 0.03792  0.12982  0.13881  Biso   1.000  C
  C9       1.0000 0.95103  0.16659  0.28212  Biso   1.000  C
  C10      1.0000 0.89191  0.23581  0.42302  Biso   1.000  C
  C11      1.0000 0.04902  0.16659  0.71793  Biso   1.000  C
  C12      1.0000 0.94122  0.23341  0.61413  Biso   1.000  C
  O2       1.0000 0.30283  0.00000  0.38251  Biso   1.000  O
  N7       1.0000 0.22254  0.94105  0.24912  Biso   1.000  N
  C13      1.0000 0.22049  0.07662  0.06073  Biso   1.000  C
  N8       1.0000 0.07769  0.05879  0.14013  Biso   1.000  N
  C14      1.0000 0.17493  0.95791  0.14718  Biso   1.000  C
  H7       1.0000 0.07481  0.16159  0.10132  Biso   1.000  H
  H8       1.0000 0.97698  0.12828  0.10210  Biso   1.000  H
  O3       1.0000 0.87731  0.14328  0.24579  Biso   1.000  O
  H9       1.0000 0.89943  0.28688  0.42860  Biso   1.000  H
  H10      1.0000 0.83430  0.22650  0.38174  Biso   1.000  H
  N9       1.0000 0.88765  0.20638  0.52613  Biso   1.000  N
  O4       1.0000 0.12274  0.14328  0.75418  Biso   1.000  O
  N10      1.0000 0.96784  0.15791  0.75751  Biso   1.000  N
  H11      1.0000 0.93992  0.28561  0.61552  Biso   1.000  H
  C15      1.0000 0.89695  0.20181  0.70569  Biso   1.000  C
  C16      1.0000 0.24891  0.87092  0.28692  Biso   1.000  C
  H12      1.0000 0.28440  0.06459  0.06763  Biso   1.000  H
  H13      1.0000 0.21380  0.12732  0.06437  Biso   1.000  H
  H14      1.0000 0.19245  0.05980  0.99527  Biso   1.000  H
  C17      1.0000 0.02264  0.00000  0.13176  Biso   1.000  C
  C18      1.0000 0.22049  0.92338  0.06073  Biso   1.000  C
  N11      1.0000 0.07769  0.94121  0.14013  Biso   1.000  N
  C19      1.0000 0.81247  0.16989  0.55223  Biso   1.000  C
  C20      1.0000 0.96213  0.12982  0.86123  Biso   1.000  C
  N12      1.0000 0.82015  0.16350  0.65642  Biso   1.000  N
  H15      1.0000 0.87758  0.23911  0.75162  Biso   1.000  H
  H16      1.0000 0.26048  0.84107  0.22859  Biso   1.000  H
  H17      1.0000 0.30564  0.87459  0.33201  Biso   1.000  H
  N13      1.0000 0.17990  0.83650  0.34363  Biso   1.000  N
  O5       1.0000 0.94012  0.00000  0.11953  Biso   1.000  O
  H18      1.0000 0.19245  0.94020  0.99527  Biso   1.000  H
  H19      1.0000 0.28440  0.93541  0.06763  Biso   1.000  H
  H20      1.0000 0.21380  0.87268  0.06437  Biso   1.000  H
  C21      1.0000 0.03792  0.87018  0.13881  Biso   1.000  C
  O6       1.0000 0.74880  0.14930  0.49212  Biso   1.000  O
  H21      1.0000 0.02307  0.12828  0.89787  Biso   1.000  H
  H22      1.0000 0.92524  0.16159  0.89872  Biso   1.000  H
  N14      1.0000 0.92236  0.05879  0.85991  Biso   1.000  N
  C22      1.0000 0.75114  0.12908  0.71312  Biso   1.000  C
  C23      1.0000 0.10310  0.79819  0.29428  Biso   1.000  C
  C24      1.0000 0.18765  0.83011  0.44781  Biso   1.000  C
  H23      1.0000 0.97698  0.87172  0.10210  Biso   1.000  H
  H24      1.0000 0.07481  0.83841  0.10132  Biso   1.000  H
  N15      1.0000 0.03221  0.84209  0.24254  Biso   1.000  N
  C25      1.0000 0.82518  0.04209  0.85279  Biso   1.000  C
  C26      1.0000 0.97747  0.00000  0.86820  Biso   1.000  C
  H25      1.0000 0.73956  0.15893  0.77137  Biso   1.000  H
  H26      1.0000 0.69441  0.12541  0.66804  Biso   1.000  H
  N16      1.0000 0.77757  0.05895  0.75092  Biso   1.000  N
  C27      1.0000 0.05883  0.76659  0.38592  Biso   1.000  C
  H27      1.0000 0.12254  0.76089  0.24842  Biso   1.000  H
  N17      1.0000 0.11240  0.79362  0.47392  Biso   1.000  N
  O7       1.0000 0.25125  0.85070  0.50792  Biso   1.000  O
  C28      1.0000 0.95103  0.83341  0.28212  Biso   1.000  C
  C29      1.0000 0.82518  0.95791  0.85279  Biso   1.000  C
  C30      1.0000 0.77956  0.07662  0.93931  Biso   1.000  C
  O8       1.0000 0.05993  0.00000  0.88052  Biso   1.000  O
  N18      1.0000 0.92236  0.94121  0.85991  Biso   1.000  N
  C31      1.0000 0.74643  0.00000  0.69864  Biso   1.000  C
  N19      1.0000 0.96621  0.79330  0.36973  Biso   1.000  N
  H28      1.0000 0.06013  0.71439  0.38453  Biso   1.000  H
  C32      1.0000 0.10814  0.76419  0.57702  Biso   1.000  C
  O9       1.0000 0.87731  0.85672  0.24579  Biso   1.000  O
  N20      1.0000 0.77757  0.94105  0.75092  Biso   1.000  N
  C33      1.0000 0.77956  0.92338  0.93931  Biso   1.000  C
  H29      1.0000 0.71565  0.06459  0.93242  Biso   1.000  H
  H30      1.0000 0.78624  0.12732  0.93560  Biso   1.000  H
  H31      1.0000 0.80760  0.05980  0.00469  Biso   1.000  H
  C34      1.0000 0.96213  0.87018  0.86123  Biso   1.000  C
  O10      1.0000 0.69722  0.00000  0.61753  Biso   1.000  O
  C35      1.0000 0.89191  0.76419  0.42302  Biso   1.000  C
  H32      1.0000 0.10061  0.71312  0.57137  Biso   1.000  H
  H33      1.0000 0.16575  0.77350  0.61831  Biso   1.000  H
  N21      1.0000 0.03384  0.79330  0.63032  Biso   1.000  N
  C36      1.0000 0.75114  0.87092  0.71312  Biso   1.000  C
  H34      1.0000 0.71565  0.93541  0.93242  Biso   1.000  H
  H35      1.0000 0.78624  0.87268  0.93560  Biso   1.000  H
  H36      1.0000 0.80760  0.94020  0.00469  Biso   1.000  H
  N22      1.0000 0.96784  0.84209  0.75751  Biso   1.000  N
  H37      1.0000 0.92524  0.83841  0.89872  Biso   1.000  H
  H38      1.0000 0.02307  0.87172  0.89787  Biso   1.000  H
  H39      1.0000 0.89943  0.71312  0.42860  Biso   1.000  H
  H40      1.0000 0.83430  0.77350  0.38174  Biso   1.000  H
  N23      1.0000 0.88765  0.79362  0.52613  Biso   1.000  N
  C37      1.0000 0.94122  0.76659  0.61413  Biso   1.000  C
  C38      1.0000 0.04902  0.83341  0.71793  Biso   1.000  C
  N24      1.0000 0.82015  0.83650  0.65642  Biso   1.000  N
  H41      1.0000 0.73956  0.84107  0.77137  Biso   1.000  H
  H42      1.0000 0.69441  0.87459  0.66804  Biso   1.000  H
  C39      1.0000 0.89695  0.79819  0.70569  Biso   1.000  C
  C40      1.0000 0.81247  0.83011  0.55223  Biso   1.000  C
  H43      1.0000 0.93992  0.71439  0.61552  Biso   1.000  H
  O11      1.0000 0.12274  0.85672  0.75418  Biso   1.000  O
  H44      1.0000 0.87758  0.76089  0.75162  Biso   1.000  H
  O12      1.0000 0.74880  0.85070  0.49212  Biso   1.000  O
  C41      1.0000 0.18765  0.16989  0.44781  Biso   1.000  C
  N25      1.0000 0.17990  0.16350  0.34363  Biso   1.000  N
  N26      1.0000 0.11240  0.20638  0.47392  Biso   1.000  N
  O13      1.0000 0.25125  0.14930  0.50792  Biso   1.000  O
  C42      1.0000 0.24891  0.12908  0.28692  Biso   1.000  C
  C43      1.0000 0.10310  0.20181  0.29428  Biso   1.000  C
  C44      1.0000 0.05883  0.23341  0.38592  Biso   1.000  C
  C45      1.0000 0.10814  0.23581  0.57702  Biso   1.000  C
  H45      1.0000 0.26048  0.15893  0.22859  Biso   1.000  H
  H46      1.0000 0.30564  0.12541  0.33201  Biso   1.000  H
  N27      1.0000 0.22254  0.05895  0.24912  Biso   1.000  N
  H47      1.0000 0.12254  0.23911  0.24842  Biso   1.000  H
  N28      1.0000 0.03221  0.15791  0.24254  Biso   1.000  N
  H48      1.0000 0.06013  0.28561  0.38453  Biso   1.000  H
  N29      1.0000 0.96621  0.20670  0.36973  Biso   1.000  N
  H49      1.0000 0.10061  0.28688  0.57137  Biso   1.000  H
  H50      1.0000 0.16575  0.22650  0.61831  Biso   1.000  H
  N30      1.0000 0.03384  0.20670  0.63032  Biso   1.000  N
  C46      1.0000 0.25362  0.00000  0.30141  Biso   1.000  C
  C47      1.0000 0.17493  0.04209  0.14718  Biso   1.000  C
  C48      1.0000 0.03792  0.12982  0.13881  Biso   1.000  C
  C49      1.0000 0.95103  0.16659  0.28212  Biso   1.000  C
  C50      1.0000 0.89191  0.23581  0.42302  Biso   1.000  C
  C51      1.0000 0.04902  0.16659  0.71793  Biso   1.000  C
  C52      1.0000 0.94122  0.23341  0.61413  Biso   1.000  C
  O14      1.0000 0.30283  0.00000  0.38251  Biso   1.000  O
  N31      1.0000 0.22254  0.94105  0.24912  Biso   1.000  N
  C53      1.0000 0.22049  0.07662  0.06073  Biso   1.000  C
  N32      1.0000 0.07769  0.05879  0.14013  Biso   1.000  N
  C54      1.0000 0.17493  0.95791  0.14718  Biso   1.000  C
  H51      1.0000 0.07481  0.16159  0.10132  Biso   1.000  H
  H52      1.0000 0.97698  0.12828  0.10210  Biso   1.000  H
  O15      1.0000 0.87731  0.14328  0.24579  Biso   1.000  O
  H53      1.0000 0.89943  0.28688  0.42860  Biso   1.000  H
  H54      1.0000 0.83430  0.22650  0.38174  Biso   1.000  H
  N33      1.0000 0.88765  0.20638  0.52613  Biso   1.000  N
  O16      1.0000 0.12274  0.14328  0.75418  Biso   1.000  O
  N34      1.0000 0.96784  0.15791  0.75751  Biso   1.000  N
  H55      1.0000 0.93992  0.28561  0.61552  Biso   1.000  H
  C55      1.0000 0.89695  0.20181  0.70569  Biso   1.000  C
  C56      1.0000 0.24891  0.87092  0.28692  Biso   1.000  C
  H56      1.0000 0.28440  0.06459  0.06763  Biso   1.000  H
  H57      1.0000 0.21380  0.12732  0.06437  Biso   1.000  H
  H58      1.0000 0.19245  0.05980  0.99527  Biso   1.000  H
  C57      1.0000 0.02264  0.00000  0.13176  Biso   1.000  C
  C58      1.0000 0.22049  0.92338  0.06073  Biso   1.000  C
  N35      1.0000 0.07769  0.94121  0.14013  Biso   1.000  N
  C59      1.0000 0.81247  0.16989  0.55223  Biso   1.000  C
  C60      1.0000 0.96213  0.12982  0.86123  Biso   1.000  C
  N36      1.0000 0.82015  0.16350  0.65642  Biso   1.000  N
  H59      1.0000 0.87758  0.23911  0.75162  Biso   1.000  H
  H60      1.0000 0.26048  0.84107  0.22859  Biso   1.000  H
  H61      1.0000 0.30564  0.87459  0.33201  Biso   1.000  H
  N37      1.0000 0.17990  0.83650  0.34363  Biso   1.000  N
  O17      1.0000 0.94012  0.00000  0.11953  Biso   1.000  O
  H62      1.0000 0.19245  0.94020  0.99527  Biso   1.000  H
  H63      1.0000 0.28440  0.93541  0.06763  Biso   1.000  H
  H64      1.0000 0.21380  0.87268  0.06437  Biso   1.000  H
  C61      1.0000 0.03792  0.87018  0.13881  Biso   1.000  C
  O18      1.0000 0.74880  0.14930  0.49212  Biso   1.000  O
  H65      1.0000 0.02307  0.12828  0.89787  Biso   1.000  H
  H66      1.0000 0.92524  0.16159  0.89872  Biso   1.000  H
  N38      1.0000 0.92236  0.05879  0.85991  Biso   1.000  N
  C62      1.0000 0.75114  0.12908  0.71312  Biso   1.000  C
  C63      1.0000 0.10310  0.79819  0.29428  Biso   1.000  C
  C64      1.0000 0.18765  0.83011  0.44781  Biso   1.000  C
  H67      1.0000 0.97698  0.87172  0.10210  Biso   1.000  H
  H68      1.0000 0.07481  0.83841  0.10132  Biso   1.000  H
  N39      1.0000 0.03221  0.84209  0.24254  Biso   1.000  N
  C65      1.0000 0.82518  0.04209  0.85279  Biso   1.000  C
  C66      1.0000 0.97747  0.00000  0.86820  Biso   1.000  C
  H69      1.0000 0.73956  0.15893  0.77137  Biso   1.000  H
  H70      1.0000 0.69441  0.12541  0.66804  Biso   1.000  H
  N40      1.0000 0.77757  0.05895  0.75092  Biso   1.000  N
  C67      1.0000 0.05883  0.76659  0.38592  Biso   1.000  C
  H71      1.0000 0.12254  0.76089  0.24842  Biso   1.000  H
  N41      1.0000 0.11240  0.79362  0.47392  Biso   1.000  N
  O19      1.0000 0.25125  0.85070  0.50792  Biso   1.000  O
  C68      1.0000 0.95103  0.83341  0.28212  Biso   1.000  C
  C69      1.0000 0.82518  0.95791  0.85279  Biso   1.000  C
  C70      1.0000 0.77956  0.07662  0.93931  Biso   1.000  C
  O20      1.0000 0.05993  0.00000  0.88052  Biso   1.000  O
  N42      1.0000 0.92236  0.94121  0.85991  Biso   1.000  N
  C71      1.0000 0.74643  0.00000  0.69864  Biso   1.000  C
  N43      1.0000 0.96621  0.79330  0.36973  Biso   1.000  N
  H72      1.0000 0.06013  0.71439  0.38453  Biso   1.000  H
  C72      1.0000 0.10814  0.76419  0.57702  Biso   1.000  C
  O21      1.0000 0.87731  0.85672  0.24579  Biso   1.000  O
  N44      1.0000 0.77757  0.94105  0.75092  Biso   1.000  N
  C73      1.0000 0.77956  0.92338  0.93931  Biso   1.000  C
  H73      1.0000 0.71565  0.06459  0.93242  Biso   1.000  H
  H74      1.0000 0.78624  0.12732  0.93560  Biso   1.000  H
  H75      1.0000 0.80760  0.05980  0.00469  Biso   1.000  H
  C74      1.0000 0.96213  0.87018  0.86123  Biso   1.000  C
  O22      1.0000 0.69722  0.00000  0.61753  Biso   1.000  O
  C75      1.0000 0.89191  0.76419  0.42302  Biso   1.000  C
  H76      1.0000 0.10061  0.71312  0.57137  Biso   1.000  H
  H77      1.0000 0.16575  0.77350  0.61831  Biso   1.000  H
  N45      1.0000 0.03384  0.79330  0.63032  Biso   1.000  N
  C76      1.0000 0.75114  0.87092  0.71312  Biso   1.000  C
  H78      1.0000 0.71565  0.93541  0.93242  Biso   1.000  H
  H79      1.0000 0.78624  0.87268  0.93560  Biso   1.000  H
  H80      1.0000 0.80760  0.94020  0.00469  Biso   1.000  H
  N46      1.0000 0.96784  0.84209  0.75751  Biso   1.000  N
  H81      1.0000 0.92524  0.83841  0.89872  Biso   1.000  H
  H82      1.0000 0.02307  0.87172  0.89787  Biso   1.000  H
  H83      1.0000 0.89943  0.71312  0.42860  Biso   1.000  H
  H84      1.0000 0.83430  0.77350  0.38174  Biso   1.000  H
  N47      1.0000 0.88765  0.79362  0.52613  Biso   1.000  N
  C77      1.0000 0.94122  0.76659  0.61413  Biso   1.000  C
  C78      1.0000 0.04902  0.83341  0.71793  Biso   1.000  C
  N48      1.0000 0.82015  0.83650  0.65642  Biso   1.000  N
  H85      1.0000 0.73956  0.84107  0.77137  Biso   1.000  H
  H86      1.0000 0.69441  0.87459  0.66804  Biso   1.000  H
  C79      1.0000 0.89695  0.79819  0.70569  Biso   1.000  C
  C80      1.0000 0.81247  0.83011  0.55223  Biso   1.000  C
  H87      1.0000 0.93992  0.71439  0.61552  Biso   1.000  H
  O23      1.0000 0.12274  0.85672  0.75418  Biso   1.000  O
  H88      1.0000 0.87758  0.76089  0.75162  Biso   1.000  H
  O24      1.0000 0.74880  0.85070  0.49212  Biso   1.000  O
  C81      1.0000 0.18765  0.16989  0.44781  Biso   1.000  C
  N49      1.0000 0.17990  0.16350  0.34363  Biso   1.000  N
  N50      1.0000 0.11240  0.20638  0.47392  Biso   1.000  N
  O25      1.0000 0.25125  0.14930  0.50792  Biso   1.000  O
  C82      1.0000 0.24891  0.12908  0.28692  Biso   1.000  C
  C83      1.0000 0.10310  0.20181  0.29428  Biso   1.000  C
  C84      1.0000 0.05883  0.23341  0.38592  Biso   1.000  C
  C85      1.0000 0.10814  0.23581  0.57702  Biso   1.000  C
  H89      1.0000 0.26048  0.15893  0.22859  Biso   1.000  H
  H90      1.0000 0.30564  0.12541  0.33201  Biso   1.000  H
  N51      1.0000 0.22254  0.05895  0.24912  Biso   1.000  N
  H91      1.0000 0.12254  0.23911  0.24842  Biso   1.000  H
  N52      1.0000 0.03221  0.15791  0.24254  Biso   1.000  N
  H92      1.0000 0.06013  0.28561  0.38453  Biso   1.000  H
  N53      1.0000 0.96621  0.20670  0.36973  Biso   1.000  N
  H93      1.0000 0.10061  0.28688  0.57137  Biso   1.000  H
  H94      1.0000 0.16575  0.22650  0.61831  Biso   1.000  H
  N54      1.0000 0.03384  0.20670  0.63032  Biso   1.000  N
  C86      1.0000 0.25362  0.00000  0.30141  Biso   1.000  C
  C87      1.0000 0.17493  0.04209  0.14718  Biso   1.000  C
  C88      1.0000 0.03792  0.12982  0.13881  Biso   1.000  C
  C89      1.0000 0.95103  0.16659  0.28212  Biso   1.000  C
  C90      1.0000 0.89191  0.23581  0.42302  Biso   1.000  C
  C91      1.0000 0.04902  0.16659  0.71793  Biso   1.000  C
  C92      1.0000 0.94122  0.23341  0.61413  Biso   1.000  C
  O26      1.0000 0.30283  0.00000  0.38251  Biso   1.000  O
  N55      1.0000 0.22254  0.94105  0.24912  Biso   1.000  N
  C93      1.0000 0.22049  0.07662  0.06073  Biso   1.000  C
  N56      1.0000 0.07769  0.05879  0.14013  Biso   1.000  N
  C94      1.0000 0.17493  0.95791  0.14718  Biso   1.000  C
  H95      1.0000 0.07481  0.16159  0.10132  Biso   1.000  H
  H96      1.0000 0.97698  0.12828  0.10210  Biso   1.000  H
  O27      1.0000 0.87731  0.14328  0.24579  Biso   1.000  O
  H97      1.0000 0.89943  0.28688  0.42860  Biso   1.000  H
  H98      1.0000 0.83430  0.22650  0.38174  Biso   1.000  H
  N57      1.0000 0.88765  0.20638  0.52613  Biso   1.000  N
  O28      1.0000 0.12274  0.14328  0.75418  Biso   1.000  O
  N58      1.0000 0.96784  0.15791  0.75751  Biso   1.000  N
  H99      1.0000 0.93992  0.28561  0.61552  Biso   1.000  H
  C95      1.0000 0.89695  0.20181  0.70569  Biso   1.000  C
  C96      1.0000 0.24891  0.87092  0.28692  Biso   1.000  C
  H100     1.0000 0.28440  0.06459  0.06763  Biso   1.000  H
  H101     1.0000 0.21380  0.12732  0.06437  Biso   1.000  H
  H102     1.0000 0.19245  0.05980  0.99527  Biso   1.000  H
  C97      1.0000 0.02264  0.00000  0.13176  Biso   1.000  C
  C98      1.0000 0.22049  0.92338  0.06073  Biso   1.000  C
  N59      1.0000 0.07769  0.94121  0.14013  Biso   1.000  N
  C99      1.0000 0.81247  0.16989  0.55223  Biso   1.000  C
  C100     1.0000 0.96213  0.12982  0.86123  Biso   1.000  C
  N60      1.0000 0.82015  0.16350  0.65642  Biso   1.000  N
  H103     1.0000 0.87758  0.23911  0.75162  Biso   1.000  H
  H104     1.0000 0.26048  0.84107  0.22859  Biso   1.000  H
  H105     1.0000 0.30564  0.87459  0.33201  Biso   1.000  H
  N61      1.0000 0.17990  0.83650  0.34363  Biso   1.000  N
  O29      1.0000 0.94012  0.00000  0.11953  Biso   1.000  O
  H106     1.0000 0.19245  0.94020  0.99527  Biso   1.000  H
  H107     1.0000 0.28440  0.93541  0.06763  Biso   1.000  H
  H108     1.0000 0.21380  0.87268  0.06437  Biso   1.000  H
  C101     1.0000 0.03792  0.87018  0.13881  Biso   1.000  C
  O30      1.0000 0.74880  0.14930  0.49212  Biso   1.000  O
  H109     1.0000 0.02307  0.12828  0.89787  Biso   1.000  H
  H110     1.0000 0.92524  0.16159  0.89872  Biso   1.000  H
  N62      1.0000 0.92236  0.05879  0.85991  Biso   1.000  N
  C102     1.0000 0.75114  0.12908  0.71312  Biso   1.000  C
  C103     1.0000 0.10310  0.79819  0.29428  Biso   1.000  C
  C104     1.0000 0.18765  0.83011  0.44781  Biso   1.000  C
  H111     1.0000 0.97698  0.87172  0.10210  Biso   1.000  H
  H112     1.0000 0.07481  0.83841  0.10132  Biso   1.000  H
  N63      1.0000 0.03221  0.84209  0.24254  Biso   1.000  N
  C105     1.0000 0.82518  0.04209  0.85279  Biso   1.000  C
  C106     1.0000 0.97747  0.00000  0.86820  Biso   1.000  C
  H113     1.0000 0.73956  0.15893  0.77137  Biso   1.000  H
  H114     1.0000 0.69441  0.12541  0.66804  Biso   1.000  H
  N64      1.0000 0.77757  0.05895  0.75092  Biso   1.000  N
  C107     1.0000 0.05883  0.76659  0.38592  Biso   1.000  C
  H115     1.0000 0.12254  0.76089  0.24842  Biso   1.000  H
  N65      1.0000 0.11240  0.79362  0.47392  Biso   1.000  N
  O31      1.0000 0.25125  0.85070  0.50792  Biso   1.000  O
  C108     1.0000 0.95103  0.83341  0.28212  Biso   1.000  C
  C109     1.0000 0.82518  0.95791  0.85279  Biso   1.000  C
  C110     1.0000 0.77956  0.07662  0.93931  Biso   1.000  C
  O32      1.0000 0.05993  0.00000  0.88052  Biso   1.000  O
  N66      1.0000 0.92236  0.94121  0.85991  Biso   1.000  N
  C111     1.0000 0.74643  0.00000  0.69864  Biso   1.000  C
  N67      1.0000 0.96621  0.79330  0.36973  Biso   1.000  N
  H116     1.0000 0.06013  0.71439  0.38453  Biso   1.000  H
  C112     1.0000 0.10814  0.76419  0.57702  Biso   1.000  C
  O33      1.0000 0.87731  0.85672  0.24579  Biso   1.000  O
  N68      1.0000 0.77757  0.94105  0.75092  Biso   1.000  N
  C113     1.0000 0.77956  0.92338  0.93931  Biso   1.000  C
  H117     1.0000 0.71565  0.06459  0.93242  Biso   1.000  H
  H118     1.0000 0.78624  0.12732  0.93560  Biso   1.000  H
  H119     1.0000 0.80760  0.05980  0.00469  Biso   1.000  H
  C114     1.0000 0.96213  0.87018  0.86123  Biso   1.000  C
  O34      1.0000 0.69722  0.00000  0.61753  Biso   1.000  O
  C115     1.0000 0.89191  0.76419  0.42302  Biso   1.000  C
  H120     1.0000 0.10061  0.71312  0.57137  Biso   1.000  H
  H121     1.0000 0.16575  0.77350  0.61831  Biso   1.000  H
  N69      1.0000 0.03384  0.79330  0.63032  Biso   1.000  N
  C116     1.0000 0.75114  0.87092  0.71312  Biso   1.000  C
  H122     1.0000 0.71565  0.93541  0.93242  Biso   1.000  H
  H123     1.0000 0.78624  0.87268  0.93560  Biso   1.000  H
  H124     1.0000 0.80760  0.94020  0.00469  Biso   1.000  H
  N70      1.0000 0.96784  0.84209  0.75751  Biso   1.000  N
  H125     1.0000 0.92524  0.83841  0.89872  Biso   1.000  H
  H126     1.0000 0.02307  0.87172  0.89787  Biso   1.000  H
  H127     1.0000 0.89943  0.71312  0.42860  Biso   1.000  H
  H128     1.0000 0.83430  0.77350  0.38174  Biso   1.000  H
  N71      1.0000 0.88765  0.79362  0.52613  Biso   1.000  N
  C117     1.0000 0.94122  0.76659  0.61413  Biso   1.000  C
  C118     1.0000 0.04902  0.83341  0.71793  Biso   1.000  C
  N72      1.0000 0.82015  0.83650  0.65642  Biso   1.000  N
  H129     1.0000 0.73956  0.84107  0.77137  Biso   1.000  H
  H130     1.0000 0.69441  0.87459  0.66804  Biso   1.000  H
  C119     1.0000 0.89695  0.79819  0.70569  Biso   1.000  C
  C120     1.0000 0.81247  0.83011  0.55223  Biso   1.000  C
  H131     1.0000 0.93992  0.71439  0.61552  Biso   1.000  H
  O35      1.0000 0.12274  0.85672  0.75418  Biso   1.000  O
  H132     1.0000 0.87758  0.76089  0.75162  Biso   1.000  H
  O36      1.0000 0.74880  0.85070  0.49212  Biso   1.000  O
  C121     1.0000 0.18765  0.16989  0.44781  Biso   1.000  C
  N73      1.0000 0.17990  0.16350  0.34363  Biso   1.000  N
  N74      1.0000 0.11240  0.20638  0.47392  Biso   1.000  N
  O37      1.0000 0.25125  0.14930  0.50792  Biso   1.000  O
  C122     1.0000 0.24891  0.12908  0.28692  Biso   1.000  C
  C123     1.0000 0.10310  0.20181  0.29428  Biso   1.000  C
  C124     1.0000 0.05883  0.23341  0.38592  Biso   1.000  C
  C125     1.0000 0.10814  0.23581  0.57702  Biso   1.000  C
  H133     1.0000 0.26048  0.15893  0.22859  Biso   1.000  H
  H134     1.0000 0.30564  0.12541  0.33201  Biso   1.000  H
  N75      1.0000 0.22254  0.05895  0.24912  Biso   1.000  N
  H135     1.0000 0.12254  0.23911  0.24842  Biso   1.000  H
  N76      1.0000 0.03221  0.15791  0.24254  Biso   1.000  N
  H136     1.0000 0.06013  0.28561  0.38453  Biso   1.000  H
  N77      1.0000 0.96621  0.20670  0.36973  Biso   1.000  N
  H137     1.0000 0.10061  0.28688  0.57137  Biso   1.000  H
  H138     1.0000 0.16575  0.22650  0.61831  Biso   1.000  H
  N78      1.0000 0.03384  0.20670  0.63032  Biso   1.000  N
  C126     1.0000 0.25362  0.00000  0.30141  Biso   1.000  C
  C127     1.0000 0.17493  0.04209  0.14718  Biso   1.000  C
  C128     1.0000 0.03792  0.12982  0.13881  Biso   1.000  C
  C129     1.0000 0.95103  0.16659  0.28212  Biso   1.000  C
  C130     1.0000 0.89191  0.23581  0.42302  Biso   1.000  C
  C131     1.0000 0.04902  0.16659  0.71793  Biso   1.000  C
  C132     1.0000 0.94122  0.23341  0.61413  Biso   1.000  C
  O38      1.0000 0.30283  0.00000  0.38251  Biso   1.000  O
  N79      1.0000 0.22254  0.94105  0.24912  Biso   1.000  N
  C133     1.0000 0.22049  0.07662  0.06073  Biso   1.000  C
  N80      1.0000 0.07769  0.05879  0.14013  Biso   1.000  N
  C134     1.0000 0.17493  0.95791  0.14718  Biso   1.000  C
  H139     1.0000 0.07481  0.16159  0.10132  Biso   1.000  H
  H140     1.0000 0.97698  0.12828  0.10210  Biso   1.000  H
  O39      1.0000 0.87731  0.14328  0.24579  Biso   1.000  O
  H141     1.0000 0.89943  0.28688  0.42860  Biso   1.000  H
  H142     1.0000 0.83430  0.22650  0.38174  Biso   1.000  H
  N81      1.0000 0.88765  0.20638  0.52613  Biso   1.000  N
  O40      1.0000 0.12274  0.14328  0.75418  Biso   1.000  O
  N82      1.0000 0.96784  0.15791  0.75751  Biso   1.000  N
  H143     1.0000 0.93992  0.28561  0.61552  Biso   1.000  H
  C135     1.0000 0.89695  0.20181  0.70569  Biso   1.000  C
  C136     1.0000 0.24891  0.87092  0.28692  Biso   1.000  C
  H144     1.0000 0.28440  0.06459  0.06763  Biso   1.000  H
  H145     1.0000 0.21380  0.12732  0.06437  Biso   1.000  H
  H146     1.0000 0.19245  0.05980  0.99527  Biso   1.000  H
  C137     1.0000 0.02264  0.00000  0.13176  Biso   1.000  C
  C138     1.0000 0.22049  0.92338  0.06073  Biso   1.000  C
  N83      1.0000 0.07769  0.94121  0.14013  Biso   1.000  N
  C139     1.0000 0.81247  0.16989  0.55223  Biso   1.000  C
  C140     1.0000 0.96213  0.12982  0.86123  Biso   1.000  C
  N84      1.0000 0.82015  0.16350  0.65642  Biso   1.000  N
  H147     1.0000 0.87758  0.23911  0.75162  Biso   1.000  H
  H148     1.0000 0.26048  0.84107  0.22859  Biso   1.000  H
  H149     1.0000 0.30564  0.87459  0.33201  Biso   1.000  H
  N85      1.0000 0.17990  0.83650  0.34363  Biso   1.000  N
  O41      1.0000 0.94012  0.00000  0.11953  Biso   1.000  O
  H150     1.0000 0.19245  0.94020  0.99527  Biso   1.000  H
  H151     1.0000 0.28440  0.93541  0.06763  Biso   1.000  H
  H152     1.0000 0.21380  0.87268  0.06437  Biso   1.000  H
  C141     1.0000 0.03792  0.87018  0.13881  Biso   1.000  C
  O42      1.0000 0.74880  0.14930  0.49212  Biso   1.000  O
  H153     1.0000 0.02307  0.12828  0.89787  Biso   1.000  H
  H154     1.0000 0.92524  0.16159  0.89872  Biso   1.000  H
  N86      1.0000 0.92236  0.05879  0.85991  Biso   1.000  N
  C142     1.0000 0.75114  0.12908  0.71312  Biso   1.000  C
  C143     1.0000 0.10310  0.79819  0.29428  Biso   1.000  C
  C144     1.0000 0.18765  0.83011  0.44781  Biso   1.000  C
  H155     1.0000 0.97698  0.87172  0.10210  Biso   1.000  H
  H156     1.0000 0.07481  0.83841  0.10132  Biso   1.000  H
  N87      1.0000 0.03221  0.84209  0.24254  Biso   1.000  N
  C145     1.0000 0.82518  0.04209  0.85279  Biso   1.000  C
  C146     1.0000 0.97747  0.00000  0.86820  Biso   1.000  C
  H157     1.0000 0.73956  0.15893  0.77137  Biso   1.000  H
  H158     1.0000 0.69441  0.12541  0.66804  Biso   1.000  H
  N88      1.0000 0.77757  0.05895  0.75092  Biso   1.000  N
  C147     1.0000 0.05883  0.76659  0.38592  Biso   1.000  C
  H159     1.0000 0.12254  0.76089  0.24842  Biso   1.000  H
  N89      1.0000 0.11240  0.79362  0.47392  Biso   1.000  N
  O43      1.0000 0.25125  0.85070  0.50792  Biso   1.000  O
  C148     1.0000 0.95103  0.83341  0.28212  Biso   1.000  C
  C149     1.0000 0.82518  0.95791  0.85279  Biso   1.000  C
  C150     1.0000 0.77956  0.07662  0.93931  Biso   1.000  C
  O44      1.0000 0.05993  0.00000  0.88052  Biso   1.000  O
  N90      1.0000 0.92236  0.94121  0.85991  Biso   1.000  N
  C151     1.0000 0.74643  0.00000  0.69864  Biso   1.000  C
  N91      1.0000 0.96621  0.79330  0.36973  Biso   1.000  N
  H160     1.0000 0.06013  0.71439  0.38453  Biso   1.000  H
  C152     1.0000 0.10814  0.76419  0.57702  Biso   1.000  C
  O45      1.0000 0.87731  0.85672  0.24579  Biso   1.000  O
  N92      1.0000 0.77757  0.94105  0.75092  Biso   1.000  N
  C153     1.0000 0.77956  0.92338  0.93931  Biso   1.000  C
  H161     1.0000 0.71565  0.06459  0.93242  Biso   1.000  H
  H162     1.0000 0.78624  0.12732  0.93560  Biso   1.000  H
  H163     1.0000 0.80760  0.05980  0.00469  Biso   1.000  H
  C154     1.0000 0.96213  0.87018  0.86123  Biso   1.000  C
  O46      1.0000 0.69722  0.00000  0.61753  Biso   1.000  O
  C155     1.0000 0.89191  0.76419  0.42302  Biso   1.000  C
  H164     1.0000 0.10061  0.71312  0.57137  Biso   1.000  H
  H165     1.0000 0.16575  0.77350  0.61831  Biso   1.000  H
  N93      1.0000 0.03384  0.79330  0.63032  Biso   1.000  N
  C156     1.0000 0.75114  0.87092  0.71312  Biso   1.000  C
  H166     1.0000 0.71565  0.93541  0.93242  Biso   1.000  H
  H167     1.0000 0.78624  0.87268  0.93560  Biso   1.000  H
  H168     1.0000 0.80760  0.94020  0.00469  Biso   1.000  H
  N94      1.0000 0.96784  0.84209  0.75751  Biso   1.000  N
  H169     1.0000 0.92524  0.83841  0.89872  Biso   1.000  H
  H170     1.0000 0.02307  0.87172  0.89787  Biso   1.000  H
  H171     1.0000 0.89943  0.71312  0.42860  Biso   1.000  H
  H172     1.0000 0.83430  0.77350  0.38174  Biso   1.000  H
  N95      1.0000 0.88765  0.79362  0.52613  Biso   1.000  N
  C157     1.0000 0.94122  0.76659  0.61413  Biso   1.000  C
  C158     1.0000 0.04902  0.83341  0.71793  Biso   1.000  C
  N96      1.0000 0.82015  0.83650  0.65642  Biso   1.000  N
  H173     1.0000 0.73956  0.84107  0.77137  Biso   1.000  H
  H174     1.0000 0.69441  0.87459  0.66804  Biso   1.000  H
  C159     1.0000 0.89695  0.79819  0.70569  Biso   1.000  C
  C160     1.0000 0.81247  0.83011  0.55223  Biso   1.000  C
  H175     1.0000 0.93992  0.71439  0.61552  Biso   1.000  H
  O47      1.0000 0.12274  0.85672  0.75418  Biso   1.000  O
  H176     1.0000 0.87758  0.76089  0.75162  Biso   1.000  H
  O48      1.0000 0.74880  0.85070  0.49212  Biso   1.000  O
  O49      1.0000 0.24880  0.35068  0.49212  Biso   1.000  O
  C161     1.0000 0.31247  0.33009  0.55223  Biso   1.000  C
  N97      1.0000 0.38765  0.29359  0.52613  Biso   1.000  N
  N98      1.0000 0.32015  0.33653  0.65642  Biso   1.000  N
  C162     1.0000 0.39191  0.26422  0.42302  Biso   1.000  C
  C163     1.0000 0.44122  0.26661  0.61413  Biso   1.000  C
  C164     1.0000 0.39695  0.29822  0.70569  Biso   1.000  C
  C165     1.0000 0.25114  0.37090  0.71312  Biso   1.000  C
  N99      1.0000 0.46621  0.29332  0.36973  Biso   1.000  N
  H177     1.0000 0.39943  0.21309  0.42860  Biso   1.000  H
  H178     1.0000 0.33430  0.27348  0.38174  Biso   1.000  H
  H179     1.0000 0.43992  0.21442  0.61552  Biso   1.000  H
  N100     1.0000 0.53384  0.29332  0.63032  Biso   1.000  N
  H180     1.0000 0.37758  0.26092  0.75162  Biso   1.000  H
  N101     1.0000 0.46784  0.34211  0.75751  Biso   1.000  N
  H181     1.0000 0.23956  0.34110  0.77137  Biso   1.000  H
  H182     1.0000 0.19441  0.37462  0.66804  Biso   1.000  H
  N102     1.0000 0.27757  0.44107  0.75092  Biso   1.000  N
  C166     1.0000 0.45103  0.33339  0.28212  Biso   1.000  C
  C167     1.0000 0.55883  0.26661  0.38592  Biso   1.000  C
  C168     1.0000 0.60814  0.26422  0.57702  Biso   1.000  C
  C169     1.0000 0.54902  0.33339  0.71793  Biso   1.000  C
  C170     1.0000 0.46213  0.37020  0.86123  Biso   1.000  C
  C171     1.0000 0.32518  0.45789  0.85279  Biso   1.000  C
  C172     1.0000 0.24643  0.50003  0.69864  Biso   1.000  C
  O50      1.0000 0.37731  0.35669  0.24579  Biso   1.000  O
  N103     1.0000 0.53221  0.34211  0.24254  Biso   1.000  N
  C173     1.0000 0.60310  0.29822  0.29428  Biso   1.000  C
  H183     1.0000 0.56013  0.21442  0.38453  Biso   1.000  H
  N104     1.0000 0.61240  0.29359  0.47392  Biso   1.000  N
  H184     1.0000 0.60061  0.21309  0.57137  Biso   1.000  H
  H185     1.0000 0.66575  0.27348  0.61831  Biso   1.000  H
  O51      1.0000 0.62274  0.35669  0.75418  Biso   1.000  O
  H186     1.0000 0.52307  0.37169  0.89787  Biso   1.000  H
  H187     1.0000 0.42524  0.33839  0.89872  Biso   1.000  H
  N105     1.0000 0.42236  0.44118  0.85991  Biso   1.000  N
  C174     1.0000 0.32518  0.54211  0.85279  Biso   1.000  C
  C175     1.0000 0.27956  0.42341  0.93931  Biso   1.000  C
  N106     1.0000 0.27757  0.55893  0.75092  Biso   1.000  N
  O52      1.0000 0.19722  0.50003  0.61753  Biso   1.000  O
  C176     1.0000 0.53792  0.37020  0.13881  Biso   1.000  C
  H188     1.0000 0.62254  0.26092  0.24842  Biso   1.000  H
  N107     1.0000 0.67990  0.33653  0.34363  Biso   1.000  N
  C177     1.0000 0.68765  0.33009  0.44781  Biso   1.000  C
  C178     1.0000 0.47747  0.50003  0.86820  Biso   1.000  C
  C179     1.0000 0.27956  0.57659  0.93931  Biso   1.000  C
  N108     1.0000 0.42236  0.55882  0.85991  Biso   1.000  N
  H189     1.0000 0.21565  0.43538  0.93242  Biso   1.000  H
  H190     1.0000 0.28624  0.37271  0.93560  Biso   1.000  H
  H191     1.0000 0.30760  0.44022  0.00469  Biso   1.000  H
  C180     1.0000 0.25114  0.62910  0.71312  Biso   1.000  C
  H192     1.0000 0.47698  0.37169  0.10210  Biso   1.000  H
  H193     1.0000 0.57481  0.33839  0.10132  Biso   1.000  H
  N109     1.0000 0.57769  0.44118  0.14013  Biso   1.000  N
  C181     1.0000 0.74891  0.37090  0.28692  Biso   1.000  C
  O53      1.0000 0.75125  0.35068  0.50792  Biso   1.000  O
  O54      1.0000 0.55993  0.50003  0.88052  Biso   1.000  O
  H194     1.0000 0.21565  0.56462  0.93242  Biso   1.000  H
  H195     1.0000 0.28624  0.62729  0.93560  Biso   1.000  H
  H196     1.0000 0.30760  0.55978  0.00469  Biso   1.000  H
  C182     1.0000 0.46213  0.62980  0.86123  Biso   1.000  C
  H197     1.0000 0.23956  0.65890  0.77137  Biso   1.000  H
  H198     1.0000 0.19441  0.62538  0.66804  Biso   1.000  H
  N110     1.0000 0.32015  0.66347  0.65642  Biso   1.000  N
  C183     1.0000 0.67493  0.45789  0.14718  Biso   1.000  C
  C184     1.0000 0.52264  0.50003  0.13176  Biso   1.000  C
  H199     1.0000 0.76048  0.34110  0.22859  Biso   1.000  H
  H200     1.0000 0.80564  0.37462  0.33201  Biso   1.000  H
  N111     1.0000 0.72254  0.44107  0.24912  Biso   1.000  N
  H201     1.0000 0.52307  0.62831  0.89787  Biso   1.000  H
  H202     1.0000 0.42524  0.66161  0.89872  Biso   1.000  H
  N112     1.0000 0.46784  0.65789  0.75751  Biso   1.000  N
  C185     1.0000 0.39695  0.70178  0.70569  Biso   1.000  C
  C186     1.0000 0.31247  0.66991  0.55223  Biso   1.000  C
  C187     1.0000 0.72049  0.42341  0.06073  Biso   1.000  C
  C188     1.0000 0.67493  0.54211  0.14718  Biso   1.000  C
  O55      1.0000 0.44012  0.50003  0.11953  Biso   1.000  O
  N113     1.0000 0.57769  0.55882  0.14013  Biso   1.000  N
  C189     1.0000 0.75362  0.50003  0.30141  Biso   1.000  C
  C190     1.0000 0.54902  0.66661  0.71793  Biso   1.000  C
  C191     1.0000 0.44122  0.73339  0.61413  Biso   1.000  C
  H203     1.0000 0.37758  0.73908  0.75162  Biso   1.000  H
  N114     1.0000 0.38765  0.70641  0.52613  Biso   1.000  N
  O56      1.0000 0.24880  0.64932  0.49212  Biso   1.000  O
  H204     1.0000 0.78440  0.43538  0.06763  Biso   1.000  H
  H205     1.0000 0.71380  0.37271  0.06437  Biso   1.000  H
  H206     1.0000 0.69245  0.44022  0.99527  Biso   1.000  H
  C192     1.0000 0.72049  0.57659  0.06073  Biso   1.000  C
  N115     1.0000 0.72254  0.55893  0.24912  Biso   1.000  N
  C193     1.0000 0.53792  0.62980  0.13881  Biso   1.000  C
  O57      1.0000 0.80283  0.50003  0.38251  Biso   1.000  O
  N116     1.0000 0.53384  0.70668  0.63032  Biso   1.000  N
  O58      1.0000 0.62274  0.64331  0.75418  Biso   1.000  O
  H207     1.0000 0.43992  0.78558  0.61552  Biso   1.000  H
  C194     1.0000 0.39191  0.73578  0.42302  Biso   1.000  C
  H208     1.0000 0.78440  0.56462  0.06763  Biso   1.000  H
  H209     1.0000 0.71380  0.62729  0.06437  Biso   1.000  H
  H210     1.0000 0.69245  0.55978  0.99527  Biso   1.000  H
  C195     1.0000 0.74891  0.62910  0.28692  Biso   1.000  C
  H211     1.0000 0.47698  0.62831  0.10210  Biso   1.000  H
  H212     1.0000 0.57481  0.66161  0.10132  Biso   1.000  H
  N117     1.0000 0.53221  0.65789  0.24254  Biso   1.000  N
  C196     1.0000 0.60814  0.73578  0.57702  Biso   1.000  C
  N118     1.0000 0.46621  0.70668  0.36973  Biso   1.000  N
  H213     1.0000 0.39943  0.78691  0.42860  Biso   1.000  H
  H214     1.0000 0.33430  0.72652  0.38174  Biso   1.000  H
  H215     1.0000 0.76048  0.65890  0.22859  Biso   1.000  H
  H216     1.0000 0.80564  0.62538  0.33201  Biso   1.000  H
  N119     1.0000 0.67990  0.66347  0.34363  Biso   1.000  N
  C197     1.0000 0.45103  0.66661  0.28212  Biso   1.000  C
  C198     1.0000 0.60310  0.70178  0.29428  Biso   1.000  C
  N120     1.0000 0.61240  0.70641  0.47392  Biso   1.000  N
  H217     1.0000 0.60061  0.78691  0.57137  Biso   1.000  H
  H218     1.0000 0.66575  0.72652  0.61831  Biso   1.000  H
  C199     1.0000 0.55883  0.73339  0.38592  Biso   1.000  C
  C200     1.0000 0.68765  0.66991  0.44781  Biso   1.000  C
  O59      1.0000 0.37731  0.64331  0.24579  Biso   1.000  O
  H219     1.0000 0.62254  0.73908  0.24842  Biso   1.000  H
  H220     1.0000 0.56013  0.78558  0.38453  Biso   1.000  H
  O60      1.0000 0.75125  0.64932  0.50792  Biso   1.000  O
