data_image0
_cell_length_a       15.884
_cell_length_b       12.48
_cell_length_c       14.175
_cell_angle_alpha    90
_cell_angle_beta     90
_cell_angle_gamma    90

_symmetry_space_group_name_H-M    "P 1"
_symmetry_int_tables_number       1

loop_
  _symmetry_equiv_pos_as_xyz
  'x, y, z'

loop_
  _atom_site_label
  _atom_site_occupancy
  _atom_site_fract_x
  _atom_site_fract_y
  _atom_site_fract_z
  _atom_site_thermal_displace_type
  _atom_site_B_iso_or_equiv
  _atom_site_type_symbol
  C1       1.0000 0.86389  0.87380  0.67908  Biso   1.000  C
  N1       1.0000 0.80049  0.94303  0.70060  Biso   1.000  N
  N2       1.0000 0.91438  0.92147  0.61298  Biso   1.000  N
  O1       1.0000 0.87415  0.78526  0.71217  Biso   1.000  O
  N3       1.0000 0.91438  0.92155  0.61298  Biso   1.000  N
  O2       1.0000 0.87415  0.78534  0.71217  Biso   1.000  O
  O3       1.0000 0.87421  0.78526  0.71217  Biso   1.000  O
  O4       1.0000 0.87421  0.78534  0.71217  Biso   1.000  O
  C2       1.0000 0.73502  0.91787  0.76741  Biso   1.000  C
  C3       1.0000 0.73502  0.91795  0.76741  Biso   1.000  C
  C4       1.0000 0.80408  0.04151  0.64607  Biso   1.000  C
  C5       1.0000 0.88328  0.02500  0.58370  Biso   1.000  C
  C6       1.0000 0.98187  0.86418  0.56748  Biso   1.000  C
  C7       1.0000 0.98193  0.86418  0.56748  Biso   1.000  C
  H1       1.0000 0.72727  0.84079  0.76910  Biso   1.000  H
  H2       1.0000 0.68257  0.94952  0.74575  Biso   1.000  H
  N4       1.0000 0.75233  0.95561  0.86215  Biso   1.000  N
  H3       1.0000 0.72734  0.84079  0.76910  Biso   1.000  H
  H4       1.0000 0.75340  0.05088  0.60762  Biso   1.000  H
  N5       1.0000 0.82391  0.13734  0.69841  Biso   1.000  N
  H5       1.0000 0.75340  0.05096  0.60762  Biso   1.000  H
  H6       1.0000 0.86867  0.02532  0.51647  Biso   1.000  H
  N6       1.0000 0.93560  0.11538  0.60776  Biso   1.000  N
  N7       1.0000 0.93560  0.11546  0.60776  Biso   1.000  N
  H7       1.0000 0.86874  0.02532  0.51647  Biso   1.000  H
  H8       1.0000 0.98288  0.88373  0.50131  Biso   1.000  H
  H9       1.0000 0.97028  0.78798  0.57129  Biso   1.000  H
  N8       1.0000 0.06440  0.88462  0.60776  Biso   1.000  N
  N9       1.0000 0.06447  0.88462  0.60776  Biso   1.000  N
  C8       1.0000 0.78437  0.88870  0.93037  Biso   1.000  C
  C9       1.0000 0.72897  0.06018  0.89877  Biso   1.000  C
  C10      1.0000 0.72897  0.06026  0.89877  Biso   1.000  C
  C11      1.0000 0.72904  0.06018  0.89877  Biso   1.000  C
  C12      1.0000 0.72904  0.06026  0.89877  Biso   1.000  C
  C13      1.0000 0.89958  0.18077  0.67365  Biso   1.000  C
  C14      1.0000 0.76712  0.18878  0.76451  Biso   1.000  C
  C15      1.0000 0.89958  0.18085  0.67365  Biso   1.000  C
  C16      1.0000 0.76712  0.18886  0.76451  Biso   1.000  C
  C17      1.0000 0.01813  0.13582  0.56748  Biso   1.000  C
  C18      1.0000 0.11672  0.97500  0.58370  Biso   1.000  C
  C19      1.0000 0.10042  0.81923  0.67365  Biso   1.000  C
  O5       1.0000 0.80251  0.79527  0.91986  Biso   1.000  O
  N10      1.0000 0.79042  0.94599  0.01256  Biso   1.000  N
  H10      1.0000 0.66797  0.07171  0.89608  Biso   1.000  H
  N11      1.0000 0.77455  0.14984  0.86039  Biso   1.000  N
  H11      1.0000 0.66803  0.07171  0.89608  Biso   1.000  H
  C20      1.0000 0.76146  0.05473  0.00268  Biso   1.000  C
  O6       1.0000 0.92924  0.26370  0.70392  Biso   1.000  O
  H12      1.0000 0.77802  0.26530  0.76409  Biso   1.000  H
  H13      1.0000 0.70971  0.17796  0.74321  Biso   1.000  H
  H14      1.0000 0.70971  0.17804  0.74321  Biso   1.000  H
  H15      1.0000 0.01712  0.11627  0.50131  Biso   1.000  H
  H16      1.0000 0.02972  0.21202  0.57129  Biso   1.000  H
  N12      1.0000 0.08562  0.07853  0.61298  Biso   1.000  N
  H17      1.0000 0.01712  0.11635  0.50131  Biso   1.000  H
  H18      1.0000 0.13133  0.97468  0.51647  Biso   1.000  H
  C21      1.0000 0.19592  0.95849  0.64607  Biso   1.000  C
  H19      1.0000 0.13133  0.97476  0.51647  Biso   1.000  H
  N13      1.0000 0.17609  0.86266  0.69841  Biso   1.000  N
  O7       1.0000 0.07076  0.73630  0.70392  Biso   1.000  O
  N14      1.0000 0.17609  0.86274  0.69841  Biso   1.000  N
  O8       1.0000 0.07076  0.73638  0.70392  Biso   1.000  O
  C22      1.0000 0.82819  0.90048  0.09594  Biso   1.000  C
  C23      1.0000 0.82819  0.90056  0.09594  Biso   1.000  C
  C24      1.0000 0.82939  0.19487  0.92409  Biso   1.000  C
  C25      1.0000 0.82939  0.19495  0.92409  Biso   1.000  C
  H20      1.0000 0.71657  0.07123  0.04790  Biso   1.000  H
  N15      1.0000 0.82731  0.13542  0.00444  Biso   1.000  N
  H21      1.0000 0.71663  0.07123  0.04790  Biso   1.000  H
  C26      1.0000 0.13611  0.12620  0.67908  Biso   1.000  C
  H22      1.0000 0.24660  0.94912  0.60762  Biso   1.000  H
  N16      1.0000 0.19951  0.05697  0.70060  Biso   1.000  N
  N17      1.0000 0.19951  0.05705  0.70060  Biso   1.000  N
  C27      1.0000 0.23288  0.81122  0.76451  Biso   1.000  C
  C28      1.0000 0.23294  0.81122  0.76451  Biso   1.000  C
  H23      1.0000 0.81938  0.82356  0.09531  Biso   1.000  H
  H24      1.0000 0.79948  0.92893  0.15097  Biso   1.000  H
  N18      1.0000 0.91740  0.92139  0.10533  Biso   1.000  N
  H25      1.0000 0.81938  0.82364  0.09531  Biso   1.000  H
  O9       1.0000 0.87107  0.27524  0.91041  Biso   1.000  O
  C29      1.0000 0.86911  0.16987  0.09009  Biso   1.000  C
  C30      1.0000 0.86911  0.16995  0.09009  Biso   1.000  C
  O10      1.0000 0.12585  0.21474  0.71217  Biso   1.000  O
  C31      1.0000 0.26498  0.08213  0.76741  Biso   1.000  C
  H26      1.0000 0.22198  0.73470  0.76409  Biso   1.000  H
  H27      1.0000 0.29029  0.82204  0.74321  Biso   1.000  H
  N19      1.0000 0.22545  0.85016  0.86039  Biso   1.000  N
  N20      1.0000 0.22545  0.85024  0.86039  Biso   1.000  N
  C32      1.0000 0.97664  0.84599  0.08346  Biso   1.000  C
  C33      1.0000 0.95259  0.01210  0.15626  Biso   1.000  C
  H28      1.0000 0.88082  0.24607  0.08564  Biso   1.000  H
  H29      1.0000 0.83153  0.15897  0.14307  Biso   1.000  H
  N21      1.0000 0.94705  0.11362  0.10787  Biso   1.000  N
  H30      1.0000 0.88082  0.24615  0.08564  Biso   1.000  H
  H31      1.0000 0.83153  0.15905  0.14307  Biso   1.000  H
  H32      1.0000 0.27273  0.15921  0.76910  Biso   1.000  H
  H33      1.0000 0.31743  0.05048  0.74575  Biso   1.000  H
  N22      1.0000 0.24767  0.04439  0.86215  Biso   1.000  N
  H34      1.0000 0.31743  0.05056  0.74575  Biso   1.000  H
  C34      1.0000 0.17061  0.80513  0.92409  Biso   1.000  C
  C35      1.0000 0.27103  0.93982  0.89877  Biso   1.000  C
  O11      1.0000 0.96292  0.75873  0.04832  Biso   1.000  O
  O12      1.0000 0.96298  0.75873  0.04832  Biso   1.000  O
  N23      1.0000 0.05295  0.88638  0.10787  Biso   1.000  N
  N24      1.0000 0.05295  0.88646  0.10787  Biso   1.000  N
  H35      1.0000 0.93012  0.01667  0.22060  Biso   1.000  H
  H36      1.0000 0.93012  0.01675  0.22060  Biso   1.000  H
  C36      1.0000 0.04741  0.98790  0.15626  Biso   1.000  C
  C37      1.0000 0.02336  0.15401  0.08346  Biso   1.000  C
  C38      1.0000 0.21563  0.11130  0.93037  Biso   1.000  C
  N25      1.0000 0.17269  0.86458  0.00444  Biso   1.000  N
  O13      1.0000 0.12893  0.72476  0.91041  Biso   1.000  O
  O14      1.0000 0.12893  0.72484  0.91041  Biso   1.000  O
  C39      1.0000 0.23854  0.94527  0.00268  Biso   1.000  C
  C40      1.0000 0.23854  0.94535  0.00268  Biso   1.000  C
  H37      1.0000 0.33203  0.92829  0.89608  Biso   1.000  H
  C41      1.0000 0.13089  0.83013  0.09009  Biso   1.000  C
  H38      1.0000 0.06988  0.98333  0.22060  Biso   1.000  H
  N26      1.0000 0.08260  0.07861  0.10533  Biso   1.000  N
  O15      1.0000 0.03708  0.24127  0.04832  Biso   1.000  O
  N27      1.0000 0.20958  0.05401  0.01256  Biso   1.000  N
  O16      1.0000 0.19749  0.20473  0.91986  Biso   1.000  O
  O17      1.0000 0.19756  0.20473  0.91986  Biso   1.000  O
  H39      1.0000 0.28343  0.92877  0.04790  Biso   1.000  H
  H40      1.0000 0.28343  0.92885  0.04790  Biso   1.000  H
  H41      1.0000 0.11918  0.75393  0.08564  Biso   1.000  H
  H42      1.0000 0.16847  0.84103  0.14307  Biso   1.000  H
  H43      1.0000 0.16853  0.84103  0.14307  Biso   1.000  H
  C42      1.0000 0.17181  0.09952  0.09594  Biso   1.000  C
  H44      1.0000 0.18062  0.17644  0.09531  Biso   1.000  H
  H45      1.0000 0.20052  0.07107  0.15097  Biso   1.000  H
  H46      1.0000 0.20052  0.07115  0.15097  Biso   1.000  H
  C43      1.0000 0.86389  0.87380  0.67908  Biso   1.000  C
  N28      1.0000 0.80049  0.94303  0.70060  Biso   1.000  N
  N29      1.0000 0.91438  0.92147  0.61298  Biso   1.000  N
  N30      1.0000 0.91438  0.92155  0.61298  Biso   1.000  N
  O18      1.0000 0.87415  0.78526  0.71217  Biso   1.000  O
  O19      1.0000 0.87415  0.78534  0.71217  Biso   1.000  O
  O20      1.0000 0.87421  0.78526  0.71217  Biso   1.000  O
  O21      1.0000 0.87421  0.78534  0.71217  Biso   1.000  O
  C44      1.0000 0.73502  0.91787  0.76741  Biso   1.000  C
  C45      1.0000 0.73502  0.91795  0.76741  Biso   1.000  C
  C46      1.0000 0.80408  0.04151  0.64607  Biso   1.000  C
  C47      1.0000 0.88328  0.02500  0.58370  Biso   1.000  C
  C48      1.0000 0.98187  0.86418  0.56748  Biso   1.000  C
  C49      1.0000 0.98193  0.86418  0.56748  Biso   1.000  C
  H47      1.0000 0.72727  0.84079  0.76910  Biso   1.000  H
  H48      1.0000 0.68257  0.94952  0.74575  Biso   1.000  H
  N31      1.0000 0.75233  0.95561  0.86215  Biso   1.000  N
  H49      1.0000 0.72734  0.84079  0.76910  Biso   1.000  H
  H50      1.0000 0.75340  0.05088  0.60762  Biso   1.000  H
  N32      1.0000 0.82391  0.13734  0.69841  Biso   1.000  N
  H51      1.0000 0.75340  0.05096  0.60762  Biso   1.000  H
  H52      1.0000 0.86867  0.02532  0.51647  Biso   1.000  H
  N33      1.0000 0.93560  0.11538  0.60776  Biso   1.000  N
  N34      1.0000 0.93560  0.11546  0.60776  Biso   1.000  N
  H53      1.0000 0.86874  0.02532  0.51647  Biso   1.000  H
  H54      1.0000 0.98288  0.88373  0.50131  Biso   1.000  H
  H55      1.0000 0.97028  0.78798  0.57129  Biso   1.000  H
  N35      1.0000 0.06440  0.88462  0.60776  Biso   1.000  N
  N36      1.0000 0.06447  0.88462  0.60776  Biso   1.000  N
  C50      1.0000 0.78437  0.88870  0.93037  Biso   1.000  C
  C51      1.0000 0.72897  0.06018  0.89877  Biso   1.000  C
  C52      1.0000 0.72897  0.06026  0.89877  Biso   1.000  C
  C53      1.0000 0.72904  0.06018  0.89877  Biso   1.000  C
  C54      1.0000 0.72904  0.06026  0.89877  Biso   1.000  C
  C55      1.0000 0.89958  0.18077  0.67365  Biso   1.000  C
  C56      1.0000 0.76712  0.18878  0.76451  Biso   1.000  C
  C57      1.0000 0.89958  0.18085  0.67365  Biso   1.000  C
  C58      1.0000 0.76712  0.18886  0.76451  Biso   1.000  C
  C59      1.0000 0.01813  0.13582  0.56748  Biso   1.000  C
  C60      1.0000 0.11672  0.97500  0.58370  Biso   1.000  C
  C61      1.0000 0.10042  0.81923  0.67365  Biso   1.000  C
  O22      1.0000 0.80251  0.79527  0.91986  Biso   1.000  O
  N37      1.0000 0.79042  0.94599  0.01256  Biso   1.000  N
  H56      1.0000 0.66797  0.07171  0.89608  Biso   1.000  H
  N38      1.0000 0.77455  0.14984  0.86039  Biso   1.000  N
  H57      1.0000 0.66803  0.07171  0.89608  Biso   1.000  H
  C62      1.0000 0.76146  0.05473  0.00268  Biso   1.000  C
  O23      1.0000 0.92924  0.26370  0.70392  Biso   1.000  O
  H58      1.0000 0.77802  0.26530  0.76409  Biso   1.000  H
  H59      1.0000 0.70971  0.17796  0.74321  Biso   1.000  H
  H60      1.0000 0.70971  0.17804  0.74321  Biso   1.000  H
  H61      1.0000 0.01712  0.11627  0.50131  Biso   1.000  H
  H62      1.0000 0.02972  0.21202  0.57129  Biso   1.000  H
  N39      1.0000 0.08562  0.07853  0.61298  Biso   1.000  N
  H63      1.0000 0.01712  0.11635  0.50131  Biso   1.000  H
  H64      1.0000 0.13133  0.97468  0.51647  Biso   1.000  H
  C63      1.0000 0.19592  0.95849  0.64607  Biso   1.000  C
  H65      1.0000 0.13133  0.97476  0.51647  Biso   1.000  H
  N40      1.0000 0.17609  0.86266  0.69841  Biso   1.000  N
  O24      1.0000 0.07076  0.73630  0.70392  Biso   1.000  O
  N41      1.0000 0.17609  0.86274  0.69841  Biso   1.000  N
  O25      1.0000 0.07076  0.73638  0.70392  Biso   1.000  O
  C64      1.0000 0.82819  0.90048  0.09594  Biso   1.000  C
  C65      1.0000 0.82819  0.90056  0.09594  Biso   1.000  C
  C66      1.0000 0.82939  0.19487  0.92409  Biso   1.000  C
  C67      1.0000 0.82939  0.19495  0.92409  Biso   1.000  C
  H66      1.0000 0.71657  0.07123  0.04790  Biso   1.000  H
  N42      1.0000 0.82731  0.13542  0.00444  Biso   1.000  N
  H67      1.0000 0.71663  0.07123  0.04790  Biso   1.000  H
  C68      1.0000 0.13611  0.12620  0.67908  Biso   1.000  C
  H68      1.0000 0.24660  0.94912  0.60762  Biso   1.000  H
  N43      1.0000 0.19951  0.05697  0.70060  Biso   1.000  N
  N44      1.0000 0.19951  0.05705  0.70060  Biso   1.000  N
  C69      1.0000 0.23288  0.81122  0.76451  Biso   1.000  C
  C70      1.0000 0.23294  0.81122  0.76451  Biso   1.000  C
  H69      1.0000 0.81938  0.82356  0.09531  Biso   1.000  H
  H70      1.0000 0.79948  0.92893  0.15097  Biso   1.000  H
  N45      1.0000 0.91740  0.92139  0.10533  Biso   1.000  N
  H71      1.0000 0.81938  0.82364  0.09531  Biso   1.000  H
  O26      1.0000 0.87107  0.27524  0.91041  Biso   1.000  O
  C71      1.0000 0.86911  0.16987  0.09009  Biso   1.000  C
  C72      1.0000 0.86911  0.16995  0.09009  Biso   1.000  C
  O27      1.0000 0.12585  0.21474  0.71217  Biso   1.000  O
  C73      1.0000 0.26498  0.08213  0.76741  Biso   1.000  C
  H72      1.0000 0.22198  0.73470  0.76409  Biso   1.000  H
  H73      1.0000 0.29029  0.82204  0.74321  Biso   1.000  H
  N46      1.0000 0.22545  0.85016  0.86039  Biso   1.000  N
  N47      1.0000 0.22545  0.85024  0.86039  Biso   1.000  N
  C74      1.0000 0.97664  0.84599  0.08346  Biso   1.000  C
  C75      1.0000 0.95259  0.01210  0.15626  Biso   1.000  C
  H74      1.0000 0.88082  0.24607  0.08564  Biso   1.000  H
  H75      1.0000 0.83153  0.15897  0.14307  Biso   1.000  H
  N48      1.0000 0.94705  0.11362  0.10787  Biso   1.000  N
  H76      1.0000 0.88082  0.24615  0.08564  Biso   1.000  H
  H77      1.0000 0.83153  0.15905  0.14307  Biso   1.000  H
  H78      1.0000 0.27273  0.15921  0.76910  Biso   1.000  H
  H79      1.0000 0.31743  0.05048  0.74575  Biso   1.000  H
  N49      1.0000 0.24767  0.04439  0.86215  Biso   1.000  N
  H80      1.0000 0.31743  0.05056  0.74575  Biso   1.000  H
  C76      1.0000 0.17061  0.80513  0.92409  Biso   1.000  C
  C77      1.0000 0.27103  0.93982  0.89877  Biso   1.000  C
  O28      1.0000 0.96292  0.75873  0.04832  Biso   1.000  O
  O29      1.0000 0.96298  0.75873  0.04832  Biso   1.000  O
  N50      1.0000 0.05295  0.88638  0.10787  Biso   1.000  N
  N51      1.0000 0.05295  0.88646  0.10787  Biso   1.000  N
  H81      1.0000 0.93012  0.01667  0.22060  Biso   1.000  H
  H82      1.0000 0.93012  0.01675  0.22060  Biso   1.000  H
  C78      1.0000 0.04741  0.98790  0.15626  Biso   1.000  C
  C79      1.0000 0.02336  0.15401  0.08346  Biso   1.000  C
  C80      1.0000 0.21563  0.11130  0.93037  Biso   1.000  C
  N52      1.0000 0.17269  0.86458  0.00444  Biso   1.000  N
  O30      1.0000 0.12893  0.72476  0.91041  Biso   1.000  O
  O31      1.0000 0.12893  0.72484  0.91041  Biso   1.000  O
  C81      1.0000 0.23854  0.94527  0.00268  Biso   1.000  C
  C82      1.0000 0.23854  0.94535  0.00268  Biso   1.000  C
  H83      1.0000 0.33203  0.92829  0.89608  Biso   1.000  H
  C83      1.0000 0.13089  0.83013  0.09009  Biso   1.000  C
  H84      1.0000 0.06988  0.98333  0.22060  Biso   1.000  H
  N53      1.0000 0.08260  0.07861  0.10533  Biso   1.000  N
  O32      1.0000 0.03708  0.24127  0.04832  Biso   1.000  O
  N54      1.0000 0.20958  0.05401  0.01256  Biso   1.000  N
  O33      1.0000 0.19749  0.20473  0.91986  Biso   1.000  O
  O34      1.0000 0.19756  0.20473  0.91986  Biso   1.000  O
  H85      1.0000 0.28343  0.92877  0.04790  Biso   1.000  H
  H86      1.0000 0.28343  0.92885  0.04790  Biso   1.000  H
  H87      1.0000 0.11918  0.75393  0.08564  Biso   1.000  H
  H88      1.0000 0.16847  0.84103  0.14307  Biso   1.000  H
  H89      1.0000 0.16853  0.84103  0.14307  Biso   1.000  H
  C84      1.0000 0.17181  0.09952  0.09594  Biso   1.000  C
  H90      1.0000 0.18062  0.17644  0.09531  Biso   1.000  H
  H91      1.0000 0.20052  0.07107  0.15097  Biso   1.000  H
  H92      1.0000 0.20052  0.07115  0.15097  Biso   1.000  H
  C85      1.0000 0.86389  0.87380  0.67908  Biso   1.000  C
  N55      1.0000 0.80049  0.94303  0.70060  Biso   1.000  N
  N56      1.0000 0.91438  0.92147  0.61298  Biso   1.000  N
  O35      1.0000 0.87415  0.78526  0.71217  Biso   1.000  O
  N57      1.0000 0.91438  0.92155  0.61298  Biso   1.000  N
  O36      1.0000 0.87415  0.78534  0.71217  Biso   1.000  O
  O37      1.0000 0.87421  0.78526  0.71217  Biso   1.000  O
  O38      1.0000 0.87421  0.78534  0.71217  Biso   1.000  O
  C86      1.0000 0.73502  0.91787  0.76741  Biso   1.000  C
  C87      1.0000 0.73502  0.91795  0.76741  Biso   1.000  C
  C88      1.0000 0.80408  0.04151  0.64607  Biso   1.000  C
  C89      1.0000 0.88328  0.02500  0.58370  Biso   1.000  C
  C90      1.0000 0.98187  0.86418  0.56748  Biso   1.000  C
  C91      1.0000 0.98193  0.86418  0.56748  Biso   1.000  C
  H93      1.0000 0.68257  0.94952  0.74575  Biso   1.000  H
  N58      1.0000 0.75233  0.95561  0.86215  Biso   1.000  N
  H94      1.0000 0.72727  0.84079  0.76910  Biso   1.000  H
  H95      1.0000 0.72734  0.84079  0.76910  Biso   1.000  H
  H96      1.0000 0.75340  0.05088  0.60762  Biso   1.000  H
  N59      1.0000 0.82391  0.13734  0.69841  Biso   1.000  N
  H97      1.0000 0.75340  0.05096  0.60762  Biso   1.000  H
  H98      1.0000 0.86867  0.02532  0.51647  Biso   1.000  H
  N60      1.0000 0.93560  0.11538  0.60776  Biso   1.000  N
  N61      1.0000 0.93560  0.11546  0.60776  Biso   1.000  N
  H99      1.0000 0.86874  0.02532  0.51647  Biso   1.000  H
  H100     1.0000 0.98288  0.88373  0.50131  Biso   1.000  H
  H101     1.0000 0.97028  0.78798  0.57129  Biso   1.000  H
  N62      1.0000 0.06440  0.88462  0.60776  Biso   1.000  N
  N63      1.0000 0.06447  0.88462  0.60776  Biso   1.000  N
  C92      1.0000 0.78437  0.88870  0.93037  Biso   1.000  C
  C93      1.0000 0.72897  0.06018  0.89877  Biso   1.000  C
  C94      1.0000 0.72897  0.06026  0.89877  Biso   1.000  C
  C95      1.0000 0.72904  0.06018  0.89877  Biso   1.000  C
  C96      1.0000 0.72904  0.06026  0.89877  Biso   1.000  C
  C97      1.0000 0.89958  0.18077  0.67365  Biso   1.000  C
  C98      1.0000 0.76712  0.18878  0.76451  Biso   1.000  C
  C99      1.0000 0.89958  0.18085  0.67365  Biso   1.000  C
  C100     1.0000 0.76712  0.18886  0.76451  Biso   1.000  C
  C101     1.0000 0.01813  0.13582  0.56748  Biso   1.000  C
  C102     1.0000 0.11672  0.97500  0.58370  Biso   1.000  C
  C103     1.0000 0.10042  0.81923  0.67365  Biso   1.000  C
  O39      1.0000 0.80251  0.79527  0.91986  Biso   1.000  O
  N64      1.0000 0.79042  0.94599  0.01256  Biso   1.000  N
  H102     1.0000 0.66797  0.07171  0.89608  Biso   1.000  H
  N65      1.0000 0.77455  0.14984  0.86039  Biso   1.000  N
  H103     1.0000 0.66803  0.07171  0.89608  Biso   1.000  H
  C104     1.0000 0.76146  0.05473  0.00268  Biso   1.000  C
  O40      1.0000 0.92924  0.26370  0.70392  Biso   1.000  O
  H104     1.0000 0.77802  0.26530  0.76409  Biso   1.000  H
  H105     1.0000 0.70971  0.17796  0.74321  Biso   1.000  H
  H106     1.0000 0.70971  0.17804  0.74321  Biso   1.000  H
  H107     1.0000 0.01712  0.11627  0.50131  Biso   1.000  H
  H108     1.0000 0.02972  0.21202  0.57129  Biso   1.000  H
  N66      1.0000 0.08562  0.07853  0.61298  Biso   1.000  N
  H109     1.0000 0.01712  0.11635  0.50131  Biso   1.000  H
  H110     1.0000 0.13133  0.97468  0.51647  Biso   1.000  H
  C105     1.0000 0.19592  0.95849  0.64607  Biso   1.000  C
  H111     1.0000 0.13133  0.97476  0.51647  Biso   1.000  H
  N67      1.0000 0.17609  0.86266  0.69841  Biso   1.000  N
  O41      1.0000 0.07076  0.73630  0.70392  Biso   1.000  O
  N68      1.0000 0.17609  0.86274  0.69841  Biso   1.000  N
  O42      1.0000 0.07076  0.73638  0.70392  Biso   1.000  O
  C106     1.0000 0.82819  0.90048  0.09594  Biso   1.000  C
  C107     1.0000 0.82819  0.90056  0.09594  Biso   1.000  C
  C108     1.0000 0.82939  0.19487  0.92409  Biso   1.000  C
  C109     1.0000 0.82939  0.19495  0.92409  Biso   1.000  C
  H112     1.0000 0.71657  0.07123  0.04790  Biso   1.000  H
  N69      1.0000 0.82731  0.13542  0.00444  Biso   1.000  N
  H113     1.0000 0.71663  0.07123  0.04790  Biso   1.000  H
  C110     1.0000 0.13611  0.12620  0.67908  Biso   1.000  C
  H114     1.0000 0.24660  0.94912  0.60762  Biso   1.000  H
  N70      1.0000 0.19951  0.05697  0.70060  Biso   1.000  N
  N71      1.0000 0.19951  0.05705  0.70060  Biso   1.000  N
  C111     1.0000 0.23288  0.81122  0.76451  Biso   1.000  C
  C112     1.0000 0.23294  0.81122  0.76451  Biso   1.000  C
  H115     1.0000 0.81938  0.82356  0.09531  Biso   1.000  H
  H116     1.0000 0.79948  0.92893  0.15097  Biso   1.000  H
  N72      1.0000 0.91740  0.92139  0.10533  Biso   1.000  N
  H117     1.0000 0.81938  0.82364  0.09531  Biso   1.000  H
  O43      1.0000 0.87107  0.27524  0.91041  Biso   1.000  O
  C113     1.0000 0.86911  0.16987  0.09009  Biso   1.000  C
  C114     1.0000 0.86911  0.16995  0.09009  Biso   1.000  C
  O44      1.0000 0.12585  0.21474  0.71217  Biso   1.000  O
  C115     1.0000 0.26498  0.08213  0.76741  Biso   1.000  C
  H118     1.0000 0.22198  0.73470  0.76409  Biso   1.000  H
  H119     1.0000 0.29029  0.82204  0.74321  Biso   1.000  H
  N73      1.0000 0.22545  0.85016  0.86039  Biso   1.000  N
  N74      1.0000 0.22545  0.85024  0.86039  Biso   1.000  N
  C116     1.0000 0.97664  0.84599  0.08346  Biso   1.000  C
  C117     1.0000 0.95259  0.01210  0.15626  Biso   1.000  C
  H120     1.0000 0.88082  0.24607  0.08564  Biso   1.000  H
  H121     1.0000 0.83153  0.15897  0.14307  Biso   1.000  H
  N75      1.0000 0.94705  0.11362  0.10787  Biso   1.000  N
  H122     1.0000 0.88082  0.24615  0.08564  Biso   1.000  H
  H123     1.0000 0.83153  0.15905  0.14307  Biso   1.000  H
  H124     1.0000 0.27273  0.15921  0.76910  Biso   1.000  H
  H125     1.0000 0.31743  0.05048  0.74575  Biso   1.000  H
  N76      1.0000 0.24767  0.04439  0.86215  Biso   1.000  N
  H126     1.0000 0.31743  0.05056  0.74575  Biso   1.000  H
  C118     1.0000 0.17061  0.80513  0.92409  Biso   1.000  C
  C119     1.0000 0.27103  0.93982  0.89877  Biso   1.000  C
  O45      1.0000 0.96292  0.75873  0.04832  Biso   1.000  O
  O46      1.0000 0.96298  0.75873  0.04832  Biso   1.000  O
  N77      1.0000 0.05295  0.88638  0.10787  Biso   1.000  N
  N78      1.0000 0.05295  0.88646  0.10787  Biso   1.000  N
  H127     1.0000 0.93012  0.01667  0.22060  Biso   1.000  H
  H128     1.0000 0.93012  0.01675  0.22060  Biso   1.000  H
  C120     1.0000 0.04741  0.98790  0.15626  Biso   1.000  C
  C121     1.0000 0.02336  0.15401  0.08346  Biso   1.000  C
  C122     1.0000 0.21563  0.11130  0.93037  Biso   1.000  C
  O47      1.0000 0.12893  0.72476  0.91041  Biso   1.000  O
  O48      1.0000 0.12893  0.72484  0.91041  Biso   1.000  O
  N79      1.0000 0.17269  0.86458  0.00444  Biso   1.000  N
  H129     1.0000 0.33203  0.92829  0.89608  Biso   1.000  H
  C123     1.0000 0.23854  0.94527  0.00268  Biso   1.000  C
  C124     1.0000 0.23854  0.94535  0.00268  Biso   1.000  C
  C125     1.0000 0.13089  0.83013  0.09009  Biso   1.000  C
  H130     1.0000 0.06988  0.98333  0.22060  Biso   1.000  H
  N80      1.0000 0.08260  0.07861  0.10533  Biso   1.000  N
  O49      1.0000 0.03708  0.24127  0.04832  Biso   1.000  O
  O50      1.0000 0.19749  0.20473  0.91986  Biso   1.000  O
  O51      1.0000 0.19756  0.20473  0.91986  Biso   1.000  O
  N81      1.0000 0.20958  0.05401  0.01256  Biso   1.000  N
  H131     1.0000 0.28343  0.92877  0.04790  Biso   1.000  H
  H132     1.0000 0.28343  0.92885  0.04790  Biso   1.000  H
  H133     1.0000 0.11918  0.75393  0.08564  Biso   1.000  H
  H134     1.0000 0.16847  0.84103  0.14307  Biso   1.000  H
  H135     1.0000 0.16853  0.84103  0.14307  Biso   1.000  H
  C126     1.0000 0.17181  0.09952  0.09594  Biso   1.000  C
  H136     1.0000 0.18062  0.17644  0.09531  Biso   1.000  H
  H137     1.0000 0.20052  0.07107  0.15097  Biso   1.000  H
  H138     1.0000 0.20052  0.07115  0.15097  Biso   1.000  H
  C127     1.0000 0.86389  0.87380  0.67908  Biso   1.000  C
  N82      1.0000 0.80049  0.94303  0.70060  Biso   1.000  N
  N83      1.0000 0.91438  0.92147  0.61298  Biso   1.000  N
  O52      1.0000 0.87415  0.78526  0.71217  Biso   1.000  O
  N84      1.0000 0.91438  0.92155  0.61298  Biso   1.000  N
  O53      1.0000 0.87415  0.78534  0.71217  Biso   1.000  O
  O54      1.0000 0.87421  0.78526  0.71217  Biso   1.000  O
  O55      1.0000 0.87421  0.78534  0.71217  Biso   1.000  O
  C128     1.0000 0.73502  0.91787  0.76741  Biso   1.000  C
  C129     1.0000 0.73502  0.91795  0.76741  Biso   1.000  C
  C130     1.0000 0.80408  0.04151  0.64607  Biso   1.000  C
  C131     1.0000 0.88328  0.02500  0.58370  Biso   1.000  C
  C132     1.0000 0.98187  0.86418  0.56748  Biso   1.000  C
  C133     1.0000 0.98193  0.86418  0.56748  Biso   1.000  C
  H139     1.0000 0.68257  0.94952  0.74575  Biso   1.000  H
  N85      1.0000 0.75233  0.95561  0.86215  Biso   1.000  N
  H140     1.0000 0.72727  0.84079  0.76910  Biso   1.000  H
  H141     1.0000 0.72734  0.84079  0.76910  Biso   1.000  H
  H142     1.0000 0.75340  0.05088  0.60762  Biso   1.000  H
  N86      1.0000 0.82391  0.13734  0.69841  Biso   1.000  N
  H143     1.0000 0.75340  0.05096  0.60762  Biso   1.000  H
  H144     1.0000 0.86867  0.02532  0.51647  Biso   1.000  H
  N87      1.0000 0.93560  0.11538  0.60776  Biso   1.000  N
  N88      1.0000 0.93560  0.11546  0.60776  Biso   1.000  N
  H145     1.0000 0.86874  0.02532  0.51647  Biso   1.000  H
  H146     1.0000 0.98288  0.88373  0.50131  Biso   1.000  H
  H147     1.0000 0.97028  0.78798  0.57129  Biso   1.000  H
  N89      1.0000 0.06440  0.88462  0.60776  Biso   1.000  N
  N90      1.0000 0.06447  0.88462  0.60776  Biso   1.000  N
  C134     1.0000 0.78437  0.88870  0.93037  Biso   1.000  C
  C135     1.0000 0.72897  0.06018  0.89877  Biso   1.000  C
  C136     1.0000 0.72897  0.06026  0.89877  Biso   1.000  C
  C137     1.0000 0.72904  0.06018  0.89877  Biso   1.000  C
  C138     1.0000 0.72904  0.06026  0.89877  Biso   1.000  C
  C139     1.0000 0.89958  0.18077  0.67365  Biso   1.000  C
  C140     1.0000 0.76712  0.18878  0.76451  Biso   1.000  C
  C141     1.0000 0.89958  0.18085  0.67365  Biso   1.000  C
  C142     1.0000 0.76712  0.18886  0.76451  Biso   1.000  C
  C143     1.0000 0.01813  0.13582  0.56748  Biso   1.000  C
  C144     1.0000 0.11672  0.97500  0.58370  Biso   1.000  C
  C145     1.0000 0.10042  0.81923  0.67365  Biso   1.000  C
  O56      1.0000 0.80251  0.79527  0.91986  Biso   1.000  O
  N91      1.0000 0.79042  0.94599  0.01256  Biso   1.000  N
  H148     1.0000 0.66797  0.07171  0.89608  Biso   1.000  H
  N92      1.0000 0.77455  0.14984  0.86039  Biso   1.000  N
  H149     1.0000 0.66803  0.07171  0.89608  Biso   1.000  H
  C146     1.0000 0.76146  0.05473  0.00268  Biso   1.000  C
  O57      1.0000 0.92924  0.26370  0.70392  Biso   1.000  O
  H150     1.0000 0.77802  0.26530  0.76409  Biso   1.000  H
  H151     1.0000 0.70971  0.17796  0.74321  Biso   1.000  H
  H152     1.0000 0.70971  0.17804  0.74321  Biso   1.000  H
  H153     1.0000 0.01712  0.11627  0.50131  Biso   1.000  H
  H154     1.0000 0.02972  0.21202  0.57129  Biso   1.000  H
  N93      1.0000 0.08562  0.07853  0.61298  Biso   1.000  N
  H155     1.0000 0.01712  0.11635  0.50131  Biso   1.000  H
  H156     1.0000 0.13133  0.97468  0.51647  Biso   1.000  H
  C147     1.0000 0.19592  0.95849  0.64607  Biso   1.000  C
  H157     1.0000 0.13133  0.97476  0.51647  Biso   1.000  H
  N94      1.0000 0.17609  0.86266  0.69841  Biso   1.000  N
  O58      1.0000 0.07076  0.73630  0.70392  Biso   1.000  O
  N95      1.0000 0.17609  0.86274  0.69841  Biso   1.000  N
  O59      1.0000 0.07076  0.73638  0.70392  Biso   1.000  O
  C148     1.0000 0.82819  0.90048  0.09594  Biso   1.000  C
  C149     1.0000 0.82819  0.90056  0.09594  Biso   1.000  C
  C150     1.0000 0.82939  0.19487  0.92409  Biso   1.000  C
  C151     1.0000 0.82939  0.19495  0.92409  Biso   1.000  C
  H158     1.0000 0.71657  0.07123  0.04790  Biso   1.000  H
  N96      1.0000 0.82731  0.13542  0.00444  Biso   1.000  N
  H159     1.0000 0.71663  0.07123  0.04790  Biso   1.000  H
  C152     1.0000 0.13611  0.12620  0.67908  Biso   1.000  C
  H160     1.0000 0.24660  0.94912  0.60762  Biso   1.000  H
  N97      1.0000 0.19951  0.05697  0.70060  Biso   1.000  N
  N98      1.0000 0.19951  0.05705  0.70060  Biso   1.000  N
  C153     1.0000 0.23288  0.81122  0.76451  Biso   1.000  C
  C154     1.0000 0.23294  0.81122  0.76451  Biso   1.000  C
  H161     1.0000 0.81938  0.82356  0.09531  Biso   1.000  H
  H162     1.0000 0.79948  0.92893  0.15097  Biso   1.000  H
  N99      1.0000 0.91740  0.92139  0.10533  Biso   1.000  N
  H163     1.0000 0.81938  0.82364  0.09531  Biso   1.000  H
  O60      1.0000 0.87107  0.27524  0.91041  Biso   1.000  O
  C155     1.0000 0.86911  0.16987  0.09009  Biso   1.000  C
  C156     1.0000 0.86911  0.16995  0.09009  Biso   1.000  C
  O61      1.0000 0.12585  0.21474  0.71217  Biso   1.000  O
  C157     1.0000 0.26498  0.08213  0.76741  Biso   1.000  C
  H164     1.0000 0.22198  0.73470  0.76409  Biso   1.000  H
  H165     1.0000 0.29029  0.82204  0.74321  Biso   1.000  H
  N100     1.0000 0.22545  0.85016  0.86039  Biso   1.000  N
  N101     1.0000 0.22545  0.85024  0.86039  Biso   1.000  N
  C158     1.0000 0.97664  0.84599  0.08346  Biso   1.000  C
  C159     1.0000 0.95259  0.01210  0.15626  Biso   1.000  C
  H166     1.0000 0.88082  0.24607  0.08564  Biso   1.000  H
  H167     1.0000 0.83153  0.15897  0.14307  Biso   1.000  H
  N102     1.0000 0.94705  0.11362  0.10787  Biso   1.000  N
  H168     1.0000 0.88082  0.24615  0.08564  Biso   1.000  H
  H169     1.0000 0.83153  0.15905  0.14307  Biso   1.000  H
  H170     1.0000 0.27273  0.15921  0.76910  Biso   1.000  H
  H171     1.0000 0.31743  0.05048  0.74575  Biso   1.000  H
  N103     1.0000 0.24767  0.04439  0.86215  Biso   1.000  N
  H172     1.0000 0.31743  0.05056  0.74575  Biso   1.000  H
  C160     1.0000 0.17061  0.80513  0.92409  Biso   1.000  C
  C161     1.0000 0.27103  0.93982  0.89877  Biso   1.000  C
  O62      1.0000 0.96292  0.75873  0.04832  Biso   1.000  O
  O63      1.0000 0.96298  0.75873  0.04832  Biso   1.000  O
  N104     1.0000 0.05295  0.88638  0.10787  Biso   1.000  N
  N105     1.0000 0.05295  0.88646  0.10787  Biso   1.000  N
  H173     1.0000 0.93012  0.01667  0.22060  Biso   1.000  H
  H174     1.0000 0.93012  0.01675  0.22060  Biso   1.000  H
  C162     1.0000 0.04741  0.98790  0.15626  Biso   1.000  C
  C163     1.0000 0.02336  0.15401  0.08346  Biso   1.000  C
  C164     1.0000 0.21563  0.11130  0.93037  Biso   1.000  C
  O64      1.0000 0.12893  0.72476  0.91041  Biso   1.000  O
  O65      1.0000 0.12893  0.72484  0.91041  Biso   1.000  O
  N106     1.0000 0.17269  0.86458  0.00444  Biso   1.000  N
  H175     1.0000 0.33203  0.92829  0.89608  Biso   1.000  H
  C165     1.0000 0.23854  0.94527  0.00268  Biso   1.000  C
  C166     1.0000 0.23854  0.94535  0.00268  Biso   1.000  C
  C167     1.0000 0.13089  0.83013  0.09009  Biso   1.000  C
  H176     1.0000 0.06988  0.98333  0.22060  Biso   1.000  H
  N107     1.0000 0.08260  0.07861  0.10533  Biso   1.000  N
  O66      1.0000 0.03708  0.24127  0.04832  Biso   1.000  O
  O67      1.0000 0.19749  0.20473  0.91986  Biso   1.000  O
  O68      1.0000 0.19756  0.20473  0.91986  Biso   1.000  O
  N108     1.0000 0.20958  0.05401  0.01256  Biso   1.000  N
  H177     1.0000 0.28343  0.92877  0.04790  Biso   1.000  H
  H178     1.0000 0.28343  0.92885  0.04790  Biso   1.000  H
  H179     1.0000 0.11918  0.75393  0.08564  Biso   1.000  H
  H180     1.0000 0.16847  0.84103  0.14307  Biso   1.000  H
  H181     1.0000 0.16853  0.84103  0.14307  Biso   1.000  H
  C168     1.0000 0.17181  0.09952  0.09594  Biso   1.000  C
  H182     1.0000 0.18062  0.17644  0.09531  Biso   1.000  H
  H183     1.0000 0.20052  0.07107  0.15097  Biso   1.000  H
  H184     1.0000 0.20052  0.07115  0.15097  Biso   1.000  H
  C169     1.0000 0.69592  0.54151  0.35386  Biso   1.000  C
  C170     1.0000 0.61672  0.52500  0.41630  Biso   1.000  C
  N109     1.0000 0.69951  0.44303  0.29940  Biso   1.000  N
  N110     1.0000 0.67609  0.63734  0.30159  Biso   1.000  N
  H185     1.0000 0.74660  0.55088  0.39238  Biso   1.000  H
  N111     1.0000 0.58562  0.42147  0.38702  Biso   1.000  N
  N112     1.0000 0.56440  0.61538  0.39224  Biso   1.000  N
  H186     1.0000 0.63133  0.52532  0.48346  Biso   1.000  H
  C171     1.0000 0.63611  0.37380  0.32092  Biso   1.000  C
  C172     1.0000 0.76498  0.41795  0.23259  Biso   1.000  C
  C173     1.0000 0.60042  0.68085  0.32628  Biso   1.000  C
  C174     1.0000 0.73288  0.68878  0.23549  Biso   1.000  C
  C175     1.0000 0.51813  0.36418  0.43252  Biso   1.000  C
  C176     1.0000 0.48193  0.63582  0.43252  Biso   1.000  C
  O69      1.0000 0.62585  0.28534  0.28783  Biso   1.000  O
  H187     1.0000 0.77273  0.34079  0.23090  Biso   1.000  H
  H188     1.0000 0.81743  0.44952  0.25418  Biso   1.000  H
  N113     1.0000 0.74767  0.45561  0.13778  Biso   1.000  N
  O70      1.0000 0.57076  0.76370  0.29608  Biso   1.000  O
  H189     1.0000 0.72198  0.76530  0.23591  Biso   1.000  H
  H190     1.0000 0.79029  0.67804  0.25679  Biso   1.000  H
  N114     1.0000 0.72545  0.64984  0.13961  Biso   1.000  N
  N115     1.0000 0.43560  0.38462  0.39224  Biso   1.000  N
  H191     1.0000 0.51712  0.38373  0.49869  Biso   1.000  H
  H192     1.0000 0.52972  0.28798  0.42871  Biso   1.000  H
  N116     1.0000 0.41438  0.57853  0.38702  Biso   1.000  N
  H193     1.0000 0.48288  0.61635  0.49869  Biso   1.000  H
  H194     1.0000 0.47028  0.71202  0.42871  Biso   1.000  H
  C177     1.0000 0.71563  0.38870  0.06963  Biso   1.000  C
  C178     1.0000 0.77103  0.56018  0.10116  Biso   1.000  C
  C179     1.0000 0.67061  0.69495  0.07591  Biso   1.000  C
  C180     1.0000 0.39958  0.31923  0.32628  Biso   1.000  C
  C181     1.0000 0.38328  0.47500  0.41630  Biso   1.000  C
  C182     1.0000 0.36389  0.62620  0.32092  Biso   1.000  C
  N117     1.0000 0.70958  0.44599  0.98737  Biso   1.000  N
  O71      1.0000 0.69749  0.29527  0.08014  Biso   1.000  O
  C183     1.0000 0.73854  0.55473  0.99732  Biso   1.000  C
  H195     1.0000 0.83203  0.57171  0.10392  Biso   1.000  H
  N118     1.0000 0.67269  0.63542  0.99549  Biso   1.000  N
  O72      1.0000 0.62893  0.77524  0.08959  Biso   1.000  O
  N119     1.0000 0.32391  0.36274  0.30159  Biso   1.000  N
  O73      1.0000 0.42924  0.23638  0.29608  Biso   1.000  O
  C184     1.0000 0.30408  0.45849  0.35386  Biso   1.000  C
  H196     1.0000 0.36867  0.47468  0.48346  Biso   1.000  H
  N120     1.0000 0.30049  0.55705  0.29940  Biso   1.000  N
  O74      1.0000 0.37421  0.71474  0.28783  Biso   1.000  O
  C185     1.0000 0.67181  0.40048  0.90399  Biso   1.000  C
  H197     1.0000 0.78343  0.57123  0.95210  Biso   1.000  H
  C186     1.0000 0.63089  0.66995  0.90991  Biso   1.000  C
  C187     1.0000 0.26712  0.31122  0.23549  Biso   1.000  C
  H198     1.0000 0.25340  0.44912  0.39238  Biso   1.000  H
  C188     1.0000 0.23502  0.58213  0.23259  Biso   1.000  C
  N121     1.0000 0.58260  0.42139  0.89467  Biso   1.000  N
  H199     1.0000 0.68062  0.32364  0.90469  Biso   1.000  H
  H200     1.0000 0.70052  0.42893  0.84903  Biso   1.000  H
  N122     1.0000 0.55295  0.61362  0.89213  Biso   1.000  N
  H201     1.0000 0.61918  0.74615  0.91429  Biso   1.000  H
  H202     1.0000 0.66853  0.65905  0.85693  Biso   1.000  H
  H203     1.0000 0.27802  0.23470  0.23591  Biso   1.000  H
  H204     1.0000 0.20971  0.32204  0.25679  Biso   1.000  H
  N123     1.0000 0.27455  0.35024  0.13961  Biso   1.000  N
  N124     1.0000 0.25233  0.54439  0.13778  Biso   1.000  N
  H205     1.0000 0.22727  0.65921  0.23090  Biso   1.000  H
  H206     1.0000 0.18257  0.55048  0.25418  Biso   1.000  H
  C189     1.0000 0.52336  0.34599  0.91647  Biso   1.000  C
  C190     1.0000 0.54741  0.51210  0.84367  Biso   1.000  C
  C191     1.0000 0.47664  0.65401  0.91647  Biso   1.000  C
  C192     1.0000 0.32939  0.30513  0.07591  Biso   1.000  C
  C193     1.0000 0.22897  0.43982  0.10116  Biso   1.000  C
  C194     1.0000 0.28437  0.61130  0.06963  Biso   1.000  C
  N125     1.0000 0.44705  0.38638  0.89213  Biso   1.000  N
  O75      1.0000 0.53708  0.25873  0.95160  Biso   1.000  O
  C195     1.0000 0.45259  0.48790  0.84367  Biso   1.000  C
  H207     1.0000 0.56988  0.51675  0.77940  Biso   1.000  H
  N126     1.0000 0.41740  0.57861  0.89467  Biso   1.000  N
  O76      1.0000 0.46298  0.74127  0.95160  Biso   1.000  O
  O77      1.0000 0.37107  0.22484  0.08959  Biso   1.000  O
  N127     1.0000 0.32731  0.36458  0.99549  Biso   1.000  N
  H208     1.0000 0.16803  0.42829  0.10392  Biso   1.000  H
  C196     1.0000 0.26146  0.44527  0.99732  Biso   1.000  C
  N128     1.0000 0.29042  0.55401  0.98737  Biso   1.000  N
  O78      1.0000 0.30251  0.70473  0.08014  Biso   1.000  O
  C197     1.0000 0.36911  0.33013  0.90991  Biso   1.000  C
  H209     1.0000 0.43012  0.48333  0.77940  Biso   1.000  H
  C198     1.0000 0.32819  0.59952  0.90399  Biso   1.000  C
  H210     1.0000 0.21657  0.42885  0.95210  Biso   1.000  H
  H211     1.0000 0.38082  0.25393  0.91429  Biso   1.000  H
  H212     1.0000 0.33153  0.34103  0.85693  Biso   1.000  H
  H213     1.0000 0.31938  0.67644  0.90469  Biso   1.000  H
  H214     1.0000 0.29948  0.57107  0.84903  Biso   1.000  H
