data_image0
_cell_length_a       15.367
_cell_length_b       15.633
_cell_length_c       15.7
_cell_angle_alpha    67.76
_cell_angle_beta     67.43
_cell_angle_gamma    73.05

_symmetry_space_group_name_H-M    "P 1"
_symmetry_int_tables_number       1

loop_
  _symmetry_equiv_pos_as_xyz
  'x, y, z'

loop_
  _atom_site_label
  _atom_site_occupancy
  _atom_site_fract_x
  _atom_site_fract_y
  _atom_site_fract_z
  _atom_site_thermal_displace_type
  _atom_site_B_iso_or_equiv
  _atom_site_type_symbol
  C1       1.0000 0.64938  0.33012  0.27754  Biso   1.000  C
  C2       1.0000 0.57939  0.28578  0.28579  Biso   1.000  C
  C3       1.0000 0.65571  0.42265  0.21980  Biso   1.000  C
  H1       1.0000 0.69331  0.29739  0.31125  Biso   1.000  H
  C4       1.0000 0.51331  0.33163  0.23558  Biso   1.000  C
  O1       1.0000 0.57335  0.19446  0.34352  Biso   1.000  O
  C5       1.0000 0.58938  0.46889  0.16894  Biso   1.000  C
  C6       1.0000 0.73563  0.46766  0.20881  Biso   1.000  C
  C7       1.0000 0.43971  0.28217  0.23963  Biso   1.000  C
  C8       1.0000 0.52010  0.42362  0.17740  Biso   1.000  C
  H2       1.0000 0.61105  0.17673  0.37463  Biso   1.000  H
  O2       1.0000 0.58971  0.56053  0.10990  Biso   1.000  O
  C9       1.0000 0.82260  0.45096  0.12510  Biso   1.000  C
  H3       1.0000 0.75289  0.44190  0.26806  Biso   1.000  H
  H4       1.0000 0.71375  0.53461  0.19802  Biso   1.000  H
  H5       1.0000 0.41781  0.24040  0.30467  Biso   1.000  H
  H6       1.0000 0.38500  0.32855  0.22624  Biso   1.000  H
  C10      1.0000 0.47710  0.22619  0.16901  Biso   1.000  C
  H7       1.0000 0.47658  0.45572  0.14311  Biso   1.000  H
  H8       1.0000 0.64498  0.56997  0.08313  Biso   1.000  H
  C11      1.0000 0.89094  0.37126  0.14036  Biso   1.000  C
  C12      1.0000 0.83470  0.51107  0.03118  Biso   1.000  C
  C13      1.0000 0.51273  0.13039  0.19477  Biso   1.000  C
  C14      1.0000 0.47971  0.27109  0.07250  Biso   1.000  C
  C15      1.0000 0.96869  0.35114  0.06468  Biso   1.000  C
  H9       1.0000 0.88442  0.33055  0.20273  Biso   1.000  H
  O3       1.0000 0.76661  0.59190  0.01939  Biso   1.000  O
  C16      1.0000 0.91051  0.48996  0.95572  Biso   1.000  C
  O4       1.0000 0.51614  0.07915  0.28738  Biso   1.000  O
  C17      1.0000 0.54581  0.08110  0.12828  Biso   1.000  C
  C18      1.0000 0.51423  0.22243  0.00499  Biso   1.000  C
  H10      1.0000 0.45762  0.33529  0.05303  Biso   1.000  H
  C19      1.0000 0.97960  0.40893  0.97026  Biso   1.000  C
  O5       1.0000 0.03782  0.27303  0.08139  Biso   1.000  O
  H11      1.0000 0.77609  0.61971  0.96158  Biso   1.000  H
  H12      1.0000 0.91618  0.53047  0.89335  Biso   1.000  H
  H13      1.0000 0.52991  0.11097  0.31002  Biso   1.000  H
  H14      1.0000 0.56715  0.01672  0.14810  Biso   1.000  H
  C20      1.0000 0.54782  0.12593  0.03198  Biso   1.000  C
  O6       1.0000 0.51629  0.26543  0.91014  Biso   1.000  O
  C21      1.0000 0.06208  0.38614  0.88634  Biso   1.000  C
  H15      1.0000 0.03108  0.25162  0.13949  Biso   1.000  H
  C22      1.0000 0.58893  0.07361  0.95710  Biso   1.000  C
  H16      1.0000 0.48725  0.31943  0.90385  Biso   1.000  H
  C23      1.0000 0.04308  0.31949  0.84879  Biso   1.000  C
  H17      1.0000 0.11895  0.35819  0.90667  Biso   1.000  H
  H18      1.0000 0.07463  0.44376  0.83432  Biso   1.000  H
  H19      1.0000 0.58702  0.00732  0.98936  Biso   1.000  H
  H20      1.0000 0.54988  0.09635  0.91434  Biso   1.000  H
  C24      1.0000 0.69126  0.08653  0.89762  Biso   1.000  C
  C25      1.0000 0.99736  0.35490  0.77781  Biso   1.000  C
  C26      1.0000 0.06790  0.22256  0.88272  Biso   1.000  C
  C27      1.0000 0.76618  0.03454  0.93474  Biso   1.000  C
  C28      1.0000 0.71260  0.15137  0.80559  Biso   1.000  C
  C29      1.0000 0.97866  0.29745  0.74084  Biso   1.000  C
  H21      1.0000 0.97887  0.41944  0.75473  Biso   1.000  H
  C30      1.0000 0.04961  0.16495  0.84582  Biso   1.000  C
  O7       1.0000 0.11456  0.18039  0.95210  Biso   1.000  O
  O8       1.0000 0.74449  0.96865  0.02395  Biso   1.000  O
  C31      1.0000 0.85882  0.05054  0.88236  Biso   1.000  C
  C32      1.0000 0.80638  0.16598  0.75270  Biso   1.000  C
  H22      1.0000 0.66357  0.18549  0.77904  Biso   1.000  H
  C33      1.0000 0.00521  0.20072  0.77383  Biso   1.000  C
  O9       1.0000 0.93535  0.34134  0.66921  Biso   1.000  O
  H23      1.0000 0.06733  0.10036  0.86955  Biso   1.000  H
  H24      1.0000 0.09158  0.20736  0.99363  Biso   1.000  H
  H25      1.0000 0.79290  0.93052  0.03039  Biso   1.000  H
  H26      1.0000 0.90787  0.01604  0.90884  Biso   1.000  H
  C34      1.0000 0.88074  0.11634  0.79163  Biso   1.000  C
  O10      1.0000 0.82834  0.22991  0.66198  Biso   1.000  O
  C35      1.0000 0.98224  0.13471  0.73845  Biso   1.000  C
  H27      1.0000 0.90568  0.30560  0.66885  Biso   1.000  H
  H28      1.0000 0.77888  0.26202  0.65098  Biso   1.000  H
  H29      1.0000 0.99056  0.16186  0.66964  Biso   1.000  H
  H30      1.0000 0.02646  0.07579  0.74807  Biso   1.000  H
  C36      1.0000 0.41070  0.53093  0.83110  Biso   1.000  C
  C37      1.0000 0.34435  0.57724  0.78023  Biso   1.000  C
  O11      1.0000 0.41043  0.43938  0.89006  Biso   1.000  O
  C38      1.0000 0.48002  0.57627  0.82263  Biso   1.000  C
  C39      1.0000 0.26445  0.53225  0.79116  Biso   1.000  C
  C40      1.0000 0.35067  0.66977  0.72250  Biso   1.000  C
  H31      1.0000 0.35510  0.42994  0.91683  Biso   1.000  H
  H32      1.0000 0.52347  0.54417  0.85693  Biso   1.000  H
  C41      1.0000 0.48683  0.66828  0.76439  Biso   1.000  C
  C42      1.0000 0.17752  0.54893  0.87494  Biso   1.000  C
  H33      1.0000 0.24716  0.55799  0.73198  Biso   1.000  H
  H34      1.0000 0.28630  0.46528  0.80201  Biso   1.000  H
  C43      1.0000 0.42073  0.71411  0.71425  Biso   1.000  C
  H35      1.0000 0.30683  0.70244  0.68878  Biso   1.000  H
  C44      1.0000 0.56043  0.71775  0.76034  Biso   1.000  C
  C45      1.0000 0.10918  0.62863  0.85968  Biso   1.000  C
  C46      1.0000 0.16538  0.48884  0.96878  Biso   1.000  C
  O12      1.0000 0.42677  0.80543  0.65651  Biso   1.000  O
  H36      1.0000 0.58231  0.75949  0.69537  Biso   1.000  H
  H37      1.0000 0.61507  0.67137  0.77372  Biso   1.000  H
  C47      1.0000 0.52297  0.77372  0.83095  Biso   1.000  C
  C48      1.0000 0.03145  0.64877  0.93528  Biso   1.000  C
  H38      1.0000 0.11570  0.66935  0.79731  Biso   1.000  H
  O13      1.0000 0.23351  0.40800  0.98065  Biso   1.000  O
  C49      1.0000 0.08954  0.50994  0.04432  Biso   1.000  C
  H39      1.0000 0.38909  0.82319  0.62533  Biso   1.000  H
  C50      1.0000 0.48743  0.86946  0.80520  Biso   1.000  C
  C51      1.0000 0.52043  0.72874  0.92754  Biso   1.000  C
  O14      1.0000 0.96223  0.72686  0.91864  Biso   1.000  O
  C52      1.0000 0.02046  0.59096  0.02977  Biso   1.000  C
  H40      1.0000 0.22406  0.38020  0.03838  Biso   1.000  H
  H41      1.0000 0.08387  0.46942  0.10668  Biso   1.000  H
  O15      1.0000 0.48400  0.92077  0.71259  Biso   1.000  O
  C53      1.0000 0.45433  0.91882  0.87169  Biso   1.000  C
  C54      1.0000 0.48582  0.77746  0.99504  Biso   1.000  C
  H42      1.0000 0.54252  0.66453  0.94700  Biso   1.000  H
  H43      1.0000 0.96906  0.74830  0.86047  Biso   1.000  H
  C55      1.0000 0.93799  0.61377  0.11363  Biso   1.000  C
  H44      1.0000 0.47017  0.88885  0.69001  Biso   1.000  H
  H45      1.0000 0.43299  0.98311  0.85193  Biso   1.000  H
  C56      1.0000 0.45232  0.87399  0.96799  Biso   1.000  C
  O16      1.0000 0.48377  0.73446  0.08990  Biso   1.000  O
  C57      1.0000 0.95703  0.68040  0.15125  Biso   1.000  C
  H46      1.0000 0.88121  0.64165  0.09330  Biso   1.000  H
  H47      1.0000 0.92550  0.55606  0.16572  Biso   1.000  H
  C58      1.0000 0.41113  0.92628  0.04294  Biso   1.000  C
  H48      1.0000 0.51289  0.68048  0.09612  Biso   1.000  H
  C59      1.0000 0.93222  0.77733  0.11732  Biso   1.000  C
  C60      1.0000 0.00278  0.64492  0.22223  Biso   1.000  C
  H49      1.0000 0.41310  0.99257  0.01067  Biso   1.000  H
  H50      1.0000 0.45026  0.90356  0.08563  Biso   1.000  H
  C61      1.0000 0.30890  0.91332  0.10234  Biso   1.000  C
  O17      1.0000 0.88551  0.81943  0.04793  Biso   1.000  O
  C62      1.0000 0.95051  0.83494  0.15422  Biso   1.000  C
  C63      1.0000 0.02140  0.70245  0.25920  Biso   1.000  C
  H51      1.0000 0.02127  0.58039  0.24531  Biso   1.000  H
  C64      1.0000 0.23397  0.96537  0.06523  Biso   1.000  C
  C65      1.0000 0.28749  0.84847  0.19437  Biso   1.000  C
  H52      1.0000 0.90850  0.79255  0.00633  Biso   1.000  H
  C66      1.0000 0.99491  0.79917  0.22621  Biso   1.000  C
  H53      1.0000 0.93279  0.89953  0.13049  Biso   1.000  H
  O18      1.0000 0.06470  0.65855  0.33083  Biso   1.000  O
  C67      1.0000 0.14123  0.94935  0.11768  Biso   1.000  C
  O19      1.0000 0.25563  0.03124  0.97609  Biso   1.000  O
  C68      1.0000 0.19369  0.83393  0.24726  Biso   1.000  C
  H54      1.0000 0.33655  0.81440  0.22100  Biso   1.000  H
  C69      1.0000 0.01781  0.86518  0.26159  Biso   1.000  C
  H55      1.0000 0.09439  0.69431  0.33112  Biso   1.000  H
  C70      1.0000 0.11940  0.88357  0.20834  Biso   1.000  C
  H56      1.0000 0.09219  0.98385  0.09120  Biso   1.000  H
  H57      1.0000 0.20722  0.06937  0.96965  Biso   1.000  H
  O20      1.0000 0.17172  0.76998  0.33806  Biso   1.000  O
  H58      1.0000 0.97366  0.92410  0.25196  Biso   1.000  H
  H59      1.0000 0.00958  0.83805  0.33032  Biso   1.000  H
  H60      1.0000 0.22124  0.73787  0.34906  Biso   1.000  H
