data_image0
_cell_length_a       12.092
_cell_length_b       21.385
_cell_length_c       26.051
_cell_angle_alpha    90
_cell_angle_beta     92.82
_cell_angle_gamma    90

_symmetry_space_group_name_H-M    "P 1"
_symmetry_int_tables_number       1

loop_
  _symmetry_equiv_pos_as_xyz
  'x, y, z'

loop_
  _atom_site_label
  _atom_site_occupancy
  _atom_site_fract_x
  _atom_site_fract_y
  _atom_site_fract_z
  _atom_site_thermal_displace_type
  _atom_site_B_iso_or_equiv
  _atom_site_type_symbol
  C1       1.0000 0.42803  0.53561  0.47030  Biso   1.000  C
  C2       1.0000 0.48171  0.47388  0.45631  Biso   1.000  C
  C3       1.0000 0.31224  0.52462  0.48890  Biso   1.000  C
  H1       1.0000 0.42382  0.56339  0.43990  Biso   1.000  H
  H2       1.0000 0.47402  0.55651  0.49770  Biso   1.000  H
  C4       1.0000 0.54901  0.44138  0.48971  Biso   1.000  C
  C5       1.0000 0.45565  0.44989  0.40781  Biso   1.000  C
  C6       1.0000 0.29793  0.49698  0.53648  Biso   1.000  C
  C7       1.0000 0.22373  0.53771  0.45900  Biso   1.000  C
  C8       1.0000 0.59165  0.38289  0.47611  Biso   1.000  C
  O1       1.0000 0.57372  0.46752  0.53710  Biso   1.000  O
  C9       1.0000 0.49586  0.39041  0.39321  Biso   1.000  C
  H3       1.0000 0.41038  0.47342  0.38410  Biso   1.000  H
  C10      1.0000 0.19187  0.48801  0.55558  Biso   1.000  C
  H4       1.0000 0.36127  0.48389  0.55670  Biso   1.000  H
  O2       1.0000 0.23932  0.56409  0.41112  Biso   1.000  O
  C11      1.0000 0.11755  0.52542  0.47468  Biso   1.000  C
  C12      1.0000 0.56345  0.35689  0.42699  Biso   1.000  C
  H5       1.0000 0.63932  0.36072  0.49982  Biso   1.000  H
  C13      1.0000 0.64533  0.43362  0.57138  Biso   1.000  C
  O3       1.0000 0.47193  0.36320  0.34689  Biso   1.000  O
  O4       1.0000 0.17708  0.46173  0.60178  Biso   1.000  O
  C14      1.0000 0.10032  0.49970  0.52361  Biso   1.000  C
  C15      1.0000 0.15014  0.57489  0.37799  Biso   1.000  C
  H6       1.0000 0.05544  0.53449  0.45208  Biso   1.000  H
  C16      1.0000 0.60045  0.29292  0.41481  Biso   1.000  C
  H7       1.0000 0.72147  0.43680  0.56020  Biso   1.000  H
  H8       1.0000 0.62276  0.38962  0.57150  Biso   1.000  H
  H9       1.0000 0.64164  0.45102  0.60601  Biso   1.000  H
  C17      1.0000 0.38596  0.39313  0.31369  Biso   1.000  C
  C18      1.0000 0.26657  0.43040  0.62911  Biso   1.000  C
  C19      1.0000 0.98812  0.48899  0.54179  Biso   1.000  C
  H10      1.0000 0.17285  0.57143  0.34259  Biso   1.000  H
  H11      1.0000 0.12148  0.61711  0.38379  Biso   1.000  H
  H12      1.0000 0.09222  0.54412  0.38398  Biso   1.000  H
  C20      1.0000 0.51380  0.24302  0.42749  Biso   1.000  C
  H13      1.0000 0.67060  0.28398  0.43448  Biso   1.000  H
  H14      1.0000 0.61480  0.29048  0.37772  Biso   1.000  H
  H15      1.0000 0.36553  0.36549  0.28479  Biso   1.000  H
  H16      1.0000 0.41403  0.43269  0.30070  Biso   1.000  H
  H17      1.0000 0.32067  0.40122  0.33360  Biso   1.000  H
  H18      1.0000 0.29739  0.39850  0.60701  Biso   1.000  H
  H19      1.0000 0.23941  0.41061  0.66001  Biso   1.000  H
  H20      1.0000 0.32436  0.46088  0.63910  Biso   1.000  H
  C21      1.0000 0.95249  0.41983  0.53879  Biso   1.000  C
  H21      1.0000 0.93454  0.51452  0.52080  Biso   1.000  H
  H22      1.0000 0.98590  0.50339  0.57780  Biso   1.000  H
  C22      1.0000 0.43473  0.22338  0.39151  Biso   1.000  C
  C23      1.0000 0.50879  0.21889  0.47691  Biso   1.000  C
  C24      1.0000 0.96059  0.38260  0.58322  Biso   1.000  C
  C25      1.0000 0.91342  0.39430  0.49321  Biso   1.000  C
  C26      1.0000 0.35692  0.17760  0.40251  Biso   1.000  C
  H23      1.0000 0.43285  0.24138  0.35812  Biso   1.000  H
  C27      1.0000 0.43199  0.17391  0.48810  Biso   1.000  C
  O5       1.0000 0.58942  0.24232  0.51200  Biso   1.000  O
  C28      1.0000 0.92835  0.31980  0.58180  Biso   1.000  C
  H24      1.0000 0.98824  0.40033  0.61469  Biso   1.000  H
  C29      1.0000 0.88334  0.33061  0.49102  Biso   1.000  C
  O6       1.0000 0.90462  0.43311  0.45151  Biso   1.000  O
  O7       1.0000 0.27747  0.15651  0.36530  Biso   1.000  O
  C30      1.0000 0.35346  0.15221  0.45101  Biso   1.000  C
  H25      1.0000 0.43226  0.15721  0.52192  Biso   1.000  H
  C31      1.0000 0.58281  0.22291  0.56439  Biso   1.000  C
  C32      1.0000 0.89376  0.29268  0.53548  Biso   1.000  C
  O8       1.0000 0.93687  0.28001  0.62311  Biso   1.000  O
  H26      1.0000 0.85592  0.31302  0.45939  Biso   1.000  H
  C33      1.0000 0.86885  0.40659  0.40189  Biso   1.000  C
  C34      1.0000 0.21865  0.20669  0.33859  Biso   1.000  C
  C35      1.0000 0.26807  0.10362  0.46381  Biso   1.000  C
  H27      1.0000 0.58416  0.17709  0.56619  Biso   1.000  H
  H28      1.0000 0.51388  0.23839  0.57799  Biso   1.000  H
  H29      1.0000 0.64618  0.23979  0.58491  Biso   1.000  H
  C36      1.0000 0.86550  0.22408  0.53030  Biso   1.000  C
  C37      1.0000 0.97369  0.30152  0.67011  Biso   1.000  C
  H30      1.0000 0.86518  0.43979  0.37591  Biso   1.000  H
  H31      1.0000 0.79542  0.38770  0.40431  Biso   1.000  H
  H32      1.0000 0.92172  0.37461  0.39201  Biso   1.000  H
  H33      1.0000 0.16431  0.18901  0.31350  Biso   1.000  H
  H34      1.0000 0.27135  0.23269  0.32080  Biso   1.000  H
  H35      1.0000 0.18043  0.23231  0.36338  Biso   1.000  H
  H36      1.0000 0.24957  0.07819  0.43291  Biso   1.000  H
  H37      1.0000 0.30028  0.07538  0.49071  Biso   1.000  H
  C38      1.0000 0.16524  0.13168  0.48222  Biso   1.000  C
  C39      1.0000 0.96517  0.18812  0.51169  Biso   1.000  C
  H38      1.0000 0.80144  0.21870  0.50558  Biso   1.000  H
  H39      1.0000 0.84476  0.20739  0.56400  Biso   1.000  H
  H40      1.0000 0.04990  0.31672  0.66819  Biso   1.000  H
  H41      1.0000 0.97189  0.26752  0.69529  Biso   1.000  H
  H42      1.0000 0.92601  0.33580  0.68061  Biso   1.000  H
  C40      1.0000 0.14789  0.14580  0.53472  Biso   1.000  C
  C41      1.0000 0.07701  0.14538  0.44728  Biso   1.000  C
  C42      1.0000 0.05029  0.17512  0.54778  Biso   1.000  C
  C43      1.0000 0.97878  0.17208  0.46069  Biso   1.000  C
  C44      1.0000 0.22897  0.12761  0.57791  Biso   1.000  C
  H43      1.0000 0.08544  0.13570  0.41211  Biso   1.000  H
  H44      1.0000 0.04166  0.18649  0.58260  Biso   1.000  H
  C45      1.0000 0.88972  0.17849  0.42011  Biso   1.000  C
  C46      1.0000 0.25458  0.06509  0.58779  Biso   1.000  C
  C47      1.0000 0.27449  0.17222  0.61100  Biso   1.000  C
  C48      1.0000 0.78608  0.14931  0.42311  Biso   1.000  C
  C49      1.0000 0.90917  0.21132  0.37430  Biso   1.000  C
  H45      1.0000 0.23084  0.03400  0.56362  Biso   1.000  H
  C50      1.0000 0.31305  0.04760  0.63149  Biso   1.000  C
  C51      1.0000 0.33654  0.15441  0.65420  Biso   1.000  C
  H46      1.0000 0.26266  0.21529  0.60401  Biso   1.000  H
  H47      1.0000 0.76908  0.12831  0.45389  Biso   1.000  H
  C52      1.0000 0.70955  0.15039  0.38298  Biso   1.000  C
  C53      1.0000 0.83087  0.21178  0.33460  Biso   1.000  C
  H48      1.0000 0.97705  0.23301  0.37099  Biso   1.000  H
  H49      1.0000 0.32505  0.00449  0.63860  Biso   1.000  H
  C54      1.0000 0.35500  0.09212  0.66531  Biso   1.000  C
  H50      1.0000 0.36737  0.18550  0.67661  Biso   1.000  H
  H51      1.0000 0.64112  0.12939  0.38652  Biso   1.000  H
  C55      1.0000 0.72814  0.18139  0.33679  Biso   1.000  C
  H52      1.0000 0.84657  0.23381  0.30412  Biso   1.000  H
  C56      1.0000 0.41604  0.07608  0.71531  Biso   1.000  C
  C57      1.0000 0.64833  0.18490  0.29382  Biso   1.000  C
  O9       1.0000 0.50907  0.09792  0.72692  Biso   1.000  O
  N1       1.0000 0.36630  0.03339  0.74610  Biso   1.000  N
  O10      1.0000 0.63247  0.23460  0.27061  Biso   1.000  O
  N2       1.0000 0.58900  0.13271  0.27871  Biso   1.000  N
  C58      1.0000 0.25082  0.01272  0.74348  Biso   1.000  C
  C59      1.0000 0.41432  0.02160  0.79971  Biso   1.000  C
  C60      1.0000 0.62360  0.06958  0.29459  Biso   1.000  C
  C61      1.0000 0.50812  0.13191  0.23421  Biso   1.000  C
  H53      1.0000 0.20498  0.04040  0.72061  Biso   1.000  H
  C62      1.0000 0.21346  0.01599  0.79748  Biso   1.000  C
  H54      1.0000 0.24479  0.96942  0.73030  Biso   1.000  H
  H55      1.0000 0.43935  0.06201  0.81581  Biso   1.000  H
  C63      1.0000 0.31942  0.99528  0.82819  Biso   1.000  C
  C64      1.0000 0.51181  0.97480  0.80040  Biso   1.000  C
  H56      1.0000 0.57795  0.05270  0.32191  Biso   1.000  H
  H57      1.0000 0.70295  0.06780  0.30589  Biso   1.000  H
  C65      1.0000 0.60030  0.03722  0.24332  Biso   1.000  C
  C66      1.0000 0.49417  0.06369  0.22041  Biso   1.000  C
  H58      1.0000 0.53974  0.15469  0.20481  Biso   1.000  H
  C67      1.0000 0.40356  0.16362  0.24881  Biso   1.000  C
  H59      1.0000 0.19161  0.05911  0.80670  Biso   1.000  H
  H60      1.0000 0.15117  0.98709  0.80278  Biso   1.000  H
  H61      1.0000 0.32029  0.01202  0.86370  Biso   1.000  H
  H62      1.0000 0.32389  0.94922  0.82980  Biso   1.000  H
  O11      1.0000 0.60780  0.00019  0.77830  Biso   1.000  O
  H63      1.0000 0.53100  0.96231  0.83630  Biso   1.000  H
  H64      1.0000 0.48827  0.93668  0.78111  Biso   1.000  H
  H65      1.0000 0.59307  0.99149  0.24839  Biso   1.000  H
  H66      1.0000 0.66153  0.04480  0.22018  Biso   1.000  H
  H67      1.0000 0.42886  0.04531  0.23621  Biso   1.000  H
  H68      1.0000 0.48753  0.05752  0.18271  Biso   1.000  H
  O12      1.0000 0.32381  0.16109  0.20711  Biso   1.000  O
  H69      1.0000 0.37427  0.14248  0.27910  Biso   1.000  H
  H70      1.0000 0.41934  0.20772  0.25800  Biso   1.000  H
  H71      1.0000 0.60255  0.03928  0.77711  Biso   1.000  H
  H72      1.0000 0.26000  0.15950  0.21841  Biso   1.000  H
  C68      1.0000 0.73207  0.60360  0.53621  Biso   1.000  C
  C69      1.0000 0.83482  0.63170  0.51780  Biso   1.000  C
  C70      1.0000 0.64668  0.65219  0.54901  Biso   1.000  C
  H73      1.0000 0.75057  0.57821  0.56711  Biso   1.000  H
  H74      1.0000 0.69987  0.57540  0.50931  Biso   1.000  H
  C71      1.0000 0.85225  0.64583  0.46531  Biso   1.000  C
  C72      1.0000 0.92304  0.64541  0.55270  Biso   1.000  C
  C73      1.0000 0.56815  0.67393  0.51189  Biso   1.000  C
  C74      1.0000 0.64314  0.67762  0.59751  Biso   1.000  C
  C75      1.0000 0.77117  0.62759  0.42211  Biso   1.000  C
  C76      1.0000 0.94985  0.67510  0.45220  Biso   1.000  C
  H75      1.0000 0.91461  0.63573  0.58791  Biso   1.000  H
  C77      1.0000 0.02135  0.67211  0.53929  Biso   1.000  C
  C78      1.0000 0.49135  0.71892  0.52311  Biso   1.000  C
  H76      1.0000 0.56788  0.65719  0.47810  Biso   1.000  H
  O13      1.0000 0.72267  0.65649  0.63472  Biso   1.000  O
  C79      1.0000 0.56532  0.72340  0.60851  Biso   1.000  C
  C80      1.0000 0.74556  0.56512  0.41219  Biso   1.000  C
  C81      1.0000 0.72565  0.67220  0.38902  Biso   1.000  C
  H77      1.0000 0.95840  0.68651  0.41742  Biso   1.000  H
  C82      1.0000 0.03497  0.68810  0.48829  Biso   1.000  C
  C83      1.0000 0.11034  0.67851  0.57991  Biso   1.000  C
  O14      1.0000 0.41064  0.74230  0.48798  Biso   1.000  O
  C84      1.0000 0.48625  0.74300  0.57249  Biso   1.000  C
  C85      1.0000 0.78148  0.70671  0.66139  Biso   1.000  C
  H78      1.0000 0.56729  0.74141  0.64190  Biso   1.000  H
  C86      1.0000 0.68701  0.54763  0.36849  Biso   1.000  C
  H79      1.0000 0.76921  0.53402  0.43640  Biso   1.000  H
  C87      1.0000 0.66352  0.65443  0.34582  Biso   1.000  C
  H80      1.0000 0.73739  0.71531  0.39601  Biso   1.000  H
  C88      1.0000 0.13463  0.72411  0.46969  Biso   1.000  C
  C89      1.0000 0.21406  0.64929  0.57691  Biso   1.000  C
  C90      1.0000 0.09096  0.71129  0.62569  Biso   1.000  C
  C91      1.0000 0.41724  0.72289  0.43560  Biso   1.000  C
  C92      1.0000 0.39969  0.79289  0.58522  Biso   1.000  C
  H81      1.0000 0.83575  0.68899  0.68649  Biso   1.000  H
  H82      1.0000 0.72879  0.73271  0.67918  Biso   1.000  H
  H83      1.0000 0.81963  0.73229  0.63660  Biso   1.000  H
  C93      1.0000 0.64514  0.59210  0.33471  Biso   1.000  C
  H84      1.0000 0.67501  0.50451  0.36138  Biso   1.000  H
  H85      1.0000 0.63269  0.68553  0.32341  Biso   1.000  H
  C94      1.0000 0.10630  0.79271  0.46450  Biso   1.000  C
  H86      1.0000 0.19862  0.71873  0.49440  Biso   1.000  H
  H87      1.0000 0.15529  0.70741  0.43598  Biso   1.000  H
  H88      1.0000 0.23105  0.62829  0.54609  Biso   1.000  H
  C95      1.0000 0.29059  0.65041  0.61700  Biso   1.000  C
  C96      1.0000 0.16927  0.71181  0.66539  Biso   1.000  C
  H89      1.0000 0.02309  0.73299  0.62899  Biso   1.000  H
  H90      1.0000 0.41598  0.67711  0.43379  Biso   1.000  H
  H91      1.0000 0.48626  0.73841  0.42199  Biso   1.000  H
  H92      1.0000 0.35396  0.73982  0.41511  Biso   1.000  H
  C97      1.0000 0.43668  0.85691  0.57299  Biso   1.000  C
  H93      1.0000 0.32946  0.78401  0.56550  Biso   1.000  H
  H94      1.0000 0.38526  0.79051  0.62230  Biso   1.000  H
  C98      1.0000 0.58401  0.57610  0.28471  Biso   1.000  C
  C99      1.0000 0.07170  0.81983  0.41819  Biso   1.000  C
  C100     1.0000 0.11672  0.83063  0.50900  Biso   1.000  C
  H95      1.0000 0.35894  0.62941  0.61350  Biso   1.000  H
  C101     1.0000 0.27192  0.68141  0.66320  Biso   1.000  C
  H96      1.0000 0.15357  0.73383  0.69590  Biso   1.000  H
  C102     1.0000 0.40849  0.88291  0.52392  Biso   1.000  C
  C103     1.0000 0.50428  0.89039  0.60682  Biso   1.000  C
  N3       1.0000 0.63384  0.53341  0.25389  Biso   1.000  N
  O15      1.0000 0.49099  0.59790  0.27310  Biso   1.000  O
  O16      1.0000 0.06319  0.78003  0.37691  Biso   1.000  O
  C104     1.0000 0.03955  0.88263  0.41680  Biso   1.000  C
  H97      1.0000 0.14413  0.81300  0.54060  Biso   1.000  H
  C105     1.0000 0.08663  0.89432  0.50681  Biso   1.000  C
  C106     1.0000 0.35173  0.68492  0.70620  Biso   1.000  C
  C107     1.0000 0.45105  0.94141  0.51031  Biso   1.000  C
  H98      1.0000 0.36074  0.86070  0.50020  Biso   1.000  H
  O17      1.0000 0.52820  0.86322  0.65309  Biso   1.000  O
  C108     1.0000 0.54449  0.94992  0.59221  Biso   1.000  C
  C109     1.0000 0.58582  0.52163  0.20031  Biso   1.000  C
  C110     1.0000 0.74932  0.51270  0.25650  Biso   1.000  C
  C111     1.0000 0.02645  0.80150  0.32991  Biso   1.000  C
  H99      1.0000 0.01181  0.90030  0.38529  Biso   1.000  H
  C112     1.0000 0.04764  0.91980  0.46119  Biso   1.000  C
  O18      1.0000 0.09544  0.93313  0.54851  Biso   1.000  O
  O19      1.0000 0.36767  0.73463  0.72942  Biso   1.000  O
  N4       1.0000 0.41105  0.63269  0.72131  Biso   1.000  N
  O20      1.0000 0.42634  0.96750  0.46288  Biso   1.000  O
  C113     1.0000 0.51835  0.97391  0.54371  Biso   1.000  C
  C114     1.0000 0.61417  0.89310  0.68629  Biso   1.000  C
  H100     1.0000 0.58976  0.97339  0.61589  Biso   1.000  H
  C115     1.0000 0.48832  0.47482  0.19958  Biso   1.000  C
  C116     1.0000 0.68071  0.49530  0.17179  Biso   1.000  C
  H101     1.0000 0.56071  0.56203  0.18421  Biso   1.000  H
  C117     1.0000 0.78660  0.51602  0.20250  Biso   1.000  C
  H102     1.0000 0.75535  0.46939  0.26968  Biso   1.000  H
  H103     1.0000 0.79508  0.54043  0.27941  Biso   1.000  H
  H104     1.0000 0.95024  0.81669  0.33179  Biso   1.000  H
  H105     1.0000 0.02824  0.76750  0.30470  Biso   1.000  H
  H106     1.0000 0.07413  0.83582  0.31941  Biso   1.000  H
  C118     1.0000 0.01193  0.98901  0.45820  Biso   1.000  C
  C119     1.0000 0.13121  0.90662  0.59809  Biso   1.000  C
  C120     1.0000 0.37645  0.56960  0.70540  Biso   1.000  C
  C121     1.0000 0.49194  0.63189  0.76581  Biso   1.000  C
  C122     1.0000 0.35472  0.93360  0.42860  Biso   1.000  C
  C123     1.0000 0.57202  0.03563  0.52968  Biso   1.000  C
  H107     1.0000 0.63460  0.86551  0.71520  Biso   1.000  H
  H108     1.0000 0.58603  0.93271  0.69928  Biso   1.000  H
  H109     1.0000 0.67946  0.90119  0.66639  Biso   1.000  H
  O21      1.0000 0.39234  0.50021  0.22172  Biso   1.000  O
  H110     1.0000 0.46914  0.46229  0.16369  Biso   1.000  H
  H111     1.0000 0.51179  0.43671  0.21891  Biso   1.000  H
  H112     1.0000 0.67984  0.51199  0.13628  Biso   1.000  H
  H113     1.0000 0.67625  0.44919  0.17022  Biso   1.000  H
  H114     1.0000 0.84889  0.48712  0.19720  Biso   1.000  H
  H115     1.0000 0.80853  0.55913  0.19332  Biso   1.000  H
  C124     1.0000 0.89974  0.99972  0.47641  Biso   1.000  C
  H116     1.0000 0.06551  0.01450  0.47922  Biso   1.000  H
  H117     1.0000 0.01423  0.00341  0.42218  Biso   1.000  H
  H118     1.0000 0.13496  0.93982  0.62411  Biso   1.000  H
  H119     1.0000 0.20464  0.88773  0.59571  Biso   1.000  H
  H120     1.0000 0.07834  0.87463  0.60801  Biso   1.000  H
  H121     1.0000 0.42219  0.55272  0.67811  Biso   1.000  H
  H122     1.0000 0.29719  0.56783  0.69410  Biso   1.000  H
  C125     1.0000 0.39976  0.53720  0.75670  Biso   1.000  C
  C126     1.0000 0.50597  0.56371  0.77961  Biso   1.000  C
  H123     1.0000 0.46040  0.65471  0.79521  Biso   1.000  H
  C127     1.0000 0.59658  0.66360  0.75121  Biso   1.000  C
  H124     1.0000 0.27867  0.93682  0.43979  Biso   1.000  H
  H125     1.0000 0.37737  0.88960  0.42849  Biso   1.000  H
  H126     1.0000 0.35842  0.95099  0.39401  Biso   1.000  H
  C128     1.0000 0.68782  0.02460  0.51112  Biso   1.000  C
  H127     1.0000 0.57624  0.06341  0.56008  Biso   1.000  H
  H128     1.0000 0.52603  0.05653  0.50232  Biso   1.000  H
  H129     1.0000 0.39751  0.53930  0.22291  Biso   1.000  H
  C129     1.0000 0.80827  0.98803  0.44440  Biso   1.000  C
  C130     1.0000 0.88251  0.02539  0.52530  Biso   1.000  C
  H130     1.0000 0.33853  0.54482  0.77980  Biso   1.000  H
  H131     1.0000 0.40707  0.49151  0.75159  Biso   1.000  H
  H132     1.0000 0.57128  0.54529  0.76381  Biso   1.000  H
  H133     1.0000 0.51253  0.55749  0.81731  Biso   1.000  H
  O22      1.0000 0.67625  0.66112  0.79291  Biso   1.000  O
  H134     1.0000 0.62586  0.64251  0.72088  Biso   1.000  H
  H135     1.0000 0.58080  0.70769  0.74198  Biso   1.000  H
  C131     1.0000 0.70212  0.99701  0.46350  Biso   1.000  C
  C132     1.0000 0.77633  0.03774  0.54102  Biso   1.000  C
  O23      1.0000 0.82305  0.96170  0.39820  Biso   1.000  O
  H136     1.0000 0.94461  0.03451  0.54790  Biso   1.000  H
  H137     1.0000 0.74006  0.65953  0.78161  Biso   1.000  H
  H138     1.0000 0.63886  0.98391  0.44328  Biso   1.000  H
  O24      1.0000 0.76073  0.06411  0.58891  Biso   1.000  O
  C133     1.0000 0.73349  0.93042  0.37091  Biso   1.000  C
  C134     1.0000 0.84992  0.07491  0.62200  Biso   1.000  C
  H139     1.0000 0.70275  0.89853  0.39301  Biso   1.000  H
  H140     1.0000 0.76073  0.91059  0.34001  Biso   1.000  H
  H141     1.0000 0.67570  0.96091  0.36088  Biso   1.000  H
  H142     1.0000 0.82729  0.07141  0.65739  Biso   1.000  H
  H143     1.0000 0.87866  0.11714  0.61619  Biso   1.000  H
  H144     1.0000 0.90783  0.04410  0.61600  Biso   1.000  H
  C135     1.0000 0.13220  0.47949  0.25562  Biso   1.000  C
  C136     1.0000 0.14709  0.44302  0.20489  Biso   1.000  C
  C137     1.0000 0.05780  0.44059  0.28552  Biso   1.000  C
  H145     1.0000 0.20435  0.48553  0.27460  Biso   1.000  H
  H146     1.0000 0.09869  0.52111  0.24839  Biso   1.000  H
  N5       1.0000 0.14186  0.37760  0.22191  Biso   1.000  N
  H147     1.0000 0.08703  0.45270  0.17898  Biso   1.000  H
  H148     1.0000 0.21940  0.45251  0.19040  Biso   1.000  H
  C138     1.0000 0.08302  0.37021  0.27068  Biso   1.000  C
  H149     1.0000 0.07267  0.44742  0.32280  Biso   1.000  H
  H150     1.0000 0.97946  0.45111  0.27672  Biso   1.000  H
  C139     1.0000 0.20440  0.32892  0.20569  Biso   1.000  C
  H151     1.0000 0.13122  0.34931  0.29782  Biso   1.000  H
  C140     1.0000 0.97469  0.33552  0.26138  Biso   1.000  C
  O25      1.0000 0.20288  0.27711  0.22879  Biso   1.000  O
  C141     1.0000 0.27619  0.33799  0.16280  Biso   1.000  C
  O26      1.0000 0.98960  0.26958  0.25381  Biso   1.000  O
  H152     1.0000 0.92841  0.34202  0.29128  Biso   1.000  H
  H153     1.0000 0.93465  0.35329  0.23079  Biso   1.000  H
  C142     1.0000 0.24527  0.37021  0.11611  Biso   1.000  C
  C143     1.0000 0.38011  0.30830  0.16641  Biso   1.000  C
  H154     1.0000 0.99843  0.25181  0.28248  Biso   1.000  H
  C144     1.0000 0.31109  0.37082  0.07621  Biso   1.000  C
  H155     1.0000 0.17650  0.39172  0.11330  Biso   1.000  H
  H156     1.0000 0.40285  0.28642  0.19681  Biso   1.000  H
  C145     1.0000 0.44909  0.31083  0.12591  Biso   1.000  C
  C146     1.0000 0.41991  0.34309  0.08002  Biso   1.000  C
  H157     1.0000 0.28568  0.38981  0.04481  Biso   1.000  H
  H158     1.0000 0.51864  0.29011  0.12902  Biso   1.000  H
  C147     1.0000 0.49822  0.35123  0.03859  Biso   1.000  C
  C148     1.0000 0.60408  0.37568  0.05350  Biso   1.000  C
  C149     1.0000 0.48060  0.33182  0.98782  Biso   1.000  C
  C150     1.0000 0.68358  0.38868  0.01941  Biso   1.000  C
  H159     1.0000 0.62074  0.38340  0.08890  Biso   1.000  H
  C151     1.0000 0.37208  0.30012  0.96891  Biso   1.000  C
  C152     1.0000 0.56235  0.34622  0.95238  Biso   1.000  C
  C153     1.0000 0.79076  0.41581  0.03889  Biso   1.000  C
  C154     1.0000 0.66209  0.37419  0.96641  Biso   1.000  C
  C155     1.0000 0.39043  0.22923  0.96341  Biso   1.000  C
  H160     1.0000 0.34652  0.31789  0.93532  Biso   1.000  H
  H161     1.0000 0.31409  0.30793  0.99370  Biso   1.000  H
  H162     1.0000 0.54763  0.33598  0.91729  Biso   1.000  H
  C156     1.0000 0.87632  0.36652  0.05650  Biso   1.000  C
  H163     1.0000 0.77707  0.44391  0.06810  Biso   1.000  H
  H164     1.0000 0.82182  0.44129  0.01130  Biso   1.000  H
  C157     1.0000 0.73621  0.38990  0.92529  Biso   1.000  C
  C158     1.0000 0.38110  0.19252  0.00569  Biso   1.000  C
  C159     1.0000 0.42223  0.20253  0.91929  Biso   1.000  C
  C160     1.0000 0.95031  0.34482  0.02041  Biso   1.000  C
  C161     1.0000 0.88012  0.34080  0.10411  Biso   1.000  C
  C162     1.0000 0.76101  0.45162  0.91429  Biso   1.000  C
  C163     1.0000 0.77898  0.34239  0.89581  Biso   1.000  C
  H165     1.0000 0.35632  0.21071  0.03640  Biso   1.000  H
  C164     1.0000 0.40743  0.12789  0.00519  Biso   1.000  C
  O27      1.0000 0.43286  0.24101  0.87609  Biso   1.000  O
  C165     1.0000 0.44801  0.13930  0.91599  Biso   1.000  C
  H166     1.0000 0.94757  0.36189  0.98670  Biso   1.000  H
  C166     1.0000 0.03016  0.29698  0.03409  Biso   1.000  C
  O28      1.0000 0.80702  0.36133  0.14009  Biso   1.000  O
  C167     1.0000 0.96291  0.29619  0.11899  Biso   1.000  C
  H167     1.0000 0.73423  0.48389  0.93551  Biso   1.000  H
  C168     1.0000 0.82550  0.46771  0.87202  Biso   1.000  C
  C169     1.0000 0.84590  0.35731  0.85380  Biso   1.000  C
  H168     1.0000 0.76367  0.30002  0.90350  Biso   1.000  H
  O29      1.0000 0.39616  0.08880  0.04631  Biso   1.000  O
  C170     1.0000 0.44118  0.10012  0.95999  Biso   1.000  C
  C171     1.0000 0.47244  0.21342  0.83201  Biso   1.000  C
  H169     1.0000 0.47031  0.12219  0.88451  Biso   1.000  H
  O30      1.0000 0.10245  0.27402  0.00138  Biso   1.000  O
  C172     1.0000 0.03486  0.27300  0.08471  Biso   1.000  C
  C173     1.0000 0.75268  0.31531  0.16649  Biso   1.000  C
  H170     1.0000 0.96823  0.28202  0.15362  Biso   1.000  H
  H171     1.0000 0.84171  0.51012  0.86422  Biso   1.000  H
  C174     1.0000 0.86421  0.41819  0.84239  Biso   1.000  C
  H172     1.0000 0.87723  0.32499  0.83420  Biso   1.000  H
  C175     1.0000 0.37159  0.11401  0.09308  Biso   1.000  C
  C176     1.0000 0.46797  0.03362  0.95842  Biso   1.000  C
  H173     1.0000 0.46283  0.24241  0.80299  Biso   1.000  H
  H174     1.0000 0.43118  0.17480  0.82429  Biso   1.000  H
  H175     1.0000 0.55121  0.20351  0.83789  Biso   1.000  H
  C177     1.0000 0.08861  0.28992  0.94961  Biso   1.000  C
  C178     1.0000 0.11547  0.22259  0.09931  Biso   1.000  C
  H176     1.0000 0.71641  0.28632  0.14189  Biso   1.000  H
  H177     1.0000 0.69693  0.33463  0.18751  Biso   1.000  H
  H178     1.0000 0.80631  0.29240  0.18878  Biso   1.000  H
  C179     1.0000 0.93661  0.43189  0.79750  Biso   1.000  C
  H179     1.0000 0.30279  0.13809  0.08920  Biso   1.000  H
  H180     1.0000 0.43202  0.14159  0.10531  Biso   1.000  H
  H181     1.0000 0.36257  0.08029  0.11799  Biso   1.000  H
  H182     1.0000 0.45903  0.01861  0.92248  Biso   1.000  H
  H183     1.0000 0.41516  0.01019  0.97902  Biso   1.000  H
  C180     1.0000 0.58527  0.02029  0.97902  Biso   1.000  C
  H184     1.0000 0.13958  0.26533  0.92959  Biso   1.000  H
  H185     1.0000 0.10436  0.33449  0.94531  Biso   1.000  H
  H186     1.0000 0.01215  0.28123  0.93751  Biso   1.000  H
  C181     1.0000 0.06993  0.15871  0.08551  Biso   1.000  C
  H187     1.0000 0.13342  0.22450  0.13678  Biso   1.000  H
  H188     1.0000 0.18487  0.22960  0.08152  Biso   1.000  H
  N6       1.0000 0.90802  0.47921  0.76341  Biso   1.000  N
  O31      1.0000 0.01609  0.39383  0.79212  Biso   1.000  O
  C182     1.0000 0.60738  0.99140  0.02840  Biso   1.000  C
  C183     1.0000 0.68073  0.03180  0.94961  Biso   1.000  C
  C184     1.0000 0.99864  0.12752  0.11511  Biso   1.000  C
  C185     1.0000 0.09192  0.13388  0.03551  Biso   1.000  C
  C186     1.0000 0.80511  0.51321  0.76310  Biso   1.000  C
  C187     1.0000 0.96930  0.48679  0.71579  Biso   1.000  C
  C188     1.0000 0.71302  0.97928  0.04750  Biso   1.000  C
  H189     1.0000 0.54689  0.98031  0.04839  Biso   1.000  H
  O32      1.0000 0.65342  0.05621  0.90180  Biso   1.000  O
  C189     1.0000 0.78845  0.01632  0.96948  Biso   1.000  C
  O33      1.0000 0.98493  0.15548  0.16369  Biso   1.000  O
  C190     1.0000 0.95608  0.06982  0.10139  Biso   1.000  C
  C191     1.0000 0.04298  0.07641  0.02160  Biso   1.000  C
  H190     1.0000 0.13766  0.15572  0.01291  Biso   1.000  H
  H191     1.0000 0.81536  0.55590  0.77709  Biso   1.000  H
  H192     1.0000 0.74916  0.49090  0.78301  Biso   1.000  H
  C192     1.0000 0.77014  0.51461  0.70391  Biso   1.000  C
  C193     1.0000 0.86515  0.52411  0.68120  Biso   1.000  C
  H193     1.0000 0.98815  0.44559  0.70019  Biso   1.000  H
  C194     1.0000 0.05515  0.52902  0.71360  Biso   1.000  C
  O34      1.0000 0.73186  0.95361  0.09570  Biso   1.000  O
  C195     1.0000 0.80371  0.99308  0.01672  Biso   1.000  C
  C196     1.0000 0.74287  0.07861  0.87502  Biso   1.000  C
  H194     1.0000 0.85027  0.02249  0.94888  Biso   1.000  H
  C197     1.0000 0.88962  0.14202  0.18751  Biso   1.000  C
  C198     1.0000 0.97627  0.04620  0.05311  Biso   1.000  C
  H195     1.0000 0.91371  0.04648  0.12448  Biso   1.000  H
  O35      1.0000 0.05601  0.04812  0.97521  Biso   1.000  O
  H196     1.0000 0.73563  0.47449  0.69281  Biso   1.000  H
  H197     1.0000 0.71679  0.54903  0.69600  Biso   1.000  H
  H198     1.0000 0.88052  0.56942  0.67951  Biso   1.000  H
  H199     1.0000 0.85907  0.50751  0.64569  Biso   1.000  H
  O36      1.0000 0.13752  0.49203  0.74089  Biso   1.000  O
  H200     1.0000 0.03961  0.56853  0.73159  Biso   1.000  H
  H201     1.0000 0.07461  0.53790  0.67789  Biso   1.000  H
  C199     1.0000 0.64837  0.94968  0.12879  Biso   1.000  C
  C200     1.0000 0.92087  0.98298  0.03832  Biso   1.000  C
  H202     1.0000 0.72537  0.07552  0.83789  Biso   1.000  H
  H203     1.0000 0.80891  0.05368  0.88401  Biso   1.000  H
  H204     1.0000 0.75675  0.12252  0.88420  Biso   1.000  H
  H205     1.0000 0.82973  0.13439  0.16161  Biso   1.000  H
  H206     1.0000 0.87001  0.17732  0.20919  Biso   1.000  H
  H207     1.0000 0.90090  0.10461  0.20888  Biso   1.000  H
  C201     1.0000 0.12616  0.08099  0.93882  Biso   1.000  C
  H208     1.0000 0.18771  0.51541  0.75330  Biso   1.000  H
  H209     1.0000 0.57732  0.94702  0.10919  Biso   1.000  H
  H210     1.0000 0.64911  0.98700  0.15062  Biso   1.000  H
  H211     1.0000 0.65884  0.91242  0.15031  Biso   1.000  H
  H212     1.0000 0.96468  0.96161  0.01241  Biso   1.000  H
  H213     1.0000 0.91966  0.95590  0.06910  Biso   1.000  H
  H214     1.0000 0.12106  0.05971  0.90549  Biso   1.000  H
  H215     1.0000 0.20335  0.08080  0.95230  Biso   1.000  H
  H216     1.0000 0.10066  0.12420  0.93459  Biso   1.000  H
  O37      1.0000 0.79717  0.77713  0.77119  Biso   1.000  O
  C202     1.0000 0.79565  0.82890  0.79429  Biso   1.000  C
  C203     1.0000 0.72387  0.83802  0.83718  Biso   1.000  C
  N7       1.0000 0.85828  0.87762  0.77811  Biso   1.000  N
  C204     1.0000 0.75479  0.87019  0.88392  Biso   1.000  C
  C205     1.0000 0.61995  0.80832  0.83361  Biso   1.000  C
  C206     1.0000 0.85296  0.94300  0.79510  Biso   1.000  C
  C207     1.0000 0.91703  0.87019  0.72930  Biso   1.000  C
  C208     1.0000 0.68897  0.87080  0.92381  Biso   1.000  C
  H217     1.0000 0.82356  0.89170  0.88668  Biso   1.000  H
  C209     1.0000 0.55097  0.81080  0.87412  Biso   1.000  C
  H218     1.0000 0.59729  0.78639  0.80321  Biso   1.000  H
  H219     1.0000 0.91310  0.95272  0.82100  Biso   1.000  H
  H220     1.0000 0.78065  0.95249  0.80959  Biso   1.000  H
  C210     1.0000 0.86785  0.97952  0.74440  Biso   1.000  C
  C211     1.0000 0.94226  0.94061  0.71450  Biso   1.000  C
  H221     1.0000 0.86884  0.84933  0.70221  Biso   1.000  H
  C212     1.0000 0.02536  0.83549  0.73860  Biso   1.000  C
  C213     1.0000 0.58023  0.84311  0.92000  Biso   1.000  C
  H222     1.0000 0.71438  0.88983  0.95521  Biso   1.000  H
  H223     1.0000 0.48150  0.79013  0.87100  Biso   1.000  H
  H224     1.0000 0.79579  0.98550  0.72538  Biso   1.000  H
  H225     1.0000 0.90136  0.02114  0.75159  Biso   1.000  H
  H226     1.0000 0.92747  0.94739  0.67719  Biso   1.000  H
  H227     1.0000 0.02068  0.95113  0.72330  Biso   1.000  H
  O38      1.0000 0.01045  0.76960  0.74621  Biso   1.000  O
  H228     1.0000 0.07164  0.84199  0.70870  Biso   1.000  H
  H229     1.0000 0.06549  0.85331  0.76919  Biso   1.000  H
  C214     1.0000 0.50192  0.85120  0.96140  Biso   1.000  C
  H230     1.0000 0.00170  0.75179  0.71750  Biso   1.000  H
  C215     1.0000 0.51954  0.83180  0.01220  Biso   1.000  C
  C216     1.0000 0.39597  0.87571  0.94648  Biso   1.000  C
  C217     1.0000 0.62806  0.80009  0.03111  Biso   1.000  C
  C218     1.0000 0.43778  0.84620  0.04760  Biso   1.000  C
  C219     1.0000 0.31648  0.88871  0.98061  Biso   1.000  C
  H231     1.0000 0.37940  0.88342  0.91109  Biso   1.000  H
  C220     1.0000 0.60963  0.72920  0.03661  Biso   1.000  C
  H232     1.0000 0.65354  0.81791  0.06470  Biso   1.000  H
  H233     1.0000 0.68605  0.80790  0.00629  Biso   1.000  H
  C221     1.0000 0.33805  0.87421  0.03361  Biso   1.000  C
  H234     1.0000 0.45242  0.83601  0.08269  Biso   1.000  H
  C222     1.0000 0.20930  0.91583  0.96109  Biso   1.000  C
  C223     1.0000 0.61903  0.69249  0.99429  Biso   1.000  C
  C224     1.0000 0.57783  0.70250  0.08069  Biso   1.000  C
  C225     1.0000 0.26384  0.88992  0.07470  Biso   1.000  C
  C226     1.0000 0.12382  0.86650  0.94349  Biso   1.000  C
  H235     1.0000 0.22299  0.94393  0.93188  Biso   1.000  H
  H236     1.0000 0.17831  0.94131  0.98868  Biso   1.000  H
  C227     1.0000 0.59271  0.62792  0.99479  Biso   1.000  C
  H237     1.0000 0.64381  0.71073  0.96359  Biso   1.000  H
  C228     1.0000 0.55204  0.63933  0.08400  Biso   1.000  C
  O39      1.0000 0.56727  0.74103  0.12389  Biso   1.000  O
  C229     1.0000 0.23904  0.95160  0.08569  Biso   1.000  C
  C230     1.0000 0.22116  0.84241  0.10421  Biso   1.000  C
  C231     1.0000 0.12002  0.84082  0.89591  Biso   1.000  C
  C232     1.0000 0.04983  0.84480  0.97961  Biso   1.000  C
  C233     1.0000 0.55896  0.60009  0.03999  Biso   1.000  C
  O40      1.0000 0.60390  0.58882  0.95371  Biso   1.000  O
  H238     1.0000 0.52975  0.62221  0.11551  Biso   1.000  H
  C234     1.0000 0.52762  0.71340  0.16801  Biso   1.000  C
  H239     1.0000 0.26582  0.98391  0.06451  Biso   1.000  H
  C235     1.0000 0.17456  0.96773  0.12800  Biso   1.000  C
  C236     1.0000 0.15415  0.85733  0.14618  Biso   1.000  C
  H240     1.0000 0.23646  0.80000  0.09649  Biso   1.000  H
  C237     1.0000 0.03723  0.79621  0.88099  Biso   1.000  C
  O41      1.0000 0.19311  0.86130  0.85990  Biso   1.000  O
  C238     1.0000 0.96989  0.79701  0.96589  Biso   1.000  C
  H241     1.0000 0.05257  0.86191  0.01328  Biso   1.000  H
  C239     1.0000 0.53217  0.53360  0.04161  Biso   1.000  C
  C240     1.0000 0.62846  0.61403  0.90690  Biso   1.000  C
  H242     1.0000 0.53723  0.74239  0.19699  Biso   1.000  H
  H243     1.0000 0.56896  0.67482  0.17570  Biso   1.000  H
  H244     1.0000 0.44884  0.70353  0.16209  Biso   1.000  H
  C241     1.0000 0.13585  0.91821  0.15760  Biso   1.000  C
  H245     1.0000 0.15835  0.01010  0.13580  Biso   1.000  H
  H246     1.0000 0.12290  0.82502  0.16578  Biso   1.000  H
  C242     1.0000 0.96519  0.77302  0.91532  Biso   1.000  C
  H247     1.0000 0.03191  0.78200  0.84641  Biso   1.000  H
  C243     1.0000 0.24738  0.81529  0.83349  Biso   1.000  C
  O42      1.0000 0.89761  0.77400  0.99860  Biso   1.000  O
  C244     1.0000 0.41487  0.52032  0.02101  Biso   1.000  C
  H248     1.0000 0.54102  0.51859  0.07750  Biso   1.000  H
  H249     1.0000 0.58498  0.51022  0.02101  Biso   1.000  H
  H250     1.0000 0.69726  0.63811  0.91078  Biso   1.000  H
  H251     1.0000 0.56812  0.64162  0.89472  Biso   1.000  H
  H252     1.0000 0.63748  0.58031  0.88199  Biso   1.000  H
  C245     1.0000 0.06345  0.93191  0.20248  Biso   1.000  C
  C246     1.0000 0.88459  0.72261  0.90071  Biso   1.000  C
  H253     1.0000 0.28372  0.78630  0.85809  Biso   1.000  H
  H254     1.0000 0.30321  0.83460  0.81251  Biso   1.000  H
  H255     1.0000 0.19382  0.79242  0.81120  Biso   1.000  H
  C247     1.0000 0.91145  0.78990  0.05041  Biso   1.000  C
  C248     1.0000 0.39268  0.49142  0.97158  Biso   1.000  C
  C249     1.0000 0.31932  0.53182  0.05041  Biso   1.000  C
  O43      1.0000 0.98397  0.89380  0.20790  Biso   1.000  O
  N8       1.0000 0.09204  0.97919  0.23661  Biso   1.000  N
  C250     1.0000 0.93021  0.65869  0.91451  Biso   1.000  C
  H256     1.0000 0.86672  0.72453  0.86320  Biso   1.000  H
  H257     1.0000 0.81519  0.72962  0.91851  Biso   1.000  H
  H258     1.0000 0.86056  0.76530  0.07039  Biso   1.000  H
  H259     1.0000 0.89578  0.83451  0.05471  Biso   1.000  H
  H260     1.0000 0.98799  0.78120  0.06251  Biso   1.000  H
  C251     1.0000 0.28711  0.47931  0.95248  Biso   1.000  C
  H261     1.0000 0.45316  0.48029  0.95160  Biso   1.000  H
  C252     1.0000 0.21161  0.51630  0.03050  Biso   1.000  C
  O44      1.0000 0.34664  0.55623  0.09822  Biso   1.000  O
  C253     1.0000 0.03076  0.98681  0.28419  Biso   1.000  C
  C254     1.0000 0.19494  0.01323  0.23688  Biso   1.000  C
  C255     1.0000 0.00150  0.62750  0.88491  Biso   1.000  C
  C256     1.0000 0.90822  0.63390  0.96451  Biso   1.000  C
  O45      1.0000 0.26819  0.45359  0.90428  Biso   1.000  O
  C257     1.0000 0.19643  0.49310  0.98330  Biso   1.000  C
  H262     1.0000 0.14986  0.52252  0.05110  Biso   1.000  H
  C258     1.0000 0.25727  0.57863  0.12500  Biso   1.000  C
  C259     1.0000 0.94498  0.02899  0.28638  Biso   1.000  C
  H263     1.0000 0.01198  0.94562  0.29980  Biso   1.000  H
  C260     1.0000 0.13499  0.02413  0.31878  Biso   1.000  C
  H264     1.0000 0.25098  0.99093  0.21701  Biso   1.000  H
  H265     1.0000 0.18478  0.05593  0.22289  Biso   1.000  H
  C261     1.0000 0.23000  0.01464  0.29611  Biso   1.000  C
  C262     1.0000 0.04397  0.56979  0.89860  Biso   1.000  C
  O46      1.0000 0.01520  0.65551  0.83630  Biso   1.000  O
  C263     1.0000 0.95708  0.57639  0.97838  Biso   1.000  C
  H266     1.0000 0.86240  0.65569  0.98711  Biso   1.000  H
  C264     1.0000 0.35169  0.44971  0.87119  Biso   1.000  C
  C265     1.0000 0.07919  0.48300  0.96170  Biso   1.000  C
  H267     1.0000 0.27476  0.57550  0.16209  Biso   1.000  H
  H268     1.0000 0.19115  0.55371  0.11601  Biso   1.000  H
  H269     1.0000 0.24339  0.62249  0.11578  Biso   1.000  H
  O47      1.0000 0.86262  0.99200  0.25910  Biso   1.000  O
  H270     1.0000 0.96044  0.06851  0.26840  Biso   1.000  H
  H271     1.0000 0.92544  0.03792  0.32209  Biso   1.000  H
  H272     1.0000 0.11962  0.06939  0.32051  Biso   1.000  H
  H273     1.0000 0.14098  0.00753  0.35429  Biso   1.000  H
  H274     1.0000 0.26451  0.97451  0.30721  Biso   1.000  H
  H275     1.0000 0.28327  0.04901  0.30399  Biso   1.000  H
  C266     1.0000 0.02379  0.54622  0.94691  Biso   1.000  C
  H276     1.0000 0.08643  0.54650  0.87550  Biso   1.000  H
  C267     1.0000 0.11052  0.64199  0.81251  Biso   1.000  C
  O48      1.0000 0.94405  0.54809  0.02481  Biso   1.000  O
  H277     1.0000 0.42282  0.44700  0.89080  Biso   1.000  H
  H278     1.0000 0.35103  0.48702  0.84940  Biso   1.000  H
  H279     1.0000 0.34130  0.41239  0.84971  Biso   1.000  H
  H280     1.0000 0.03538  0.46159  0.98761  Biso   1.000  H
  H281     1.0000 0.08039  0.45593  0.93088  Biso   1.000  H
  H282     1.0000 0.81234  0.01543  0.24668  Biso   1.000  H
  H283     1.0000 0.17041  0.63442  0.83841  Biso   1.000  H
  H284     1.0000 0.13005  0.67730  0.79079  Biso   1.000  H
  H285     1.0000 0.09915  0.60463  0.79110  Biso   1.000  H
  C268     1.0000 0.87398  0.58101  0.06121  Biso   1.000  C
  H286     1.0000 0.87907  0.55969  0.09449  Biso   1.000  H
  H287     1.0000 0.79679  0.58083  0.04772  Biso   1.000  H
  H288     1.0000 0.89948  0.62422  0.06540  Biso   1.000  H
