data_image0
_cell_length_a       13.726
_cell_length_b       14.99
_cell_length_c       22.818
_cell_angle_alpha    79.04
_cell_angle_beta     82.05
_cell_angle_gamma    83.39

_symmetry_space_group_name_H-M    "P 1"
_symmetry_int_tables_number       1

loop_
  _symmetry_equiv_pos_as_xyz
  'x, y, z'

loop_
  _atom_site_label
  _atom_site_occupancy
  _atom_site_fract_x
  _atom_site_fract_y
  _atom_site_fract_z
  _atom_site_thermal_displace_type
  _atom_site_B_iso_or_equiv
  _atom_site_type_symbol
  C1       1.0000 0.49083  0.43558  0.58629  Biso   1.000  C
  C2       1.0000 0.39959  0.48449  0.58121  Biso   1.000  C
  C3       1.0000 0.51088  0.35863  0.56048  Biso   1.000  C
  C4       1.0000 0.56672  0.46831  0.61569  Biso   1.000  C
  C5       1.0000 0.32882  0.45828  0.55131  Biso   1.000  C
  H1       1.0000 0.38523  0.53672  0.59829  Biso   1.000  H
  C6       1.0000 0.44134  0.33012  0.53189  Biso   1.000  C
  H2       1.0000 0.57229  0.32539  0.56250  Biso   1.000  H
  H3       1.0000 0.62758  0.47152  0.58849  Biso   1.000  H
  H4       1.0000 0.54468  0.52964  0.62289  Biso   1.000  H
  N1       1.0000 0.58788  0.40897  0.67432  Biso   1.000  N
  C7       1.0000 0.35112  0.38018  0.52681  Biso   1.000  C
  C8       1.0000 0.23302  0.51787  0.54371  Biso   1.000  C
  H5       1.0000 0.45522  0.27673  0.51588  Biso   1.000  H
  H6       1.0000 0.63650  0.43142  0.68821  Biso   1.000  H
  H7       1.0000 0.61041  0.35269  0.66731  Biso   1.000  H
  C9       1.0000 0.50171  0.40089  0.72239  Biso   1.000  C
  H8       1.0000 0.30503  0.36106  0.50671  Biso   1.000  H
  N2       1.0000 0.14254  0.46968  0.56309  Biso   1.000  N
  H9       1.0000 0.23329  0.54561  0.50172  Biso   1.000  H
  H10      1.0000 0.23039  0.56668  0.56651  Biso   1.000  H
  H11      1.0000 0.47558  0.46079  0.73039  Biso   1.000  H
  H12      1.0000 0.44982  0.37322  0.70939  Biso   1.000  H
  C10      1.0000 0.53617  0.34229  0.77850  Biso   1.000  C
  C11      1.0000 0.12871  0.42593  0.62720  Biso   1.000  C
  H13      1.0000 0.14343  0.42649  0.54038  Biso   1.000  H
  H14      1.0000 0.08981  0.50991  0.55558  Biso   1.000  H
  H15      1.0000 0.59439  0.36564  0.78758  Biso   1.000  H
  H16      1.0000 0.55461  0.28062  0.77130  Biso   1.000  H
  N3       1.0000 0.46049  0.34051  0.83011  Biso   1.000  N
  C12      1.0000 0.02793  0.38959  0.64271  Biso   1.000  C
  H17      1.0000 0.17969  0.37620  0.63480  Biso   1.000  H
  H18      1.0000 0.13429  0.47009  0.65229  Biso   1.000  H
  C13      1.0000 0.47607  0.25792  0.87530  Biso   1.000  C
  C14      1.0000 0.45651  0.42367  0.85551  Biso   1.000  C
  H19      1.0000 0.02930  0.33361  0.62711  Biso   1.000  H
  N4       1.0000 0.99813  0.37182  0.70759  Biso   1.000  N
  H20      1.0000 0.97928  0.43368  0.62361  Biso   1.000  H
  H21      1.0000 0.54611  0.23812  0.87399  Biso   1.000  H
  H22      1.0000 0.45257  0.27103  0.91522  Biso   1.000  H
  C15      1.0000 0.42029  0.18263  0.86280  Biso   1.000  C
  C16      1.0000 0.36578  0.42969  0.90110  Biso   1.000  C
  H23      1.0000 0.51540  0.42299  0.87480  Biso   1.000  H
  H24      1.0000 0.45432  0.47668  0.82368  Biso   1.000  H
  C17      1.0000 0.92548  0.30428  0.72301  Biso   1.000  C
  C18      1.0000 0.96217  0.45689  0.72940  Biso   1.000  C
  H25      1.0000 0.44633  0.16762  0.82368  Biso   1.000  H
  H26      1.0000 0.35100  0.20403  0.86190  Biso   1.000  H
  N5       1.0000 0.42993  0.10179  0.90848  Biso   1.000  N
  N6       1.0000 0.33331  0.52390  0.90812  Biso   1.000  N
  H27      1.0000 0.38040  0.39429  0.93959  Biso   1.000  H
  H28      1.0000 0.31267  0.40331  0.88829  Biso   1.000  H
  C19      1.0000 0.97431  0.20868  0.72989  Biso   1.000  C
  H29      1.0000 0.88518  0.31289  0.76020  Biso   1.000  H
  H30      1.0000 0.88230  0.31353  0.69159  Biso   1.000  H
  H31      1.0000 0.00306  0.50478  0.70912  Biso   1.000  H
  H32      1.0000 0.89500  0.47518  0.72032  Biso   1.000  H
  C20      1.0000 0.96477  0.44429  0.79751  Biso   1.000  C
  H33      1.0000 0.49437  0.08721  0.91248  Biso   1.000  H
  H34      1.0000 0.39960  0.11499  0.94382  Biso   1.000  H
  C21      1.0000 0.38828  0.02110  0.89611  Biso   1.000  C
  C22      1.0000 0.25384  0.53366  0.95852  Biso   1.000  C
  H35      1.0000 0.38580  0.55069  0.91392  Biso   1.000  H
  H36      1.0000 0.31172  0.55411  0.87368  Biso   1.000  H
  N7       1.0000 0.03792  0.19189  0.77962  Biso   1.000  N
  H37      1.0000 0.01426  0.19962  0.69262  Biso   1.000  H
  H38      1.0000 0.92431  0.16570  0.73862  Biso   1.000  H
  H39      1.0000 0.02951  0.41757  0.80750  Biso   1.000  H
  H40      1.0000 0.91629  0.40342  0.81842  Biso   1.000  H
  N8       1.0000 0.94293  0.53369  0.81671  Biso   1.000  N
  C23      1.0000 0.27666  0.03622  0.89832  Biso   1.000  C
  H41      1.0000 0.41669  0.00920  0.85668  Biso   1.000  H
  H42      1.0000 0.40579  0.96811  0.92561  Biso   1.000  H
  C24      1.0000 0.16628  0.48530  0.95479  Biso   1.000  C
  H43      1.0000 0.27967  0.50941  0.99629  Biso   1.000  H
  H44      1.0000 0.23317  0.59792  0.95780  Biso   1.000  H
  C25      1.0000 0.08220  0.09571  0.79140  Biso   1.000  C
  H45      1.0000 0.00143  0.20500  0.81330  Biso   1.000  H
  H46      1.0000 0.08663  0.22940  0.77000  Biso   1.000  H
  H47      1.0000 0.99362  0.56768  0.80170  Biso   1.000  H
  H48      1.0000 0.88877  0.56242  0.80080  Biso   1.000  H
  C26      1.0000 0.92570  0.52921  0.88361  Biso   1.000  C
  C27      1.0000 0.23208  0.05948  0.84598  Biso   1.000  C
  C28      1.0000 0.21843  0.02683  0.95299  Biso   1.000  C
  C29      1.0000 0.09082  0.52658  0.92138  Biso   1.000  C
  C30      1.0000 0.16013  0.39436  0.98181  Biso   1.000  C
  C31      1.0000 0.13117  0.07232  0.84819  Biso   1.000  C
  H49      1.0000 0.03079  0.05523  0.79410  Biso   1.000  H
  H50      1.0000 0.13070  0.08510  0.75768  Biso   1.000  H
  C32      1.0000 0.01041  0.48150  0.91648  Biso   1.000  C
  H51      1.0000 0.91291  0.59092  0.89189  Biso   1.000  H
  H52      1.0000 0.86709  0.49777  0.89940  Biso   1.000  H
  H53      1.0000 0.27096  0.06663  0.80889  Biso   1.000  H
  C33      1.0000 0.11738  0.04100  0.95600  Biso   1.000  C
  H54      1.0000 0.24782  0.01070  0.98828  Biso   1.000  H
  H55      1.0000 0.09438  0.58657  0.90160  Biso   1.000  H
  C34      1.0000 0.08192  0.34780  0.97641  Biso   1.000  C
  H56      1.0000 0.20977  0.36440  0.00411  Biso   1.000  H
  C35      1.0000 0.07373  0.06329  0.90331  Biso   1.000  C
  C36      1.0000 0.00872  0.39201  0.94359  Biso   1.000  C
  H57      1.0000 0.07870  0.03573  0.99309  Biso   1.000  H
  H58      1.0000 0.07900  0.28707  0.99471  Biso   1.000  H
  H59      1.0000 0.00520  0.07216  0.90502  Biso   1.000  H
  H60      1.0000 0.95628  0.36022  0.93968  Biso   1.000  H
  C37      1.0000 0.50922  0.56443  0.41368  Biso   1.000  C
  C38      1.0000 0.43332  0.53171  0.38428  Biso   1.000  C
  C39      1.0000 0.60038  0.51551  0.41881  Biso   1.000  C
  C40      1.0000 0.48909  0.64138  0.43949  Biso   1.000  C
  N9       1.0000 0.41209  0.59103  0.32570  Biso   1.000  N
  H61      1.0000 0.37239  0.52849  0.41148  Biso   1.000  H
  H62      1.0000 0.45529  0.47038  0.37709  Biso   1.000  H
  C41      1.0000 0.67122  0.54172  0.44871  Biso   1.000  C
  H63      1.0000 0.61481  0.46330  0.40168  Biso   1.000  H
  C42      1.0000 0.55871  0.66989  0.46809  Biso   1.000  C
  H64      1.0000 0.42767  0.67462  0.43751  Biso   1.000  H
  H65      1.0000 0.36354  0.56858  0.31180  Biso   1.000  H
  H66      1.0000 0.38963  0.64731  0.33271  Biso   1.000  H
  C43      1.0000 0.49834  0.59913  0.27759  Biso   1.000  C
  C44      1.0000 0.76701  0.48213  0.45631  Biso   1.000  C
  C45      1.0000 0.64892  0.61982  0.47321  Biso   1.000  C
  H67      1.0000 0.54482  0.72328  0.48409  Biso   1.000  H
  H68      1.0000 0.52439  0.53922  0.26958  Biso   1.000  H
  H69      1.0000 0.55023  0.62680  0.29058  Biso   1.000  H
  C46      1.0000 0.46379  0.65771  0.22152  Biso   1.000  C
  N10      1.0000 0.85751  0.53033  0.43688  Biso   1.000  N
  H70      1.0000 0.76667  0.45439  0.49830  Biso   1.000  H
  H71      1.0000 0.76957  0.43332  0.43351  Biso   1.000  H
  H72      1.0000 0.69501  0.63887  0.49331  Biso   1.000  H
  H73      1.0000 0.40559  0.63438  0.21239  Biso   1.000  H
  H74      1.0000 0.44542  0.71938  0.22872  Biso   1.000  H
  N11      1.0000 0.53947  0.65949  0.16991  Biso   1.000  N
  C47      1.0000 0.87133  0.57407  0.37281  Biso   1.000  C
  H75      1.0000 0.85662  0.57352  0.45959  Biso   1.000  H
  H76      1.0000 0.91023  0.49010  0.44439  Biso   1.000  H
  C48      1.0000 0.52389  0.74209  0.12472  Biso   1.000  C
  C49      1.0000 0.54353  0.57633  0.14450  Biso   1.000  C
  C50      1.0000 0.97210  0.61041  0.35730  Biso   1.000  C
  H77      1.0000 0.82027  0.62380  0.36522  Biso   1.000  H
  H78      1.0000 0.86568  0.52992  0.34768  Biso   1.000  H
  H79      1.0000 0.45394  0.76189  0.12598  Biso   1.000  H
  H80      1.0000 0.54739  0.72897  0.08480  Biso   1.000  H
  C51      1.0000 0.57967  0.81737  0.13722  Biso   1.000  C
  C52      1.0000 0.63418  0.57031  0.09891  Biso   1.000  C
  H81      1.0000 0.48457  0.57701  0.12522  Biso   1.000  H
  H82      1.0000 0.54573  0.52333  0.17629  Biso   1.000  H
  H83      1.0000 0.97073  0.66639  0.37290  Biso   1.000  H
  N12      1.0000 0.00192  0.62819  0.29238  Biso   1.000  N
  H84      1.0000 0.02068  0.56632  0.37641  Biso   1.000  H
  H85      1.0000 0.55372  0.83239  0.17629  Biso   1.000  H
  H86      1.0000 0.64903  0.79597  0.13812  Biso   1.000  H
  N13      1.0000 0.57011  0.89822  0.09150  Biso   1.000  N
  N14      1.0000 0.66672  0.47610  0.09190  Biso   1.000  N
  H87      1.0000 0.61957  0.60572  0.06038  Biso   1.000  H
  H88      1.0000 0.68730  0.59670  0.11168  Biso   1.000  H
  C53      1.0000 0.07448  0.69572  0.27700  Biso   1.000  C
  C54      1.0000 0.03780  0.54311  0.27062  Biso   1.000  C
  H89      1.0000 0.50560  0.91280  0.08749  Biso   1.000  H
  H90      1.0000 0.60043  0.88501  0.05620  Biso   1.000  H
  C55      1.0000 0.61168  0.97890  0.10390  Biso   1.000  C
  C56      1.0000 0.74621  0.46627  0.04150  Biso   1.000  C
  H91      1.0000 0.61423  0.44932  0.08610  Biso   1.000  H
  H92      1.0000 0.68833  0.44590  0.12629  Biso   1.000  H
  C57      1.0000 0.02573  0.79134  0.27008  Biso   1.000  C
  H93      1.0000 0.11478  0.68711  0.23982  Biso   1.000  H
  H94      1.0000 0.11768  0.68648  0.30839  Biso   1.000  H
  H95      1.0000 0.99690  0.49522  0.29090  Biso   1.000  H
  H96      1.0000 0.10496  0.52482  0.27970  Biso   1.000  H
  C58      1.0000 0.03519  0.55571  0.20250  Biso   1.000  C
  H97      1.0000 0.58328  0.99082  0.14329  Biso   1.000  H
  C59      1.0000 0.72330  0.96378  0.10170  Biso   1.000  C
  H98      1.0000 0.59417  0.03189  0.07441  Biso   1.000  H
  C60      1.0000 0.83369  0.51471  0.04519  Biso   1.000  C
  H99      1.0000 0.72030  0.49060  0.00369  Biso   1.000  H
  H100     1.0000 0.76679  0.40208  0.04222  Biso   1.000  H
  N15      1.0000 0.96212  0.80811  0.22040  Biso   1.000  N
  H101     1.0000 0.98571  0.80038  0.30740  Biso   1.000  H
  H102     1.0000 0.07573  0.83430  0.26140  Biso   1.000  H
  H103     1.0000 0.97053  0.58236  0.19252  Biso   1.000  H
  H104     1.0000 0.08367  0.59658  0.18160  Biso   1.000  H
  N16      1.0000 0.05711  0.46631  0.18331  Biso   1.000  N
  C61      1.0000 0.76790  0.94053  0.15399  Biso   1.000  C
  C62      1.0000 0.78162  0.97318  0.04698  Biso   1.000  C
  C63      1.0000 0.90923  0.47343  0.07859  Biso   1.000  C
  C64      1.0000 0.83991  0.60557  0.01821  Biso   1.000  C
  C65      1.0000 0.91777  0.90429  0.20862  Biso   1.000  C
  H105     1.0000 0.99861  0.79500  0.18672  Biso   1.000  H
  H106     1.0000 0.91340  0.77060  0.23002  Biso   1.000  H
  C66      1.0000 0.07433  0.47079  0.11640  Biso   1.000  C
  H107     1.0000 0.00642  0.43232  0.19832  Biso   1.000  H
  H108     1.0000 0.11119  0.43759  0.19922  Biso   1.000  H
  H109     1.0000 0.72901  0.93338  0.19108  Biso   1.000  H
  C67      1.0000 0.86881  0.92769  0.15179  Biso   1.000  C
  H110     1.0000 0.75223  0.98931  0.01169  Biso   1.000  H
  C68      1.0000 0.88258  0.95900  0.04402  Biso   1.000  C
  C69      1.0000 0.98957  0.51852  0.08349  Biso   1.000  C
  H111     1.0000 0.90559  0.41337  0.09842  Biso   1.000  H
  C70      1.0000 0.91812  0.65220  0.02360  Biso   1.000  C
  H112     1.0000 0.79019  0.63560  0.99591  Biso   1.000  H
  H113     1.0000 0.96918  0.94477  0.20592  Biso   1.000  H
  H114     1.0000 0.86927  0.91492  0.24229  Biso   1.000  H
  H115     1.0000 0.08713  0.40909  0.10809  Biso   1.000  H
  H116     1.0000 0.13288  0.50216  0.10062  Biso   1.000  H
  C71      1.0000 0.92631  0.93671  0.09671  Biso   1.000  C
  H117     1.0000 0.92127  0.96428  0.00688  Biso   1.000  H
  C72      1.0000 0.99133  0.60800  0.05638  Biso   1.000  C
  H118     1.0000 0.92096  0.71293  0.00531  Biso   1.000  H
  H119     1.0000 0.99478  0.92777  0.09500  Biso   1.000  H
  H120     1.0000 0.04369  0.63979  0.06029  Biso   1.000  H
