data_image0
_cell_length_a       8.451
_cell_length_b       10.722
_cell_length_c       10.054
_cell_angle_alpha    93.05
_cell_angle_beta     102.59
_cell_angle_gamma    95.33

_symmetry_space_group_name_H-M    "P 1"
_symmetry_int_tables_number       1

loop_
  _symmetry_equiv_pos_as_xyz
  'x, y, z'

loop_
  _atom_site_label
  _atom_site_occupancy
  _atom_site_fract_x
  _atom_site_fract_y
  _atom_site_fract_z
  _atom_site_thermal_displace_type
  _atom_site_B_iso_or_equiv
  _atom_site_type_symbol
  C1       1.0000 0.01074  0.11194  0.79547  Biso   1.000  C
  C2       1.0000 0.95797  0.99097  0.70992  Biso   1.000  C
  C3       1.0000 0.95785  0.99097  0.70992  Biso   1.000  C
  O1       1.0000 0.05510  0.20467  0.71176  Biso   1.000  O
  O2       1.0000 0.05499  0.20476  0.71176  Biso   1.000  O
  C4       1.0000 0.82681  0.00427  0.58595  Biso   1.000  C
  C5       1.0000 0.82684  0.00428  0.58605  Biso   1.000  C
  C6       1.0000 0.82670  0.00437  0.58595  Biso   1.000  C
  C7       1.0000 0.01421  0.88360  0.74334  Biso   1.000  C
  C8       1.0000 0.01424  0.88361  0.74345  Biso   1.000  C
  C9       1.0000 0.01420  0.88351  0.74334  Biso   1.000  C
  C10      1.0000 0.01075  0.11203  0.79547  Biso   1.000  C
  C11      1.0000 0.01063  0.11203  0.79547  Biso   1.000  C
  C12      1.0000 0.00824  0.32391  0.74150  Biso   1.000  C
  C13      1.0000 0.00812  0.32391  0.74150  Biso   1.000  C
  C14      1.0000 0.00823  0.32382  0.74150  Biso   1.000  C
  O3       1.0000 0.69986  0.06697  0.62141  Biso   1.000  O
  O4       1.0000 0.69997  0.06687  0.62141  Biso   1.000  O
  O5       1.0000 0.69985  0.06687  0.62141  Biso   1.000  O
  C15      1.0000 0.96038  0.75936  0.66066  Biso   1.000  C
  C16      1.0000 0.96026  0.75936  0.66066  Biso   1.000  C
  C17      1.0000 0.14206  0.86857  0.86947  Biso   1.000  C
  C18      1.0000 0.14194  0.86857  0.86947  Biso   1.000  C
  C19      1.0000 0.12431  0.39837  0.85730  Biso   1.000  C
  C20      1.0000 0.12419  0.39837  0.85730  Biso   1.000  C
  C21      1.0000 0.12420  0.39847  0.85730  Biso   1.000  C
  C22      1.0000 0.59644  0.98981  0.68386  Biso   1.000  C
  C23      1.0000 0.59643  0.98972  0.68386  Biso   1.000  C
  O6       1.0000 0.92745  0.66078  0.74365  Biso   1.000  O
  O7       1.0000 0.92733  0.66078  0.74365  Biso   1.000  O
  O8       1.0000 0.27087  0.81226  0.83144  Biso   1.000  O
  O9       1.0000 0.27078  0.81226  0.83155  Biso   1.000  O
  O10      1.0000 0.11169  0.34588  0.97944  Biso   1.000  O
  O11      1.0000 0.11172  0.34589  0.97954  Biso   1.000  O
  O12      1.0000 0.11159  0.34597  0.97944  Biso   1.000  O
  C24      1.0000 0.49942  0.06819  0.75367  Biso   1.000  C
  C25      1.0000 0.49930  0.06819  0.75367  Biso   1.000  C
  C26      1.0000 0.78083  0.66988  0.78831  Biso   1.000  C
  C27      1.0000 0.35146  0.73617  0.92813  Biso   1.000  C
  C28      1.0000 0.35135  0.73617  0.92813  Biso   1.000  C
  C29      1.0000 0.21899  0.40719  0.09473  Biso   1.000  C
  C30      1.0000 0.21887  0.40719  0.09473  Biso   1.000  C
  O13      1.0000 0.60658  0.13108  0.87141  Biso   1.000  O
  O14      1.0000 0.60647  0.13108  0.87141  Biso   1.000  O
  O15      1.0000 0.60648  0.13117  0.87141  Biso   1.000  O
  C31      1.0000 0.78112  0.59276  0.90524  Biso   1.000  C
  C32      1.0000 0.78114  0.59277  0.90534  Biso   1.000  C
  C33      1.0000 0.47454  0.80706  0.04107  Biso   1.000  C
  C34      1.0000 0.47453  0.80696  0.04107  Biso   1.000  C
  C35      1.0000 0.21927  0.33007  0.21165  Biso   1.000  C
  C36      1.0000 0.21915  0.33007  0.21165  Biso   1.000  C
  C37      1.0000 0.52546  0.19299  0.95890  Biso   1.000  C
  C38      1.0000 0.52535  0.19308  0.95890  Biso   1.000  C
  O16      1.0000 0.88830  0.65416  0.02053  Biso   1.000  O
  O17      1.0000 0.88829  0.65407  0.02053  Biso   1.000  O
  O18      1.0000 0.88818  0.65416  0.02053  Biso   1.000  O
  O19      1.0000 0.39341  0.86896  0.12856  Biso   1.000  O
  O20      1.0000 0.39352  0.86887  0.12856  Biso   1.000  O
  O21      1.0000 0.07266  0.33917  0.25631  Biso   1.000  O
  C39      1.0000 0.64864  0.26378  0.07183  Biso   1.000  C
  C40      1.0000 0.64867  0.26379  0.07194  Biso   1.000  C
  C41      1.0000 0.87568  0.60167  0.14266  Biso   1.000  C
  C42      1.0000 0.87579  0.60157  0.14266  Biso   1.000  C
  C43      1.0000 0.50058  0.93185  0.24630  Biso   1.000  C
  C44      1.0000 0.50046  0.93185  0.24630  Biso   1.000  C
  C45      1.0000 0.03972  0.24059  0.33931  Biso   1.000  C
  O22      1.0000 0.72923  0.18769  0.16852  Biso   1.000  O
  O23      1.0000 0.72922  0.18760  0.16852  Biso   1.000  O
  C46      1.0000 0.99176  0.67613  0.25846  Biso   1.000  C
  C47      1.0000 0.99164  0.67613  0.25846  Biso   1.000  C
  C48      1.0000 0.40366  0.01013  0.31610  Biso   1.000  C
  C49      1.0000 0.40355  0.01023  0.31610  Biso   1.000  C
  C50      1.0000 0.40354  0.01013  0.31610  Biso   1.000  C
  C51      1.0000 0.98589  0.11635  0.25662  Biso   1.000  C
  C52      1.0000 0.98578  0.11644  0.25662  Biso   1.000  C
  C53      1.0000 0.98577  0.11635  0.25662  Biso   1.000  C
  C54      1.0000 0.85804  0.13138  0.13050  Biso   1.000  C
  O24      1.0000 0.94489  0.79537  0.28820  Biso   1.000  O
  O25      1.0000 0.94488  0.79528  0.28820  Biso   1.000  O
  O26      1.0000 0.94477  0.79537  0.28820  Biso   1.000  O
  O27      1.0000 0.30003  0.93317  0.37855  Biso   1.000  O
  O28      1.0000 0.30013  0.93307  0.37855  Biso   1.000  O
  C55      1.0000 0.04213  0.00898  0.29004  Biso   1.000  C
  C56      1.0000 0.04216  0.00899  0.29014  Biso   1.000  C
  C57      1.0000 0.98926  0.88810  0.20450  Biso   1.000  C
  C58      1.0000 0.98924  0.88801  0.20450  Biso   1.000  C
  C59      1.0000 0.98914  0.88810  0.20450  Biso   1.000  C
  C60      1.0000 0.17319  0.99577  0.41402  Biso   1.000  C
  C61      1.0000 0.17318  0.99567  0.41402  Biso   1.000  C
  C62      1.0000 0.17307  0.99577  0.41402  Biso   1.000  C
  C63      1.0000 0.01074  0.11194  0.79547  Biso   1.000  C
  C64      1.0000 0.95797  0.99097  0.70992  Biso   1.000  C
  C65      1.0000 0.95785  0.99097  0.70992  Biso   1.000  C
  O29      1.0000 0.05510  0.20467  0.71176  Biso   1.000  O
  O30      1.0000 0.05499  0.20476  0.71176  Biso   1.000  O
  C66      1.0000 0.82684  0.00428  0.58605  Biso   1.000  C
  C67      1.0000 0.82681  0.00427  0.58595  Biso   1.000  C
  C68      1.0000 0.82670  0.00437  0.58595  Biso   1.000  C
  C69      1.0000 0.01421  0.88360  0.74334  Biso   1.000  C
  C70      1.0000 0.01424  0.88361  0.74345  Biso   1.000  C
  C71      1.0000 0.01420  0.88351  0.74334  Biso   1.000  C
  C72      1.0000 0.01075  0.11203  0.79547  Biso   1.000  C
  C73      1.0000 0.01063  0.11203  0.79547  Biso   1.000  C
  C74      1.0000 0.00824  0.32391  0.74150  Biso   1.000  C
  C75      1.0000 0.00812  0.32391  0.74150  Biso   1.000  C
  C76      1.0000 0.00823  0.32382  0.74150  Biso   1.000  C
  O31      1.0000 0.69986  0.06697  0.62141  Biso   1.000  O
  O32      1.0000 0.69985  0.06687  0.62141  Biso   1.000  O
  O33      1.0000 0.69997  0.06687  0.62141  Biso   1.000  O
  C77      1.0000 0.96038  0.75936  0.66066  Biso   1.000  C
  C78      1.0000 0.96026  0.75936  0.66066  Biso   1.000  C
  C79      1.0000 0.14206  0.86857  0.86947  Biso   1.000  C
  C80      1.0000 0.14194  0.86857  0.86947  Biso   1.000  C
  C81      1.0000 0.12431  0.39837  0.85730  Biso   1.000  C
  C82      1.0000 0.12419  0.39837  0.85730  Biso   1.000  C
  C83      1.0000 0.12420  0.39847  0.85730  Biso   1.000  C
  C84      1.0000 0.59644  0.98981  0.68386  Biso   1.000  C
  C85      1.0000 0.59643  0.98972  0.68386  Biso   1.000  C
  O34      1.0000 0.92745  0.66078  0.74365  Biso   1.000  O
  O35      1.0000 0.92733  0.66078  0.74365  Biso   1.000  O
  O36      1.0000 0.27087  0.81226  0.83144  Biso   1.000  O
  O37      1.0000 0.27078  0.81226  0.83155  Biso   1.000  O
  O38      1.0000 0.11169  0.34588  0.97944  Biso   1.000  O
  O39      1.0000 0.11172  0.34589  0.97954  Biso   1.000  O
  O40      1.0000 0.11159  0.34597  0.97944  Biso   1.000  O
  C86      1.0000 0.49942  0.06819  0.75367  Biso   1.000  C
  C87      1.0000 0.49930  0.06819  0.75367  Biso   1.000  C
  C88      1.0000 0.78083  0.66988  0.78831  Biso   1.000  C
  C89      1.0000 0.35146  0.73617  0.92813  Biso   1.000  C
  C90      1.0000 0.35135  0.73617  0.92813  Biso   1.000  C
  C91      1.0000 0.21899  0.40719  0.09473  Biso   1.000  C
  C92      1.0000 0.21887  0.40719  0.09473  Biso   1.000  C
  O41      1.0000 0.60647  0.13108  0.87141  Biso   1.000  O
  O42      1.0000 0.60658  0.13108  0.87141  Biso   1.000  O
  O43      1.0000 0.60648  0.13117  0.87141  Biso   1.000  O
  C93      1.0000 0.78112  0.59276  0.90524  Biso   1.000  C
  C94      1.0000 0.78114  0.59277  0.90534  Biso   1.000  C
  C95      1.0000 0.47454  0.80706  0.04107  Biso   1.000  C
  C96      1.0000 0.47453  0.80696  0.04107  Biso   1.000  C
  C97      1.0000 0.21927  0.33007  0.21165  Biso   1.000  C
  C98      1.0000 0.21915  0.33007  0.21165  Biso   1.000  C
  C99      1.0000 0.52546  0.19299  0.95890  Biso   1.000  C
  C100     1.0000 0.52535  0.19308  0.95890  Biso   1.000  C
  O44      1.0000 0.88830  0.65416  0.02053  Biso   1.000  O
  O45      1.0000 0.88829  0.65407  0.02053  Biso   1.000  O
  O46      1.0000 0.88818  0.65416  0.02053  Biso   1.000  O
  O47      1.0000 0.39341  0.86896  0.12856  Biso   1.000  O
  O48      1.0000 0.39352  0.86887  0.12856  Biso   1.000  O
  O49      1.0000 0.07266  0.33917  0.25631  Biso   1.000  O
  C101     1.0000 0.64864  0.26378  0.07183  Biso   1.000  C
  C102     1.0000 0.64867  0.26379  0.07194  Biso   1.000  C
  C103     1.0000 0.87568  0.60167  0.14266  Biso   1.000  C
  C104     1.0000 0.87579  0.60157  0.14266  Biso   1.000  C
  C105     1.0000 0.50058  0.93185  0.24630  Biso   1.000  C
  C106     1.0000 0.50046  0.93185  0.24630  Biso   1.000  C
  C107     1.0000 0.03972  0.24059  0.33931  Biso   1.000  C
  O50      1.0000 0.72923  0.18769  0.16852  Biso   1.000  O
  O51      1.0000 0.72922  0.18760  0.16852  Biso   1.000  O
  C108     1.0000 0.99176  0.67613  0.25846  Biso   1.000  C
  C109     1.0000 0.99164  0.67613  0.25846  Biso   1.000  C
  C110     1.0000 0.40366  0.01013  0.31610  Biso   1.000  C
  C111     1.0000 0.40355  0.01023  0.31610  Biso   1.000  C
  C112     1.0000 0.40354  0.01013  0.31610  Biso   1.000  C
  C113     1.0000 0.98589  0.11635  0.25662  Biso   1.000  C
  C114     1.0000 0.98578  0.11644  0.25662  Biso   1.000  C
  C115     1.0000 0.98577  0.11635  0.25662  Biso   1.000  C
  C116     1.0000 0.85804  0.13138  0.13050  Biso   1.000  C
  O52      1.0000 0.94489  0.79537  0.28820  Biso   1.000  O
  O53      1.0000 0.94488  0.79528  0.28820  Biso   1.000  O
  O54      1.0000 0.94477  0.79537  0.28820  Biso   1.000  O
  O55      1.0000 0.30003  0.93317  0.37855  Biso   1.000  O
  O56      1.0000 0.30013  0.93307  0.37855  Biso   1.000  O
  C117     1.0000 0.04213  0.00898  0.29004  Biso   1.000  C
  C118     1.0000 0.04216  0.00899  0.29014  Biso   1.000  C
  C119     1.0000 0.98926  0.88810  0.20450  Biso   1.000  C
  C120     1.0000 0.98924  0.88801  0.20450  Biso   1.000  C
  C121     1.0000 0.98914  0.88810  0.20450  Biso   1.000  C
  C122     1.0000 0.17319  0.99577  0.41402  Biso   1.000  C
  C123     1.0000 0.17318  0.99567  0.41402  Biso   1.000  C
  C124     1.0000 0.17307  0.99577  0.41402  Biso   1.000  C
  C125     1.0000 0.01074  0.11194  0.79547  Biso   1.000  C
  C126     1.0000 0.95797  0.99097  0.70992  Biso   1.000  C
  C127     1.0000 0.95785  0.99097  0.70992  Biso   1.000  C
  O57      1.0000 0.05510  0.20467  0.71176  Biso   1.000  O
  O58      1.0000 0.05499  0.20476  0.71176  Biso   1.000  O
  C128     1.0000 0.82684  0.00428  0.58605  Biso   1.000  C
  C129     1.0000 0.82681  0.00427  0.58595  Biso   1.000  C
  C130     1.0000 0.82670  0.00437  0.58595  Biso   1.000  C
  C131     1.0000 0.01421  0.88360  0.74334  Biso   1.000  C
  C132     1.0000 0.01424  0.88361  0.74345  Biso   1.000  C
  C133     1.0000 0.01420  0.88351  0.74334  Biso   1.000  C
  C134     1.0000 0.01075  0.11203  0.79547  Biso   1.000  C
  C135     1.0000 0.01063  0.11203  0.79547  Biso   1.000  C
  C136     1.0000 0.00824  0.32391  0.74150  Biso   1.000  C
  C137     1.0000 0.00812  0.32391  0.74150  Biso   1.000  C
  C138     1.0000 0.00823  0.32382  0.74150  Biso   1.000  C
  O59      1.0000 0.69985  0.06687  0.62141  Biso   1.000  O
  O60      1.0000 0.69997  0.06687  0.62141  Biso   1.000  O
  O61      1.0000 0.69986  0.06697  0.62141  Biso   1.000  O
  C139     1.0000 0.96038  0.75936  0.66066  Biso   1.000  C
  C140     1.0000 0.96026  0.75936  0.66066  Biso   1.000  C
  C141     1.0000 0.14206  0.86857  0.86947  Biso   1.000  C
  C142     1.0000 0.14194  0.86857  0.86947  Biso   1.000  C
  C143     1.0000 0.12431  0.39837  0.85730  Biso   1.000  C
  C144     1.0000 0.12419  0.39837  0.85730  Biso   1.000  C
  C145     1.0000 0.12420  0.39847  0.85730  Biso   1.000  C
  C146     1.0000 0.59644  0.98981  0.68386  Biso   1.000  C
  C147     1.0000 0.59643  0.98972  0.68386  Biso   1.000  C
  O62      1.0000 0.92745  0.66078  0.74365  Biso   1.000  O
  O63      1.0000 0.92733  0.66078  0.74365  Biso   1.000  O
  O64      1.0000 0.27087  0.81226  0.83144  Biso   1.000  O
  O65      1.0000 0.27078  0.81226  0.83155  Biso   1.000  O
  O66      1.0000 0.11169  0.34588  0.97944  Biso   1.000  O
  O67      1.0000 0.11172  0.34589  0.97954  Biso   1.000  O
  O68      1.0000 0.11159  0.34597  0.97944  Biso   1.000  O
  C148     1.0000 0.49942  0.06819  0.75367  Biso   1.000  C
  C149     1.0000 0.49930  0.06819  0.75367  Biso   1.000  C
  C150     1.0000 0.78083  0.66988  0.78831  Biso   1.000  C
  C151     1.0000 0.35146  0.73617  0.92813  Biso   1.000  C
  C152     1.0000 0.35135  0.73617  0.92813  Biso   1.000  C
  C153     1.0000 0.21899  0.40719  0.09473  Biso   1.000  C
  C154     1.0000 0.21887  0.40719  0.09473  Biso   1.000  C
  O69      1.0000 0.60647  0.13108  0.87141  Biso   1.000  O
  O70      1.0000 0.60658  0.13108  0.87141  Biso   1.000  O
  O71      1.0000 0.60648  0.13117  0.87141  Biso   1.000  O
  C155     1.0000 0.78112  0.59276  0.90524  Biso   1.000  C
  C156     1.0000 0.78114  0.59277  0.90534  Biso   1.000  C
  C157     1.0000 0.47454  0.80706  0.04107  Biso   1.000  C
  C158     1.0000 0.47453  0.80696  0.04107  Biso   1.000  C
  C159     1.0000 0.21927  0.33007  0.21165  Biso   1.000  C
  C160     1.0000 0.21915  0.33007  0.21165  Biso   1.000  C
  C161     1.0000 0.52546  0.19299  0.95890  Biso   1.000  C
  C162     1.0000 0.52535  0.19308  0.95890  Biso   1.000  C
  O72      1.0000 0.88830  0.65416  0.02053  Biso   1.000  O
  O73      1.0000 0.88829  0.65407  0.02053  Biso   1.000  O
  O74      1.0000 0.88818  0.65416  0.02053  Biso   1.000  O
  O75      1.0000 0.39341  0.86896  0.12856  Biso   1.000  O
  O76      1.0000 0.39352  0.86887  0.12856  Biso   1.000  O
  O77      1.0000 0.07266  0.33917  0.25631  Biso   1.000  O
  C163     1.0000 0.64864  0.26378  0.07183  Biso   1.000  C
  C164     1.0000 0.64867  0.26379  0.07194  Biso   1.000  C
  C165     1.0000 0.87568  0.60167  0.14266  Biso   1.000  C
  C166     1.0000 0.87579  0.60157  0.14266  Biso   1.000  C
  C167     1.0000 0.50058  0.93185  0.24630  Biso   1.000  C
  C168     1.0000 0.50046  0.93185  0.24630  Biso   1.000  C
  C169     1.0000 0.03972  0.24059  0.33931  Biso   1.000  C
  O78      1.0000 0.72923  0.18769  0.16852  Biso   1.000  O
  O79      1.0000 0.72922  0.18760  0.16852  Biso   1.000  O
  C170     1.0000 0.99176  0.67613  0.25846  Biso   1.000  C
  C171     1.0000 0.99164  0.67613  0.25846  Biso   1.000  C
  C172     1.0000 0.40366  0.01013  0.31610  Biso   1.000  C
  C173     1.0000 0.40355  0.01023  0.31610  Biso   1.000  C
  C174     1.0000 0.40354  0.01013  0.31610  Biso   1.000  C
  C175     1.0000 0.98589  0.11635  0.25662  Biso   1.000  C
  C176     1.0000 0.98578  0.11644  0.25662  Biso   1.000  C
  C177     1.0000 0.98577  0.11635  0.25662  Biso   1.000  C
  C178     1.0000 0.85804  0.13138  0.13050  Biso   1.000  C
  O80      1.0000 0.94489  0.79537  0.28820  Biso   1.000  O
  O81      1.0000 0.94488  0.79528  0.28820  Biso   1.000  O
  O82      1.0000 0.94477  0.79537  0.28820  Biso   1.000  O
  O83      1.0000 0.30003  0.93317  0.37855  Biso   1.000  O
  O84      1.0000 0.30013  0.93307  0.37855  Biso   1.000  O
  C179     1.0000 0.04213  0.00898  0.29004  Biso   1.000  C
  C180     1.0000 0.04216  0.00899  0.29014  Biso   1.000  C
  C181     1.0000 0.98926  0.88810  0.20450  Biso   1.000  C
  C182     1.0000 0.98924  0.88801  0.20450  Biso   1.000  C
  C183     1.0000 0.98914  0.88810  0.20450  Biso   1.000  C
  C184     1.0000 0.17319  0.99577  0.41402  Biso   1.000  C
  C185     1.0000 0.17318  0.99567  0.41402  Biso   1.000  C
  C186     1.0000 0.17307  0.99577  0.41402  Biso   1.000  C
  C187     1.0000 0.01074  0.11194  0.79547  Biso   1.000  C
  C188     1.0000 0.95797  0.99097  0.70992  Biso   1.000  C
  C189     1.0000 0.95785  0.99097  0.70992  Biso   1.000  C
  O85      1.0000 0.05510  0.20467  0.71176  Biso   1.000  O
  O86      1.0000 0.05499  0.20476  0.71176  Biso   1.000  O
  C190     1.0000 0.82684  0.00428  0.58605  Biso   1.000  C
  C191     1.0000 0.82681  0.00427  0.58595  Biso   1.000  C
  C192     1.0000 0.82670  0.00437  0.58595  Biso   1.000  C
  C193     1.0000 0.01421  0.88360  0.74334  Biso   1.000  C
  C194     1.0000 0.01424  0.88361  0.74345  Biso   1.000  C
  C195     1.0000 0.01420  0.88351  0.74334  Biso   1.000  C
  C196     1.0000 0.01075  0.11203  0.79547  Biso   1.000  C
  C197     1.0000 0.01063  0.11203  0.79547  Biso   1.000  C
  C198     1.0000 0.00824  0.32391  0.74150  Biso   1.000  C
  C199     1.0000 0.00812  0.32391  0.74150  Biso   1.000  C
  C200     1.0000 0.00823  0.32382  0.74150  Biso   1.000  C
  O87      1.0000 0.69985  0.06687  0.62141  Biso   1.000  O
  O88      1.0000 0.69997  0.06687  0.62141  Biso   1.000  O
  O89      1.0000 0.69986  0.06697  0.62141  Biso   1.000  O
  C201     1.0000 0.96038  0.75936  0.66066  Biso   1.000  C
  C202     1.0000 0.96026  0.75936  0.66066  Biso   1.000  C
  C203     1.0000 0.14206  0.86857  0.86947  Biso   1.000  C
  C204     1.0000 0.14194  0.86857  0.86947  Biso   1.000  C
  C205     1.0000 0.12431  0.39837  0.85730  Biso   1.000  C
  C206     1.0000 0.12419  0.39837  0.85730  Biso   1.000  C
  C207     1.0000 0.12420  0.39847  0.85730  Biso   1.000  C
  C208     1.0000 0.59644  0.98981  0.68386  Biso   1.000  C
  C209     1.0000 0.59643  0.98972  0.68386  Biso   1.000  C
  O90      1.0000 0.92745  0.66078  0.74365  Biso   1.000  O
  O91      1.0000 0.92733  0.66078  0.74365  Biso   1.000  O
  O92      1.0000 0.27087  0.81226  0.83144  Biso   1.000  O
  O93      1.0000 0.27078  0.81226  0.83155  Biso   1.000  O
  O94      1.0000 0.11169  0.34588  0.97944  Biso   1.000  O
  O95      1.0000 0.11172  0.34589  0.97954  Biso   1.000  O
  O96      1.0000 0.11159  0.34597  0.97944  Biso   1.000  O
  C210     1.0000 0.49942  0.06819  0.75367  Biso   1.000  C
  C211     1.0000 0.49930  0.06819  0.75367  Biso   1.000  C
  C212     1.0000 0.78083  0.66988  0.78831  Biso   1.000  C
  C213     1.0000 0.35146  0.73617  0.92813  Biso   1.000  C
  C214     1.0000 0.35135  0.73617  0.92813  Biso   1.000  C
  C215     1.0000 0.21899  0.40719  0.09473  Biso   1.000  C
  C216     1.0000 0.21887  0.40719  0.09473  Biso   1.000  C
  O97      1.0000 0.60647  0.13108  0.87141  Biso   1.000  O
  O98      1.0000 0.60658  0.13108  0.87141  Biso   1.000  O
  O99      1.0000 0.60648  0.13117  0.87141  Biso   1.000  O
  C217     1.0000 0.78112  0.59276  0.90524  Biso   1.000  C
  C218     1.0000 0.78114  0.59277  0.90534  Biso   1.000  C
  C219     1.0000 0.47454  0.80706  0.04107  Biso   1.000  C
  C220     1.0000 0.47453  0.80696  0.04107  Biso   1.000  C
  C221     1.0000 0.21927  0.33007  0.21165  Biso   1.000  C
  C222     1.0000 0.21915  0.33007  0.21165  Biso   1.000  C
  C223     1.0000 0.52546  0.19299  0.95890  Biso   1.000  C
  C224     1.0000 0.52535  0.19308  0.95890  Biso   1.000  C
  O100     1.0000 0.88830  0.65416  0.02053  Biso   1.000  O
  O101     1.0000 0.88829  0.65407  0.02053  Biso   1.000  O
  O102     1.0000 0.88818  0.65416  0.02053  Biso   1.000  O
  O103     1.0000 0.39341  0.86896  0.12856  Biso   1.000  O
  O104     1.0000 0.39352  0.86887  0.12856  Biso   1.000  O
  O105     1.0000 0.07266  0.33917  0.25631  Biso   1.000  O
  C225     1.0000 0.64864  0.26378  0.07183  Biso   1.000  C
  C226     1.0000 0.64867  0.26379  0.07194  Biso   1.000  C
  C227     1.0000 0.87568  0.60167  0.14266  Biso   1.000  C
  C228     1.0000 0.87579  0.60157  0.14266  Biso   1.000  C
  C229     1.0000 0.50058  0.93185  0.24630  Biso   1.000  C
  C230     1.0000 0.50046  0.93185  0.24630  Biso   1.000  C
  C231     1.0000 0.03972  0.24059  0.33931  Biso   1.000  C
  O106     1.0000 0.72923  0.18769  0.16852  Biso   1.000  O
  O107     1.0000 0.72922  0.18760  0.16852  Biso   1.000  O
  C232     1.0000 0.99176  0.67613  0.25846  Biso   1.000  C
  C233     1.0000 0.99164  0.67613  0.25846  Biso   1.000  C
  C234     1.0000 0.40366  0.01013  0.31610  Biso   1.000  C
  C235     1.0000 0.40355  0.01023  0.31610  Biso   1.000  C
  C236     1.0000 0.40354  0.01013  0.31610  Biso   1.000  C
  C237     1.0000 0.98589  0.11635  0.25662  Biso   1.000  C
  C238     1.0000 0.98578  0.11644  0.25662  Biso   1.000  C
  C239     1.0000 0.98577  0.11635  0.25662  Biso   1.000  C
  C240     1.0000 0.85804  0.13138  0.13050  Biso   1.000  C
  O108     1.0000 0.94489  0.79537  0.28820  Biso   1.000  O
  O109     1.0000 0.94488  0.79528  0.28820  Biso   1.000  O
  O110     1.0000 0.94477  0.79537  0.28820  Biso   1.000  O
  O111     1.0000 0.30003  0.93317  0.37855  Biso   1.000  O
  O112     1.0000 0.30013  0.93307  0.37855  Biso   1.000  O
  C241     1.0000 0.04213  0.00898  0.29004  Biso   1.000  C
  C242     1.0000 0.04216  0.00899  0.29014  Biso   1.000  C
  C243     1.0000 0.98926  0.88810  0.20450  Biso   1.000  C
  C244     1.0000 0.98924  0.88801  0.20450  Biso   1.000  C
  C245     1.0000 0.98914  0.88810  0.20450  Biso   1.000  C
  C246     1.0000 0.17319  0.99577  0.41402  Biso   1.000  C
  C247     1.0000 0.17318  0.99567  0.41402  Biso   1.000  C
  C248     1.0000 0.17307  0.99577  0.41402  Biso   1.000  C
  C249     1.0000 0.01074  0.11194  0.79547  Biso   1.000  C
  C250     1.0000 0.95797  0.99097  0.70992  Biso   1.000  C
  C251     1.0000 0.95785  0.99097  0.70992  Biso   1.000  C
  O113     1.0000 0.05510  0.20467  0.71176  Biso   1.000  O
  O114     1.0000 0.05499  0.20476  0.71176  Biso   1.000  O
  C252     1.0000 0.82681  0.00427  0.58595  Biso   1.000  C
  C253     1.0000 0.82684  0.00428  0.58605  Biso   1.000  C
  C254     1.0000 0.82670  0.00437  0.58595  Biso   1.000  C
  C255     1.0000 0.01421  0.88360  0.74334  Biso   1.000  C
  C256     1.0000 0.01424  0.88361  0.74345  Biso   1.000  C
  C257     1.0000 0.01420  0.88351  0.74334  Biso   1.000  C
  C258     1.0000 0.01075  0.11203  0.79547  Biso   1.000  C
  C259     1.0000 0.01063  0.11203  0.79547  Biso   1.000  C
  C260     1.0000 0.00824  0.32391  0.74150  Biso   1.000  C
  C261     1.0000 0.00812  0.32391  0.74150  Biso   1.000  C
  C262     1.0000 0.00823  0.32382  0.74150  Biso   1.000  C
  O115     1.0000 0.69997  0.06687  0.62141  Biso   1.000  O
  O116     1.0000 0.69985  0.06687  0.62141  Biso   1.000  O
  O117     1.0000 0.69986  0.06697  0.62141  Biso   1.000  O
  C263     1.0000 0.96038  0.75936  0.66066  Biso   1.000  C
  C264     1.0000 0.96026  0.75936  0.66066  Biso   1.000  C
  C265     1.0000 0.14206  0.86857  0.86947  Biso   1.000  C
  C266     1.0000 0.14194  0.86857  0.86947  Biso   1.000  C
  C267     1.0000 0.12431  0.39837  0.85730  Biso   1.000  C
  C268     1.0000 0.12419  0.39837  0.85730  Biso   1.000  C
  C269     1.0000 0.12420  0.39847  0.85730  Biso   1.000  C
  C270     1.0000 0.59644  0.98981  0.68386  Biso   1.000  C
  C271     1.0000 0.59643  0.98972  0.68386  Biso   1.000  C
  O118     1.0000 0.92745  0.66078  0.74365  Biso   1.000  O
  O119     1.0000 0.92733  0.66078  0.74365  Biso   1.000  O
  O120     1.0000 0.27087  0.81226  0.83144  Biso   1.000  O
  O121     1.0000 0.27078  0.81226  0.83155  Biso   1.000  O
  O122     1.0000 0.11169  0.34588  0.97944  Biso   1.000  O
  O123     1.0000 0.11172  0.34589  0.97954  Biso   1.000  O
  O124     1.0000 0.11159  0.34597  0.97944  Biso   1.000  O
  C272     1.0000 0.49942  0.06819  0.75367  Biso   1.000  C
  C273     1.0000 0.49930  0.06819  0.75367  Biso   1.000  C
  C274     1.0000 0.78083  0.66988  0.78831  Biso   1.000  C
  C275     1.0000 0.35146  0.73617  0.92813  Biso   1.000  C
  C276     1.0000 0.35135  0.73617  0.92813  Biso   1.000  C
  C277     1.0000 0.21899  0.40719  0.09473  Biso   1.000  C
  C278     1.0000 0.21887  0.40719  0.09473  Biso   1.000  C
  O125     1.0000 0.60658  0.13108  0.87141  Biso   1.000  O
  O126     1.0000 0.60647  0.13108  0.87141  Biso   1.000  O
  O127     1.0000 0.60648  0.13117  0.87141  Biso   1.000  O
  C279     1.0000 0.78112  0.59276  0.90524  Biso   1.000  C
  C280     1.0000 0.78114  0.59277  0.90534  Biso   1.000  C
  C281     1.0000 0.47454  0.80706  0.04107  Biso   1.000  C
  C282     1.0000 0.47453  0.80696  0.04107  Biso   1.000  C
  C283     1.0000 0.21927  0.33007  0.21165  Biso   1.000  C
  C284     1.0000 0.21915  0.33007  0.21165  Biso   1.000  C
  C285     1.0000 0.52546  0.19299  0.95890  Biso   1.000  C
  C286     1.0000 0.52535  0.19308  0.95890  Biso   1.000  C
  O128     1.0000 0.88830  0.65416  0.02053  Biso   1.000  O
  O129     1.0000 0.88829  0.65407  0.02053  Biso   1.000  O
  O130     1.0000 0.88818  0.65416  0.02053  Biso   1.000  O
  O131     1.0000 0.39341  0.86896  0.12856  Biso   1.000  O
  O132     1.0000 0.39352  0.86887  0.12856  Biso   1.000  O
  O133     1.0000 0.07266  0.33917  0.25631  Biso   1.000  O
  C287     1.0000 0.64864  0.26378  0.07183  Biso   1.000  C
  C288     1.0000 0.64867  0.26379  0.07194  Biso   1.000  C
  C289     1.0000 0.87568  0.60167  0.14266  Biso   1.000  C
  C290     1.0000 0.87579  0.60157  0.14266  Biso   1.000  C
  C291     1.0000 0.50058  0.93185  0.24630  Biso   1.000  C
  C292     1.0000 0.50046  0.93185  0.24630  Biso   1.000  C
  C293     1.0000 0.03972  0.24059  0.33931  Biso   1.000  C
  O134     1.0000 0.72923  0.18769  0.16852  Biso   1.000  O
  O135     1.0000 0.72922  0.18760  0.16852  Biso   1.000  O
  C294     1.0000 0.99176  0.67613  0.25846  Biso   1.000  C
  C295     1.0000 0.99164  0.67613  0.25846  Biso   1.000  C
  C296     1.0000 0.40366  0.01013  0.31610  Biso   1.000  C
  C297     1.0000 0.40355  0.01023  0.31610  Biso   1.000  C
  C298     1.0000 0.40354  0.01013  0.31610  Biso   1.000  C
  C299     1.0000 0.98589  0.11635  0.25662  Biso   1.000  C
  C300     1.0000 0.98578  0.11644  0.25662  Biso   1.000  C
  C301     1.0000 0.98577  0.11635  0.25662  Biso   1.000  C
  C302     1.0000 0.85804  0.13138  0.13050  Biso   1.000  C
  O136     1.0000 0.94489  0.79537  0.28820  Biso   1.000  O
  O137     1.0000 0.94488  0.79528  0.28820  Biso   1.000  O
  O138     1.0000 0.94477  0.79537  0.28820  Biso   1.000  O
  O139     1.0000 0.30003  0.93317  0.37855  Biso   1.000  O
  O140     1.0000 0.30013  0.93307  0.37855  Biso   1.000  O
  C303     1.0000 0.04213  0.00898  0.29004  Biso   1.000  C
  C304     1.0000 0.04216  0.00899  0.29014  Biso   1.000  C
  C305     1.0000 0.98926  0.88810  0.20450  Biso   1.000  C
  C306     1.0000 0.98924  0.88801  0.20450  Biso   1.000  C
  C307     1.0000 0.98914  0.88810  0.20450  Biso   1.000  C
  C308     1.0000 0.17319  0.99577  0.41402  Biso   1.000  C
  C309     1.0000 0.17318  0.99567  0.41402  Biso   1.000  C
  C310     1.0000 0.17307  0.99577  0.41402  Biso   1.000  C
  C311     1.0000 0.01074  0.11194  0.79547  Biso   1.000  C
  C312     1.0000 0.95797  0.99097  0.70992  Biso   1.000  C
  C313     1.0000 0.95785  0.99097  0.70992  Biso   1.000  C
  O141     1.0000 0.05510  0.20467  0.71176  Biso   1.000  O
  O142     1.0000 0.05499  0.20476  0.71176  Biso   1.000  O
  C314     1.0000 0.82681  0.00427  0.58595  Biso   1.000  C
  C315     1.0000 0.82684  0.00428  0.58605  Biso   1.000  C
  C316     1.0000 0.82670  0.00437  0.58595  Biso   1.000  C
  C317     1.0000 0.01421  0.88360  0.74334  Biso   1.000  C
  C318     1.0000 0.01424  0.88361  0.74345  Biso   1.000  C
  C319     1.0000 0.01420  0.88351  0.74334  Biso   1.000  C
  C320     1.0000 0.01075  0.11203  0.79547  Biso   1.000  C
  C321     1.0000 0.01063  0.11203  0.79547  Biso   1.000  C
  C322     1.0000 0.00824  0.32391  0.74150  Biso   1.000  C
  C323     1.0000 0.00812  0.32391  0.74150  Biso   1.000  C
  C324     1.0000 0.00823  0.32382  0.74150  Biso   1.000  C
  O143     1.0000 0.69997  0.06687  0.62141  Biso   1.000  O
  O144     1.0000 0.69985  0.06687  0.62141  Biso   1.000  O
  O145     1.0000 0.69986  0.06697  0.62141  Biso   1.000  O
  C325     1.0000 0.96038  0.75936  0.66066  Biso   1.000  C
  C326     1.0000 0.96026  0.75936  0.66066  Biso   1.000  C
  C327     1.0000 0.14206  0.86857  0.86947  Biso   1.000  C
  C328     1.0000 0.14194  0.86857  0.86947  Biso   1.000  C
  C329     1.0000 0.12431  0.39837  0.85730  Biso   1.000  C
  C330     1.0000 0.12419  0.39837  0.85730  Biso   1.000  C
  C331     1.0000 0.12420  0.39847  0.85730  Biso   1.000  C
  C332     1.0000 0.59644  0.98981  0.68386  Biso   1.000  C
  C333     1.0000 0.59643  0.98972  0.68386  Biso   1.000  C
  O146     1.0000 0.92745  0.66078  0.74365  Biso   1.000  O
  O147     1.0000 0.92733  0.66078  0.74365  Biso   1.000  O
  O148     1.0000 0.27087  0.81226  0.83144  Biso   1.000  O
  O149     1.0000 0.27078  0.81226  0.83155  Biso   1.000  O
  O150     1.0000 0.11169  0.34588  0.97944  Biso   1.000  O
  O151     1.0000 0.11172  0.34589  0.97954  Biso   1.000  O
  O152     1.0000 0.11159  0.34597  0.97944  Biso   1.000  O
  C334     1.0000 0.49942  0.06819  0.75367  Biso   1.000  C
  C335     1.0000 0.49930  0.06819  0.75367  Biso   1.000  C
  C336     1.0000 0.78083  0.66988  0.78831  Biso   1.000  C
  C337     1.0000 0.35146  0.73617  0.92813  Biso   1.000  C
  C338     1.0000 0.35135  0.73617  0.92813  Biso   1.000  C
  C339     1.0000 0.21899  0.40719  0.09473  Biso   1.000  C
  C340     1.0000 0.21887  0.40719  0.09473  Biso   1.000  C
  O153     1.0000 0.60658  0.13108  0.87141  Biso   1.000  O
  O154     1.0000 0.60647  0.13108  0.87141  Biso   1.000  O
  O155     1.0000 0.60648  0.13117  0.87141  Biso   1.000  O
  C341     1.0000 0.78112  0.59276  0.90524  Biso   1.000  C
  C342     1.0000 0.78114  0.59277  0.90534  Biso   1.000  C
  C343     1.0000 0.47454  0.80706  0.04107  Biso   1.000  C
  C344     1.0000 0.47453  0.80696  0.04107  Biso   1.000  C
  C345     1.0000 0.21927  0.33007  0.21165  Biso   1.000  C
  C346     1.0000 0.21915  0.33007  0.21165  Biso   1.000  C
  C347     1.0000 0.52546  0.19299  0.95890  Biso   1.000  C
  C348     1.0000 0.52535  0.19308  0.95890  Biso   1.000  C
  O156     1.0000 0.88830  0.65416  0.02053  Biso   1.000  O
  O157     1.0000 0.88829  0.65407  0.02053  Biso   1.000  O
  O158     1.0000 0.88818  0.65416  0.02053  Biso   1.000  O
  O159     1.0000 0.39341  0.86896  0.12856  Biso   1.000  O
  O160     1.0000 0.39352  0.86887  0.12856  Biso   1.000  O
  O161     1.0000 0.07266  0.33917  0.25631  Biso   1.000  O
  C349     1.0000 0.64864  0.26378  0.07183  Biso   1.000  C
  C350     1.0000 0.64867  0.26379  0.07194  Biso   1.000  C
  C351     1.0000 0.87568  0.60167  0.14266  Biso   1.000  C
  C352     1.0000 0.87579  0.60157  0.14266  Biso   1.000  C
  C353     1.0000 0.50058  0.93185  0.24630  Biso   1.000  C
  C354     1.0000 0.50046  0.93185  0.24630  Biso   1.000  C
  C355     1.0000 0.03972  0.24059  0.33931  Biso   1.000  C
  O162     1.0000 0.72923  0.18769  0.16852  Biso   1.000  O
  O163     1.0000 0.72922  0.18760  0.16852  Biso   1.000  O
  C356     1.0000 0.99176  0.67613  0.25846  Biso   1.000  C
  C357     1.0000 0.99164  0.67613  0.25846  Biso   1.000  C
  C358     1.0000 0.40366  0.01013  0.31610  Biso   1.000  C
  C359     1.0000 0.40355  0.01023  0.31610  Biso   1.000  C
  C360     1.0000 0.40354  0.01013  0.31610  Biso   1.000  C
  C361     1.0000 0.98589  0.11635  0.25662  Biso   1.000  C
  C362     1.0000 0.98578  0.11644  0.25662  Biso   1.000  C
  C363     1.0000 0.98577  0.11635  0.25662  Biso   1.000  C
  C364     1.0000 0.85804  0.13138  0.13050  Biso   1.000  C
  O164     1.0000 0.94489  0.79537  0.28820  Biso   1.000  O
  O165     1.0000 0.94488  0.79528  0.28820  Biso   1.000  O
  O166     1.0000 0.94477  0.79537  0.28820  Biso   1.000  O
  O167     1.0000 0.30003  0.93317  0.37855  Biso   1.000  O
  O168     1.0000 0.30013  0.93307  0.37855  Biso   1.000  O
  C365     1.0000 0.04213  0.00898  0.29004  Biso   1.000  C
  C366     1.0000 0.04216  0.00899  0.29014  Biso   1.000  C
  C367     1.0000 0.98926  0.88810  0.20450  Biso   1.000  C
  C368     1.0000 0.98924  0.88801  0.20450  Biso   1.000  C
  C369     1.0000 0.98914  0.88810  0.20450  Biso   1.000  C
  C370     1.0000 0.17319  0.99577  0.41402  Biso   1.000  C
  C371     1.0000 0.17318  0.99567  0.41402  Biso   1.000  C
  C372     1.0000 0.17307  0.99577  0.41402  Biso   1.000  C
