data_image0
_cell_length_a       13.652
_cell_length_b       15.707
_cell_length_c       17.744
_cell_angle_alpha    90
_cell_angle_beta     93.21
_cell_angle_gamma    90

_symmetry_space_group_name_H-M    "P 1"
_symmetry_int_tables_number       1

loop_
  _symmetry_equiv_pos_as_xyz
  'x, y, z'

loop_
  _atom_site_label
  _atom_site_occupancy
  _atom_site_fract_x
  _atom_site_fract_y
  _atom_site_fract_z
  _atom_site_thermal_displace_type
  _atom_site_B_iso_or_equiv
  _atom_site_type_symbol
  C1       1.0000 0.52661  0.43407  0.41702  Biso   1.000  C
  C2       1.0000 0.52443  0.37143  0.47663  Biso   1.000  C
  C3       1.0000 0.43991  0.47183  0.38812  Biso   1.000  C
  C4       1.0000 0.61942  0.45457  0.39083  Biso   1.000  C
  C5       1.0000 0.61143  0.32788  0.50242  Biso   1.000  C
  C6       1.0000 0.43251  0.35659  0.50581  Biso   1.000  C
  C7       1.0000 0.44108  0.53498  0.32270  Biso   1.000  C
  C8       1.0000 0.35084  0.45101  0.41730  Biso   1.000  C
  C9       1.0000 0.70338  0.41860  0.42018  Biso   1.000  C
  H1       1.0000 0.62321  0.49500  0.35132  Biso   1.000  H
  C10      1.0000 0.61408  0.25002  0.55300  Biso   1.000  C
  C11      1.0000 0.69932  0.35551  0.47714  Biso   1.000  C
  C12      1.0000 0.34903  0.39600  0.47702  Biso   1.000  C
  H2       1.0000 0.42809  0.31820  0.54679  Biso   1.000  H
  N1       1.0000 0.45974  0.48965  0.25293  Biso   1.000  N
  H3       1.0000 0.49292  0.57809  0.33342  Biso   1.000  H
  H4       1.0000 0.37724  0.56478  0.31711  Biso   1.000  H
  O1       1.0000 0.27010  0.48985  0.38383  Biso   1.000  O
  H5       1.0000 0.76487  0.43567  0.40263  Biso   1.000  H
  C13      1.0000 0.61143  0.17209  0.50242  Biso   1.000  C
  C14      1.0000 0.70860  0.25002  0.60160  Biso   1.000  C
  H6       1.0000 0.55651  0.25002  0.58528  Biso   1.000  H
  O2       1.0000 0.79072  0.32361  0.50214  Biso   1.000  O
  H7       1.0000 0.28851  0.38480  0.49892  Biso   1.000  H
  C15      1.0000 0.49998  0.52537  0.19400  Biso   1.000  C
  H8       1.0000 0.44331  0.43547  0.24972  Biso   1.000  H
  C16      1.0000 0.17400  0.47342  0.41211  Biso   1.000  C
  C17      1.0000 0.52443  0.12861  0.47663  Biso   1.000  C
  C18      1.0000 0.69932  0.14452  0.47714  Biso   1.000  C
  C19      1.0000 0.79103  0.25002  0.54764  Biso   1.000  C
  H9       1.0000 0.71258  0.19883  0.63422  Biso   1.000  H
  H10      1.0000 0.71258  0.30120  0.63422  Biso   1.000  H
  C20      1.0000 0.51638  0.46623  0.12943  Biso   1.000  C
  O3       1.0000 0.52752  0.59999  0.19502  Biso   1.000  O
  H11      1.0000 0.15909  0.41179  0.40850  Biso   1.000  H
  H12      1.0000 0.17374  0.49042  0.46590  Biso   1.000  H
  C21      1.0000 0.09988  0.52161  0.36791  Biso   1.000  C
  C22      1.0000 0.52661  0.06589  0.41702  Biso   1.000  C
  C23      1.0000 0.43251  0.14338  0.50581  Biso   1.000  C
  C24      1.0000 0.70338  0.08143  0.42018  Biso   1.000  C
  O4       1.0000 0.79072  0.17642  0.50214  Biso   1.000  O
  H13      1.0000 0.85411  0.25002  0.57902  Biso   1.000  H
  C25      1.0000 0.61120  0.43153  0.12192  Biso   1.000  C
  C26      1.0000 0.44060  0.44528  0.07852  Biso   1.000  C
  H14      1.0000 0.11894  0.58242  0.37011  Biso   1.000  H
  H15      1.0000 0.10201  0.50328  0.31463  Biso   1.000  H
  C27      1.0000 0.99608  0.51487  0.38998  Biso   1.000  C
  C28      1.0000 0.43991  0.02820  0.38812  Biso   1.000  C
  C29      1.0000 0.61942  0.04539  0.39083  Biso   1.000  C
  C30      1.0000 0.34903  0.10403  0.47702  Biso   1.000  C
  H16      1.0000 0.42809  0.18183  0.54679  Biso   1.000  H
  H17      1.0000 0.76487  0.06430  0.40263  Biso   1.000  H
  C31      1.0000 0.62580  0.37047  0.06282  Biso   1.000  C
  C32      1.0000 0.69121  0.45298  0.17052  Biso   1.000  C
  C33      1.0000 0.45710  0.39237  0.01643  Biso   1.000  C
  O5       1.0000 0.35079  0.48061  0.09060  Biso   1.000  O
  C34      1.0000 0.91082  0.56720  0.33969  Biso   1.000  C
  H18      1.0000 0.97792  0.45387  0.38902  Biso   1.000  H
  H19      1.0000 0.99400  0.53428  0.44293  Biso   1.000  H
  C35      1.0000 0.44108  0.96498  0.32270  Biso   1.000  C
  C36      1.0000 0.35084  0.04902  0.41730  Biso   1.000  C
  H20      1.0000 0.62321  0.00503  0.35132  Biso   1.000  H
  H21      1.0000 0.28851  0.11517  0.49892  Biso   1.000  H
  C37      1.0000 0.71889  0.32839  0.05972  Biso   1.000  C
  C38      1.0000 0.54728  0.35653  0.00954  Biso   1.000  C
  C39      1.0000 0.78271  0.41809  0.16262  Biso   1.000  C
  H22      1.0000 0.68251  0.49271  0.20992  Biso   1.000  H
  H23      1.0000 0.40576  0.38168  0.97928  Biso   1.000  H
  C40      1.0000 0.26997  0.45731  0.03889  Biso   1.000  C
  H24      1.0000 0.93412  0.57930  0.28951  Biso   1.000  H
  H25      1.0000 0.85111  0.53250  0.33450  Biso   1.000  H
  H26      1.0000 0.89641  0.62081  0.36509  Biso   1.000  H
  N2       1.0000 0.45974  0.01038  0.25293  Biso   1.000  N
  H27      1.0000 0.49292  0.92188  0.33342  Biso   1.000  H
  H28      1.0000 0.37724  0.93519  0.31711  Biso   1.000  H
  O6       1.0000 0.27010  0.01012  0.38383  Biso   1.000  O
  C41      1.0000 0.73592  0.25002  0.01191  Biso   1.000  C
  C42      1.0000 0.79360  0.35608  0.10798  Biso   1.000  C
  H29      1.0000 0.55747  0.32081  0.96737  Biso   1.000  H
  H30      1.0000 0.83737  0.43611  0.19400  Biso   1.000  H
  H31      1.0000 0.26551  0.39460  0.03500  Biso   1.000  H
  C43      1.0000 0.17988  0.49118  0.06610  Biso   1.000  C
  H32      1.0000 0.28070  0.48049  0.98809  Biso   1.000  H
  C44      1.0000 0.49998  0.97460  0.19400  Biso   1.000  C
  H33      1.0000 0.44331  0.06449  0.24972  Biso   1.000  H
  C45      1.0000 0.17400  0.02661  0.41211  Biso   1.000  C
  C46      1.0000 0.71889  0.17158  0.05972  Biso   1.000  C
  C47      1.0000 0.84166  0.25002  0.99131  Biso   1.000  C
  H34      1.0000 0.69087  0.25002  0.96551  Biso   1.000  H
  O7       1.0000 0.88902  0.32330  0.10759  Biso   1.000  O
  H35      1.0000 0.19057  0.55160  0.08021  Biso   1.000  H
  H36      1.0000 0.12857  0.48953  0.02438  Biso   1.000  H
  C48      1.0000 0.14323  0.44471  0.13220  Biso   1.000  C
  C49      1.0000 0.51638  0.03381  0.12943  Biso   1.000  C
  O8       1.0000 0.52752  0.90004  0.19502  Biso   1.000  O
  H37      1.0000 0.15909  0.08818  0.40850  Biso   1.000  H
  H38      1.0000 0.17374  0.00961  0.46590  Biso   1.000  H
  C50      1.0000 0.09988  0.97842  0.36791  Biso   1.000  C
  C51      1.0000 0.62580  0.12950  0.06282  Biso   1.000  C
  C52      1.0000 0.79360  0.14388  0.10798  Biso   1.000  C
  C53      1.0000 0.90330  0.25002  0.06130  Biso   1.000  C
  H39      1.0000 0.85535  0.19889  0.96100  Biso   1.000  H
  H40      1.0000 0.85535  0.30108  0.96100  Biso   1.000  H
  C54      1.0000 0.04587  0.47648  0.15122  Biso   1.000  C
  H41      1.0000 0.19024  0.45203  0.17622  Biso   1.000  H
  H42      1.0000 0.13872  0.38320  0.12051  Biso   1.000  H
  C55      1.0000 0.44060  0.05469  0.07852  Biso   1.000  C
  C56      1.0000 0.61120  0.06850  0.12192  Biso   1.000  C
  C57      1.0000 0.99608  0.98510  0.38998  Biso   1.000  C
  H43      1.0000 0.11894  0.91762  0.37011  Biso   1.000  H
  H44      1.0000 0.10201  0.99669  0.31463  Biso   1.000  H
  C58      1.0000 0.54728  0.14350  0.00954  Biso   1.000  C
  C59      1.0000 0.78271  0.08187  0.16262  Biso   1.000  C
  O9       1.0000 0.88902  0.17667  0.10759  Biso   1.000  O
  H45      1.0000 0.97327  0.25002  0.04741  Biso   1.000  H
  H46      1.0000 0.00638  0.48870  0.10471  Biso   1.000  H
  H47      1.0000 0.01284  0.43318  0.18040  Biso   1.000  H
  H48      1.0000 0.05391  0.52868  0.18119  Biso   1.000  H
  O10      1.0000 0.35079  0.01935  0.09060  Biso   1.000  O
  C60      1.0000 0.45710  0.10760  0.01643  Biso   1.000  C
  C61      1.0000 0.69121  0.04699  0.17052  Biso   1.000  C
  C62      1.0000 0.91082  0.93277  0.33969  Biso   1.000  C
  H49      1.0000 0.99400  0.96568  0.44293  Biso   1.000  H
  H50      1.0000 0.97792  0.04609  0.38902  Biso   1.000  H
  H51      1.0000 0.55747  0.17922  0.96737  Biso   1.000  H
  H52      1.0000 0.83737  0.06392  0.19400  Biso   1.000  H
  C63      1.0000 0.26997  0.04272  0.03889  Biso   1.000  C
  H53      1.0000 0.40576  0.11829  0.97928  Biso   1.000  H
  H54      1.0000 0.68251  0.00732  0.20992  Biso   1.000  H
  H55      1.0000 0.93412  0.92067  0.28951  Biso   1.000  H
  H56      1.0000 0.85111  0.96753  0.33450  Biso   1.000  H
  H57      1.0000 0.89641  0.87923  0.36509  Biso   1.000  H
  C64      1.0000 0.17988  0.00879  0.06610  Biso   1.000  C
  H58      1.0000 0.26551  0.10543  0.03500  Biso   1.000  H
  H59      1.0000 0.28070  0.01948  0.98809  Biso   1.000  H
  C65      1.0000 0.14323  0.05533  0.13220  Biso   1.000  C
  H60      1.0000 0.12857  0.01050  0.02438  Biso   1.000  H
  H61      1.0000 0.19057  0.94843  0.08021  Biso   1.000  H
  C66      1.0000 0.04587  0.02349  0.15122  Biso   1.000  C
  H62      1.0000 0.19024  0.04800  0.17622  Biso   1.000  H
  H63      1.0000 0.13872  0.11683  0.12051  Biso   1.000  H
  H64      1.0000 0.00638  0.01127  0.10471  Biso   1.000  H
  H65      1.0000 0.01284  0.06679  0.18040  Biso   1.000  H
  H66      1.0000 0.05391  0.97129  0.18119  Biso   1.000  H
  C67      1.0000 0.47343  0.56593  0.58303  Biso   1.000  C
  C68      1.0000 0.38063  0.54543  0.60922  Biso   1.000  C
  C69      1.0000 0.56014  0.52817  0.61193  Biso   1.000  C
  C70      1.0000 0.47561  0.62857  0.52342  Biso   1.000  C
  C71      1.0000 0.29659  0.58140  0.57981  Biso   1.000  C
  H67      1.0000 0.37684  0.50500  0.64873  Biso   1.000  H
  C72      1.0000 0.55889  0.46502  0.67729  Biso   1.000  C
  C73      1.0000 0.64921  0.54899  0.58269  Biso   1.000  C
  C74      1.0000 0.38862  0.67212  0.49762  Biso   1.000  C
  C75      1.0000 0.56754  0.64341  0.49418  Biso   1.000  C
  H68      1.0000 0.23510  0.56427  0.59742  Biso   1.000  H
  C76      1.0000 0.30073  0.64449  0.52291  Biso   1.000  C
  N3       1.0000 0.54031  0.51035  0.74706  Biso   1.000  N
  H69      1.0000 0.50713  0.42191  0.66662  Biso   1.000  H
  H70      1.0000 0.62281  0.43522  0.68294  Biso   1.000  H
  O11      1.0000 0.72988  0.51009  0.61622  Biso   1.000  O
  C77      1.0000 0.65102  0.60400  0.52303  Biso   1.000  C
  C78      1.0000 0.38589  0.74998  0.44699  Biso   1.000  C
  H71      1.0000 0.57188  0.68180  0.45320  Biso   1.000  H
  O12      1.0000 0.20932  0.67639  0.49785  Biso   1.000  O
  H72      1.0000 0.55673  0.56453  0.75033  Biso   1.000  H
  C79      1.0000 0.49999  0.47457  0.80599  Biso   1.000  C
  C80      1.0000 0.82605  0.52658  0.58794  Biso   1.000  C
  H73      1.0000 0.71154  0.61520  0.50112  Biso   1.000  H
  C81      1.0000 0.29137  0.74998  0.39839  Biso   1.000  C
  H74      1.0000 0.44353  0.74998  0.41471  Biso   1.000  H
  C82      1.0000 0.38862  0.82791  0.49762  Biso   1.000  C
  C83      1.0000 0.20902  0.74998  0.45241  Biso   1.000  C
  O13      1.0000 0.47252  0.40001  0.80497  Biso   1.000  O
  C84      1.0000 0.48359  0.53377  0.87062  Biso   1.000  C
  H75      1.0000 0.84088  0.58821  0.59149  Biso   1.000  H
  H76      1.0000 0.82630  0.50958  0.53409  Biso   1.000  H
  C85      1.0000 0.90009  0.47839  0.63213  Biso   1.000  C
  H77      1.0000 0.28739  0.69880  0.36582  Biso   1.000  H
  H78      1.0000 0.28739  0.80117  0.36582  Biso   1.000  H
  C86      1.0000 0.30073  0.85548  0.52291  Biso   1.000  C
  C87      1.0000 0.47561  0.87139  0.52342  Biso   1.000  C
  H79      1.0000 0.14594  0.74998  0.42103  Biso   1.000  H
  O14      1.0000 0.20932  0.82358  0.49785  Biso   1.000  O
  C88      1.0000 0.38884  0.56847  0.87807  Biso   1.000  C
  C89      1.0000 0.55945  0.55472  0.92153  Biso   1.000  C
  H80      1.0000 0.88111  0.41758  0.62993  Biso   1.000  H
  H81      1.0000 0.89804  0.49672  0.68542  Biso   1.000  H
  C90      1.0000 0.00389  0.48507  0.61001  Biso   1.000  C
  C91      1.0000 0.29659  0.91857  0.57981  Biso   1.000  C
  C92      1.0000 0.47343  0.93411  0.58303  Biso   1.000  C
  C93      1.0000 0.56754  0.85662  0.49418  Biso   1.000  C
  C94      1.0000 0.37425  0.62946  0.93722  Biso   1.000  C
  C95      1.0000 0.30883  0.54702  0.82953  Biso   1.000  C
  O15      1.0000 0.64918  0.51939  0.90940  Biso   1.000  O
  C96      1.0000 0.54295  0.60763  0.98362  Biso   1.000  C
  C97      1.0000 0.08922  0.43280  0.66030  Biso   1.000  C
  H82      1.0000 0.02213  0.54613  0.61102  Biso   1.000  H
  H83      1.0000 0.00597  0.46572  0.55712  Biso   1.000  H
  C98      1.0000 0.38063  0.95461  0.60922  Biso   1.000  C
  H84      1.0000 0.23510  0.93570  0.59742  Biso   1.000  H
  C99      1.0000 0.56014  0.97180  0.61193  Biso   1.000  C
  C100     1.0000 0.65102  0.89597  0.52303  Biso   1.000  C
  H85      1.0000 0.57188  0.81817  0.45320  Biso   1.000  H
  C101     1.0000 0.28115  0.67161  0.94033  Biso   1.000  C
  C102     1.0000 0.45269  0.64347  0.99045  Biso   1.000  C
  H86      1.0000 0.31754  0.50729  0.79013  Biso   1.000  H
  C103     1.0000 0.21734  0.58191  0.83743  Biso   1.000  C
  C104     1.0000 0.73000  0.54269  0.96110  Biso   1.000  C
  H87      1.0000 0.59421  0.61832  0.02071  Biso   1.000  H
  H88      1.0000 0.06592  0.42070  0.71054  Biso   1.000  H
  H89      1.0000 0.14893  0.46750  0.66549  Biso   1.000  H
  H90      1.0000 0.10364  0.37919  0.63490  Biso   1.000  H
  H91      1.0000 0.37684  0.99497  0.64873  Biso   1.000  H
  C105     1.0000 0.64921  0.95098  0.58269  Biso   1.000  C
  C106     1.0000 0.55889  0.03502  0.67729  Biso   1.000  C
  H92      1.0000 0.71154  0.88476  0.50112  Biso   1.000  H
  C107     1.0000 0.26412  0.74998  0.98814  Biso   1.000  C
  C108     1.0000 0.20644  0.64392  0.89201  Biso   1.000  C
  H93      1.0000 0.44257  0.67919  0.03262  Biso   1.000  H
  H94      1.0000 0.16260  0.56389  0.80599  Biso   1.000  H
  H95      1.0000 0.73453  0.60540  0.96499  Biso   1.000  H
  C109     1.0000 0.82009  0.50882  0.93389  Biso   1.000  C
  H96      1.0000 0.71934  0.51951  0.01190  Biso   1.000  H
  O16      1.0000 0.72988  0.98988  0.61622  Biso   1.000  O
  N4       1.0000 0.54031  0.98962  0.74706  Biso   1.000  N
  H97      1.0000 0.50713  0.07812  0.66662  Biso   1.000  H
  H98      1.0000 0.62281  0.06481  0.68294  Biso   1.000  H
  C110     1.0000 0.28115  0.82842  0.94033  Biso   1.000  C
  C111     1.0000 0.15839  0.74998  0.00874  Biso   1.000  C
  H99      1.0000 0.30918  0.74998  0.03454  Biso   1.000  H
  O17      1.0000 0.11102  0.67670  0.89241  Biso   1.000  O
  H100     1.0000 0.80940  0.44840  0.91984  Biso   1.000  H
  H101     1.0000 0.87140  0.51047  0.97561  Biso   1.000  H
  C112     1.0000 0.85681  0.55529  0.86780  Biso   1.000  C
  C113     1.0000 0.82605  0.97339  0.58794  Biso   1.000  C
  H102     1.0000 0.55673  0.93551  0.75033  Biso   1.000  H
  C114     1.0000 0.49999  0.02540  0.80599  Biso   1.000  C
  C115     1.0000 0.20644  0.85612  0.89201  Biso   1.000  C
  C116     1.0000 0.37425  0.87050  0.93722  Biso   1.000  C
  C117     1.0000 0.09674  0.74998  0.93869  Biso   1.000  C
  H103     1.0000 0.14462  0.69892  0.03899  Biso   1.000  H
  H104     1.0000 0.14462  0.80111  0.03899  Biso   1.000  H
  C118     1.0000 0.95410  0.52352  0.84883  Biso   1.000  C
  H105     1.0000 0.80981  0.54797  0.82382  Biso   1.000  H
  H106     1.0000 0.86133  0.61680  0.87954  Biso   1.000  H
  H107     1.0000 0.84088  0.91182  0.59149  Biso   1.000  H
  H108     1.0000 0.82630  0.99039  0.53409  Biso   1.000  H
  C119     1.0000 0.90009  0.02158  0.63213  Biso   1.000  C
  C120     1.0000 0.48359  0.96619  0.87062  Biso   1.000  C
  O18      1.0000 0.47252  0.09996  0.80497  Biso   1.000  O
  O19      1.0000 0.11102  0.82333  0.89241  Biso   1.000  O
  C121     1.0000 0.21734  0.91813  0.83743  Biso   1.000  C
  C122     1.0000 0.38884  0.93150  0.87807  Biso   1.000  C
  C123     1.0000 0.45269  0.85650  0.99045  Biso   1.000  C
  H109     1.0000 0.02670  0.74998  0.95263  Biso   1.000  H
  H110     1.0000 0.99360  0.51130  0.89534  Biso   1.000  H
  H111     1.0000 0.98721  0.56682  0.81959  Biso   1.000  H
  H112     1.0000 0.94613  0.47132  0.81880  Biso   1.000  H
  H113     1.0000 0.88111  0.08238  0.62993  Biso   1.000  H
  H114     1.0000 0.89804  0.00331  0.68542  Biso   1.000  H
  C124     1.0000 0.00389  0.01490  0.61001  Biso   1.000  C
  C125     1.0000 0.55945  0.94531  0.92153  Biso   1.000  C
  C126     1.0000 0.30883  0.95301  0.82953  Biso   1.000  C
  H115     1.0000 0.16260  0.93608  0.80599  Biso   1.000  H
  C127     1.0000 0.54295  0.89240  0.98362  Biso   1.000  C
  H116     1.0000 0.44257  0.82078  0.03262  Biso   1.000  H
  H117     1.0000 0.02213  0.95391  0.61102  Biso   1.000  H
  C128     1.0000 0.08922  0.06717  0.66030  Biso   1.000  C
  H118     1.0000 0.00597  0.03432  0.55712  Biso   1.000  H
  O20      1.0000 0.64918  0.98065  0.90940  Biso   1.000  O
  H119     1.0000 0.31754  0.99268  0.79013  Biso   1.000  H
  H120     1.0000 0.59421  0.88171  0.02071  Biso   1.000  H
  H121     1.0000 0.06592  0.07926  0.71054  Biso   1.000  H
  H122     1.0000 0.14893  0.03247  0.66549  Biso   1.000  H
  H123     1.0000 0.10364  0.12077  0.63490  Biso   1.000  H
  C129     1.0000 0.73000  0.95728  0.96110  Biso   1.000  C
  H124     1.0000 0.73453  0.89457  0.96499  Biso   1.000  H
  C130     1.0000 0.82009  0.99121  0.93389  Biso   1.000  C
  H125     1.0000 0.71934  0.98052  0.01190  Biso   1.000  H
  H126     1.0000 0.87140  0.98950  0.97561  Biso   1.000  H
  C131     1.0000 0.85681  0.94467  0.86780  Biso   1.000  C
  H127     1.0000 0.80940  0.05157  0.91984  Biso   1.000  H
  C132     1.0000 0.95410  0.97651  0.84883  Biso   1.000  C
  H128     1.0000 0.80981  0.95200  0.82382  Biso   1.000  H
  H129     1.0000 0.86133  0.88317  0.87954  Biso   1.000  H
  H130     1.0000 0.99360  0.98867  0.89534  Biso   1.000  H
  H131     1.0000 0.98721  0.93321  0.81959  Biso   1.000  H
  H132     1.0000 0.94613  0.02871  0.81880  Biso   1.000  H
