data_image0
_cell_length_a       7.16
_cell_length_b       8.723
_cell_length_c       9.277
_cell_angle_alpha    90.88
_cell_angle_beta     100.91
_cell_angle_gamma    114.13

_symmetry_space_group_name_H-M    "P 1"
_symmetry_int_tables_number       1

loop_
  _symmetry_equiv_pos_as_xyz
  'x, y, z'

loop_
  _atom_site_label
  _atom_site_occupancy
  _atom_site_fract_x
  _atom_site_fract_y
  _atom_site_fract_z
  _atom_site_thermal_displace_type
  _atom_site_B_iso_or_equiv
  _atom_site_type_symbol
  C1       1.0000 0.97283  0.85905  0.71707  Biso   1.000  C
  C2       1.0000 0.92009  0.73899  0.60063  Biso   1.000  C
  C3       1.0000 0.92023  0.73899  0.60063  Biso   1.000  C
  C4       1.0000 0.83447  0.92694  0.73771  Biso   1.000  C
  C5       1.0000 0.83461  0.92694  0.73771  Biso   1.000  C
  F1       1.0000 0.16121  0.91507  0.80824  Biso   1.000  F
  F2       1.0000 0.16135  0.91507  0.80824  Biso   1.000  F
  C6       1.0000 0.73136  0.68910  0.50075  Biso   1.000  C
  C7       1.0000 0.73150  0.68910  0.50075  Biso   1.000  C
  C8       1.0000 0.97269  0.85905  0.71707  Biso   1.000  C
  C9       1.0000 0.97276  0.85893  0.71707  Biso   1.000  C
  F3       1.0000 0.05461  0.67406  0.58165  Biso   1.000  F
  F4       1.0000 0.05454  0.67394  0.58165  Biso   1.000  F
  F5       1.0000 0.05468  0.67394  0.58165  Biso   1.000  F
  O1       1.0000 0.88294  0.04356  0.85802  Biso   1.000  O
  O2       1.0000 0.88308  0.04356  0.85802  Biso   1.000  O
  C10      1.0000 0.64386  0.87432  0.63915  Biso   1.000  C
  C11      1.0000 0.64400  0.87432  0.63915  Biso   1.000  C
  O3       1.0000 0.67159  0.56385  0.38497  Biso   1.000  O
  O4       1.0000 0.67173  0.56385  0.38497  Biso   1.000  O
  C12      1.0000 0.59350  0.75692  0.52073  Biso   1.000  C
  C13      1.0000 0.59364  0.75692  0.52073  Biso   1.000  C
  C14      1.0000 0.02846  0.20192  0.85129  Biso   1.000  C
  C15      1.0000 0.02860  0.20192  0.85129  Biso   1.000  C
  F6       1.0000 0.50947  0.93950  0.65814  Biso   1.000  F
  F7       1.0000 0.50961  0.93950  0.65814  Biso   1.000  F
  C16      1.0000 0.76211  0.60997  0.26743  Biso   1.000  C
  C17      1.0000 0.76225  0.60997  0.26743  Biso   1.000  C
  F8       1.0000 0.40914  0.70789  0.42493  Biso   1.000  F
  F9       1.0000 0.40928  0.70789  0.42493  Biso   1.000  F
  N1       1.0000 0.09865  0.23253  0.72679  Biso   1.000  N
  N2       1.0000 0.09851  0.23253  0.72679  Biso   1.000  N
  N3       1.0000 0.08216  0.30568  0.97115  Biso   1.000  N
  N4       1.0000 0.08209  0.30555  0.97115  Biso   1.000  N
  N5       1.0000 0.08202  0.30568  0.97115  Biso   1.000  N
  N6       1.0000 0.90119  0.76744  0.27328  Biso   1.000  N
  N7       1.0000 0.90133  0.76744  0.27328  Biso   1.000  N
  N8       1.0000 0.69418  0.48680  0.15971  Biso   1.000  N
  N9       1.0000 0.69432  0.48680  0.15971  Biso   1.000  N
  C18      1.0000 0.23769  0.38998  0.73253  Biso   1.000  C
  C19      1.0000 0.22001  0.46189  0.95691  Biso   1.000  C
  C20      1.0000 0.21987  0.46189  0.95691  Biso   1.000  C
  C21      1.0000 0.97137  0.79804  0.14878  Biso   1.000  C
  C22      1.0000 0.97151  0.79804  0.14878  Biso   1.000  C
  C23      1.0000 0.77993  0.53806  0.04304  Biso   1.000  C
  O5       1.0000 0.32827  0.43623  0.61498  Biso   1.000  O
  O6       1.0000 0.32841  0.43623  0.61498  Biso   1.000  O
  N10      1.0000 0.30562  0.51315  0.84025  Biso   1.000  N
  N11      1.0000 0.30576  0.51315  0.84025  Biso   1.000  N
  O7       1.0000 0.27419  0.57089  0.07434  Biso   1.000  O
  O8       1.0000 0.27405  0.57089  0.07434  Biso   1.000  O
  O9       1.0000 0.11686  0.95639  0.14194  Biso   1.000  O
  O10      1.0000 0.11700  0.95639  0.14194  Biso   1.000  O
  N12      1.0000 0.91771  0.69440  0.02881  Biso   1.000  N
  N13      1.0000 0.91785  0.69440  0.02881  Biso   1.000  N
  O11      1.0000 0.72575  0.42906  0.92561  Biso   1.000  O
  C24      1.0000 0.26844  0.31085  0.49920  Biso   1.000  C
  C25      1.0000 0.26858  0.31085  0.49920  Biso   1.000  C
  C26      1.0000 0.41185  0.74460  0.06364  Biso   1.000  C
  C27      1.0000 0.16543  0.07315  0.26235  Biso   1.000  C
  C28      1.0000 0.16529  0.07315  0.26235  Biso   1.000  C
  C29      1.0000 0.58812  0.25536  0.93643  Biso   1.000  C
  C30      1.0000 0.58798  0.25536  0.93643  Biso   1.000  C
  C31      1.0000 0.40636  0.24316  0.47923  Biso   1.000  C
  C32      1.0000 0.40630  0.24303  0.47923  Biso   1.000  C
  C33      1.0000 0.40650  0.24316  0.47923  Biso   1.000  C
  C34      1.0000 0.40644  0.24303  0.47923  Biso   1.000  C
  C35      1.0000 0.07974  0.26097  0.39943  Biso   1.000  C
  C36      1.0000 0.07988  0.26097  0.39943  Biso   1.000  C
  H1       1.0000 0.33934  0.79214  0.98980  Biso   1.000  H
  H2       1.0000 0.33948  0.79214  0.98980  Biso   1.000  H
  H3       1.0000 0.53806  0.74875  0.03395  Biso   1.000  H
  H4       1.0000 0.45145  0.81049  0.15966  Biso   1.000  H
  H5       1.0000 0.53800  0.74863  0.03395  Biso   1.000  H
  H6       1.0000 0.45131  0.81049  0.15966  Biso   1.000  H
  C37      1.0000 0.35600  0.12575  0.36080  Biso   1.000  C
  C38      1.0000 0.02721  0.14104  0.28299  Biso   1.000  C
  C39      1.0000 0.35594  0.12563  0.36080  Biso   1.000  C
  C40      1.0000 0.35614  0.12575  0.36080  Biso   1.000  C
  C41      1.0000 0.02735  0.14104  0.28299  Biso   1.000  C
  H7       1.0000 0.46194  0.25132  0.96601  Biso   1.000  H
  H8       1.0000 0.54849  0.18946  0.84029  Biso   1.000  H
  H9       1.0000 0.66052  0.20794  0.01015  Biso   1.000  H
  H10      1.0000 0.66060  0.20781  0.01015  Biso   1.000  H
  H11      1.0000 0.66046  0.20781  0.01015  Biso   1.000  H
  F10      1.0000 0.59066  0.29206  0.57503  Biso   1.000  F
  F11      1.0000 0.59080  0.29206  0.57503  Biso   1.000  F
  F12      1.0000 0.94543  0.32602  0.41841  Biso   1.000  F
  F13      1.0000 0.94529  0.32602  0.41841  Biso   1.000  F
  F14      1.0000 0.49036  0.06046  0.34193  Biso   1.000  F
  F15      1.0000 0.49050  0.06046  0.34193  Biso   1.000  F
  F16      1.0000 0.83876  0.08489  0.19182  Biso   1.000  F
  F17      1.0000 0.83862  0.08489  0.19182  Biso   1.000  F
  C42      1.0000 0.97283  0.85905  0.71707  Biso   1.000  C
  C43      1.0000 0.92009  0.73899  0.60063  Biso   1.000  C
  C44      1.0000 0.92023  0.73899  0.60063  Biso   1.000  C
  C45      1.0000 0.83447  0.92694  0.73771  Biso   1.000  C
  C46      1.0000 0.83461  0.92694  0.73771  Biso   1.000  C
  F18      1.0000 0.16121  0.91507  0.80824  Biso   1.000  F
  F19      1.0000 0.16135  0.91507  0.80824  Biso   1.000  F
  C47      1.0000 0.73136  0.68910  0.50075  Biso   1.000  C
  C48      1.0000 0.73150  0.68910  0.50075  Biso   1.000  C
  C49      1.0000 0.97269  0.85905  0.71707  Biso   1.000  C
  C50      1.0000 0.97276  0.85893  0.71707  Biso   1.000  C
  F20      1.0000 0.05461  0.67406  0.58165  Biso   1.000  F
  F21      1.0000 0.05454  0.67394  0.58165  Biso   1.000  F
  F22      1.0000 0.05468  0.67394  0.58165  Biso   1.000  F
  O12      1.0000 0.88294  0.04356  0.85802  Biso   1.000  O
  O13      1.0000 0.88308  0.04356  0.85802  Biso   1.000  O
  C51      1.0000 0.64386  0.87432  0.63915  Biso   1.000  C
  C52      1.0000 0.64400  0.87432  0.63915  Biso   1.000  C
  O14      1.0000 0.67159  0.56385  0.38497  Biso   1.000  O
  O15      1.0000 0.67173  0.56385  0.38497  Biso   1.000  O
  C53      1.0000 0.59350  0.75692  0.52073  Biso   1.000  C
  C54      1.0000 0.59364  0.75692  0.52073  Biso   1.000  C
  C55      1.0000 0.02846  0.20192  0.85129  Biso   1.000  C
  C56      1.0000 0.02860  0.20192  0.85129  Biso   1.000  C
  F23      1.0000 0.50947  0.93950  0.65814  Biso   1.000  F
  F24      1.0000 0.50961  0.93950  0.65814  Biso   1.000  F
  C57      1.0000 0.76211  0.60997  0.26743  Biso   1.000  C
  C58      1.0000 0.76225  0.60997  0.26743  Biso   1.000  C
  F25      1.0000 0.40914  0.70789  0.42493  Biso   1.000  F
  F26      1.0000 0.40928  0.70789  0.42493  Biso   1.000  F
  N14      1.0000 0.09865  0.23253  0.72679  Biso   1.000  N
  N15      1.0000 0.09851  0.23253  0.72679  Biso   1.000  N
  N16      1.0000 0.08209  0.30555  0.97115  Biso   1.000  N
  N17      1.0000 0.08216  0.30568  0.97115  Biso   1.000  N
  N18      1.0000 0.08202  0.30568  0.97115  Biso   1.000  N
  N19      1.0000 0.90119  0.76744  0.27328  Biso   1.000  N
  N20      1.0000 0.90133  0.76744  0.27328  Biso   1.000  N
  N21      1.0000 0.69418  0.48680  0.15971  Biso   1.000  N
  N22      1.0000 0.69432  0.48680  0.15971  Biso   1.000  N
  C59      1.0000 0.23769  0.38998  0.73253  Biso   1.000  C
  C60      1.0000 0.22001  0.46189  0.95691  Biso   1.000  C
  C61      1.0000 0.21987  0.46189  0.95691  Biso   1.000  C
  C62      1.0000 0.97137  0.79804  0.14878  Biso   1.000  C
  C63      1.0000 0.97151  0.79804  0.14878  Biso   1.000  C
  C64      1.0000 0.77993  0.53806  0.04304  Biso   1.000  C
  O16      1.0000 0.32827  0.43623  0.61498  Biso   1.000  O
  O17      1.0000 0.32841  0.43623  0.61498  Biso   1.000  O
  N23      1.0000 0.30562  0.51315  0.84025  Biso   1.000  N
  N24      1.0000 0.30576  0.51315  0.84025  Biso   1.000  N
  O18      1.0000 0.27419  0.57089  0.07434  Biso   1.000  O
  O19      1.0000 0.27405  0.57089  0.07434  Biso   1.000  O
  O20      1.0000 0.11686  0.95639  0.14194  Biso   1.000  O
  O21      1.0000 0.11700  0.95639  0.14194  Biso   1.000  O
  N25      1.0000 0.91771  0.69440  0.02881  Biso   1.000  N
  N26      1.0000 0.91785  0.69440  0.02881  Biso   1.000  N
  O22      1.0000 0.72575  0.42906  0.92561  Biso   1.000  O
  C65      1.0000 0.26844  0.31085  0.49920  Biso   1.000  C
  C66      1.0000 0.26858  0.31085  0.49920  Biso   1.000  C
  C67      1.0000 0.41185  0.74460  0.06364  Biso   1.000  C
  C68      1.0000 0.16543  0.07315  0.26235  Biso   1.000  C
  C69      1.0000 0.16529  0.07315  0.26235  Biso   1.000  C
  C70      1.0000 0.58812  0.25536  0.93643  Biso   1.000  C
  C71      1.0000 0.58798  0.25536  0.93643  Biso   1.000  C
  C72      1.0000 0.07974  0.26097  0.39943  Biso   1.000  C
  C73      1.0000 0.07988  0.26097  0.39943  Biso   1.000  C
  C74      1.0000 0.40636  0.24316  0.47923  Biso   1.000  C
  C75      1.0000 0.40630  0.24303  0.47923  Biso   1.000  C
  C76      1.0000 0.40650  0.24316  0.47923  Biso   1.000  C
  C77      1.0000 0.40644  0.24303  0.47923  Biso   1.000  C
  H12      1.0000 0.33934  0.79214  0.98980  Biso   1.000  H
  H13      1.0000 0.33948  0.79214  0.98980  Biso   1.000  H
  H14      1.0000 0.53806  0.74875  0.03395  Biso   1.000  H
  H15      1.0000 0.45145  0.81049  0.15966  Biso   1.000  H
  H16      1.0000 0.53800  0.74863  0.03395  Biso   1.000  H
  H17      1.0000 0.45131  0.81049  0.15966  Biso   1.000  H
  C78      1.0000 0.02721  0.14104  0.28299  Biso   1.000  C
  C79      1.0000 0.35594  0.12563  0.36080  Biso   1.000  C
  C80      1.0000 0.02735  0.14104  0.28299  Biso   1.000  C
  C81      1.0000 0.35600  0.12575  0.36080  Biso   1.000  C
  C82      1.0000 0.35614  0.12575  0.36080  Biso   1.000  C
  H18      1.0000 0.46194  0.25132  0.96601  Biso   1.000  H
  H19      1.0000 0.54849  0.18946  0.84029  Biso   1.000  H
  H20      1.0000 0.66052  0.20794  0.01015  Biso   1.000  H
  H21      1.0000 0.66060  0.20781  0.01015  Biso   1.000  H
  H22      1.0000 0.66046  0.20781  0.01015  Biso   1.000  H
  F27      1.0000 0.94543  0.32602  0.41841  Biso   1.000  F
  F28      1.0000 0.94529  0.32602  0.41841  Biso   1.000  F
  F29      1.0000 0.59066  0.29206  0.57503  Biso   1.000  F
  F30      1.0000 0.59080  0.29206  0.57503  Biso   1.000  F
  F31      1.0000 0.83876  0.08489  0.19182  Biso   1.000  F
  F32      1.0000 0.83862  0.08489  0.19182  Biso   1.000  F
  F33      1.0000 0.49036  0.06046  0.34193  Biso   1.000  F
  F34      1.0000 0.49050  0.06046  0.34193  Biso   1.000  F
  C83      1.0000 0.97283  0.85905  0.71707  Biso   1.000  C
  C84      1.0000 0.92009  0.73899  0.60063  Biso   1.000  C
  C85      1.0000 0.92023  0.73899  0.60063  Biso   1.000  C
  C86      1.0000 0.83447  0.92694  0.73771  Biso   1.000  C
  C87      1.0000 0.83461  0.92694  0.73771  Biso   1.000  C
  F35      1.0000 0.16121  0.91507  0.80824  Biso   1.000  F
  F36      1.0000 0.16135  0.91507  0.80824  Biso   1.000  F
  C88      1.0000 0.73136  0.68910  0.50075  Biso   1.000  C
  C89      1.0000 0.73150  0.68910  0.50075  Biso   1.000  C
  C90      1.0000 0.97269  0.85905  0.71707  Biso   1.000  C
  C91      1.0000 0.97276  0.85893  0.71707  Biso   1.000  C
  F37      1.0000 0.05461  0.67406  0.58165  Biso   1.000  F
  F38      1.0000 0.05454  0.67394  0.58165  Biso   1.000  F
  F39      1.0000 0.05468  0.67394  0.58165  Biso   1.000  F
  C92      1.0000 0.64386  0.87432  0.63915  Biso   1.000  C
  C93      1.0000 0.64400  0.87432  0.63915  Biso   1.000  C
  O23      1.0000 0.88294  0.04356  0.85802  Biso   1.000  O
  O24      1.0000 0.88308  0.04356  0.85802  Biso   1.000  O
  O25      1.0000 0.67159  0.56385  0.38497  Biso   1.000  O
  O26      1.0000 0.67173  0.56385  0.38497  Biso   1.000  O
  C94      1.0000 0.59350  0.75692  0.52073  Biso   1.000  C
  C95      1.0000 0.59364  0.75692  0.52073  Biso   1.000  C
  F40      1.0000 0.50947  0.93950  0.65814  Biso   1.000  F
  F41      1.0000 0.50961  0.93950  0.65814  Biso   1.000  F
  C96      1.0000 0.02846  0.20192  0.85129  Biso   1.000  C
  C97      1.0000 0.02860  0.20192  0.85129  Biso   1.000  C
  C98      1.0000 0.76211  0.60997  0.26743  Biso   1.000  C
  C99      1.0000 0.76225  0.60997  0.26743  Biso   1.000  C
  F42      1.0000 0.40914  0.70789  0.42493  Biso   1.000  F
  F43      1.0000 0.40928  0.70789  0.42493  Biso   1.000  F
  N27      1.0000 0.09865  0.23253  0.72679  Biso   1.000  N
  N28      1.0000 0.09851  0.23253  0.72679  Biso   1.000  N
  N29      1.0000 0.08216  0.30568  0.97115  Biso   1.000  N
  N30      1.0000 0.08209  0.30555  0.97115  Biso   1.000  N
  N31      1.0000 0.08202  0.30568  0.97115  Biso   1.000  N
  N32      1.0000 0.90119  0.76744  0.27328  Biso   1.000  N
  N33      1.0000 0.90133  0.76744  0.27328  Biso   1.000  N
  N34      1.0000 0.69418  0.48680  0.15971  Biso   1.000  N
  N35      1.0000 0.69432  0.48680  0.15971  Biso   1.000  N
  C100     1.0000 0.23769  0.38998  0.73253  Biso   1.000  C
  C101     1.0000 0.22001  0.46189  0.95691  Biso   1.000  C
  C102     1.0000 0.21987  0.46189  0.95691  Biso   1.000  C
  C103     1.0000 0.97137  0.79804  0.14878  Biso   1.000  C
  C104     1.0000 0.97151  0.79804  0.14878  Biso   1.000  C
  C105     1.0000 0.77993  0.53806  0.04304  Biso   1.000  C
  O27      1.0000 0.32827  0.43623  0.61498  Biso   1.000  O
  O28      1.0000 0.32841  0.43623  0.61498  Biso   1.000  O
  N36      1.0000 0.30562  0.51315  0.84025  Biso   1.000  N
  N37      1.0000 0.30576  0.51315  0.84025  Biso   1.000  N
  O29      1.0000 0.27419  0.57089  0.07434  Biso   1.000  O
  O30      1.0000 0.27405  0.57089  0.07434  Biso   1.000  O
  O31      1.0000 0.11686  0.95639  0.14194  Biso   1.000  O
  O32      1.0000 0.11700  0.95639  0.14194  Biso   1.000  O
  N38      1.0000 0.91771  0.69440  0.02881  Biso   1.000  N
  N39      1.0000 0.91785  0.69440  0.02881  Biso   1.000  N
  O33      1.0000 0.72575  0.42906  0.92561  Biso   1.000  O
  C106     1.0000 0.26844  0.31085  0.49920  Biso   1.000  C
  C107     1.0000 0.26858  0.31085  0.49920  Biso   1.000  C
  C108     1.0000 0.41185  0.74460  0.06364  Biso   1.000  C
  C109     1.0000 0.16543  0.07315  0.26235  Biso   1.000  C
  C110     1.0000 0.16529  0.07315  0.26235  Biso   1.000  C
  C111     1.0000 0.58812  0.25536  0.93643  Biso   1.000  C
  C112     1.0000 0.58798  0.25536  0.93643  Biso   1.000  C
  C113     1.0000 0.40636  0.24316  0.47923  Biso   1.000  C
  C114     1.0000 0.40630  0.24303  0.47923  Biso   1.000  C
  C115     1.0000 0.40650  0.24316  0.47923  Biso   1.000  C
  C116     1.0000 0.40644  0.24303  0.47923  Biso   1.000  C
  C117     1.0000 0.07974  0.26097  0.39943  Biso   1.000  C
  C118     1.0000 0.07988  0.26097  0.39943  Biso   1.000  C
  H23      1.0000 0.33934  0.79214  0.98980  Biso   1.000  H
  H24      1.0000 0.33948  0.79214  0.98980  Biso   1.000  H
  H25      1.0000 0.53806  0.74875  0.03395  Biso   1.000  H
  H26      1.0000 0.45145  0.81049  0.15966  Biso   1.000  H
  H27      1.0000 0.53800  0.74863  0.03395  Biso   1.000  H
  H28      1.0000 0.45131  0.81049  0.15966  Biso   1.000  H
  C119     1.0000 0.35600  0.12575  0.36080  Biso   1.000  C
  C120     1.0000 0.02721  0.14104  0.28299  Biso   1.000  C
  C121     1.0000 0.35594  0.12563  0.36080  Biso   1.000  C
  C122     1.0000 0.35614  0.12575  0.36080  Biso   1.000  C
  C123     1.0000 0.02735  0.14104  0.28299  Biso   1.000  C
  H29      1.0000 0.46194  0.25132  0.96601  Biso   1.000  H
  H30      1.0000 0.54849  0.18946  0.84029  Biso   1.000  H
  H31      1.0000 0.66052  0.20794  0.01015  Biso   1.000  H
  H32      1.0000 0.66060  0.20781  0.01015  Biso   1.000  H
  H33      1.0000 0.66046  0.20781  0.01015  Biso   1.000  H
  F44      1.0000 0.59066  0.29206  0.57503  Biso   1.000  F
  F45      1.0000 0.59080  0.29206  0.57503  Biso   1.000  F
  F46      1.0000 0.94543  0.32602  0.41841  Biso   1.000  F
  F47      1.0000 0.94529  0.32602  0.41841  Biso   1.000  F
  F48      1.0000 0.49036  0.06046  0.34193  Biso   1.000  F
  F49      1.0000 0.49050  0.06046  0.34193  Biso   1.000  F
  F50      1.0000 0.83876  0.08489  0.19182  Biso   1.000  F
  F51      1.0000 0.83862  0.08489  0.19182  Biso   1.000  F
  C124     1.0000 0.97283  0.85905  0.71707  Biso   1.000  C
  C125     1.0000 0.83447  0.92694  0.73771  Biso   1.000  C
  C126     1.0000 0.83461  0.92694  0.73771  Biso   1.000  C
  C127     1.0000 0.92009  0.73899  0.60063  Biso   1.000  C
  C128     1.0000 0.92023  0.73899  0.60063  Biso   1.000  C
  F52      1.0000 0.16121  0.91507  0.80824  Biso   1.000  F
  F53      1.0000 0.16135  0.91507  0.80824  Biso   1.000  F
  O34      1.0000 0.88294  0.04356  0.85802  Biso   1.000  O
  O35      1.0000 0.88308  0.04356  0.85802  Biso   1.000  O
  C129     1.0000 0.64386  0.87432  0.63915  Biso   1.000  C
  C130     1.0000 0.97269  0.85905  0.71707  Biso   1.000  C
  C131     1.0000 0.64400  0.87432  0.63915  Biso   1.000  C
  C132     1.0000 0.97276  0.85893  0.71707  Biso   1.000  C
  C133     1.0000 0.73136  0.68910  0.50075  Biso   1.000  C
  C134     1.0000 0.73150  0.68910  0.50075  Biso   1.000  C
  F54      1.0000 0.05461  0.67406  0.58165  Biso   1.000  F
  F55      1.0000 0.05454  0.67394  0.58165  Biso   1.000  F
  F56      1.0000 0.05468  0.67394  0.58165  Biso   1.000  F
  C135     1.0000 0.02846  0.20192  0.85129  Biso   1.000  C
  C136     1.0000 0.02860  0.20192  0.85129  Biso   1.000  C
  F57      1.0000 0.50947  0.93950  0.65814  Biso   1.000  F
  C137     1.0000 0.59350  0.75692  0.52073  Biso   1.000  C
  F58      1.0000 0.50961  0.93950  0.65814  Biso   1.000  F
  C138     1.0000 0.59364  0.75692  0.52073  Biso   1.000  C
  O36      1.0000 0.67159  0.56385  0.38497  Biso   1.000  O
  O37      1.0000 0.67173  0.56385  0.38497  Biso   1.000  O
  N40      1.0000 0.09865  0.23253  0.72679  Biso   1.000  N
  N41      1.0000 0.09851  0.23253  0.72679  Biso   1.000  N
  N42      1.0000 0.08216  0.30568  0.97115  Biso   1.000  N
  N43      1.0000 0.08209  0.30555  0.97115  Biso   1.000  N
  N44      1.0000 0.08202  0.30568  0.97115  Biso   1.000  N
  F59      1.0000 0.40914  0.70789  0.42493  Biso   1.000  F
  F60      1.0000 0.40928  0.70789  0.42493  Biso   1.000  F
  C139     1.0000 0.76211  0.60997  0.26743  Biso   1.000  C
  C140     1.0000 0.76225  0.60997  0.26743  Biso   1.000  C
  C141     1.0000 0.23769  0.38998  0.73253  Biso   1.000  C
  C142     1.0000 0.22001  0.46189  0.95691  Biso   1.000  C
  C143     1.0000 0.21987  0.46189  0.95691  Biso   1.000  C
  N45      1.0000 0.90119  0.76744  0.27328  Biso   1.000  N
  N46      1.0000 0.90133  0.76744  0.27328  Biso   1.000  N
  N47      1.0000 0.69418  0.48680  0.15971  Biso   1.000  N
  N48      1.0000 0.69432  0.48680  0.15971  Biso   1.000  N
  N49      1.0000 0.30562  0.51315  0.84025  Biso   1.000  N
  O38      1.0000 0.32827  0.43623  0.61498  Biso   1.000  O
  N50      1.0000 0.30576  0.51315  0.84025  Biso   1.000  N
  O39      1.0000 0.32841  0.43623  0.61498  Biso   1.000  O
  O40      1.0000 0.27419  0.57089  0.07434  Biso   1.000  O
  O41      1.0000 0.27405  0.57089  0.07434  Biso   1.000  O
  C144     1.0000 0.97137  0.79804  0.14878  Biso   1.000  C
  C145     1.0000 0.97151  0.79804  0.14878  Biso   1.000  C
  C146     1.0000 0.77993  0.53806  0.04304  Biso   1.000  C
  C147     1.0000 0.26844  0.31085  0.49920  Biso   1.000  C
  C148     1.0000 0.26858  0.31085  0.49920  Biso   1.000  C
  C149     1.0000 0.41185  0.74460  0.06364  Biso   1.000  C
  O42      1.0000 0.11686  0.95639  0.14194  Biso   1.000  O
  O43      1.0000 0.11700  0.95639  0.14194  Biso   1.000  O
  N51      1.0000 0.91771  0.69440  0.02881  Biso   1.000  N
  N52      1.0000 0.91785  0.69440  0.02881  Biso   1.000  N
  O44      1.0000 0.72575  0.42906  0.92561  Biso   1.000  O
  C150     1.0000 0.40636  0.24316  0.47923  Biso   1.000  C
  C151     1.0000 0.07974  0.26097  0.39943  Biso   1.000  C
  C152     1.0000 0.40630  0.24303  0.47923  Biso   1.000  C
  C153     1.0000 0.40650  0.24316  0.47923  Biso   1.000  C
  C154     1.0000 0.07988  0.26097  0.39943  Biso   1.000  C
  C155     1.0000 0.40644  0.24303  0.47923  Biso   1.000  C
  H34      1.0000 0.33934  0.79214  0.98980  Biso   1.000  H
  H35      1.0000 0.33948  0.79214  0.98980  Biso   1.000  H
  H36      1.0000 0.53806  0.74875  0.03395  Biso   1.000  H
  H37      1.0000 0.45145  0.81049  0.15966  Biso   1.000  H
  H38      1.0000 0.53800  0.74863  0.03395  Biso   1.000  H
  H39      1.0000 0.45131  0.81049  0.15966  Biso   1.000  H
  C156     1.0000 0.16543  0.07315  0.26235  Biso   1.000  C
  C157     1.0000 0.16529  0.07315  0.26235  Biso   1.000  C
  C158     1.0000 0.58812  0.25536  0.93643  Biso   1.000  C
  C159     1.0000 0.58798  0.25536  0.93643  Biso   1.000  C
  F61      1.0000 0.59066  0.29206  0.57503  Biso   1.000  F
  C160     1.0000 0.35600  0.12575  0.36080  Biso   1.000  C
  C161     1.0000 0.35594  0.12563  0.36080  Biso   1.000  C
  F62      1.0000 0.59080  0.29206  0.57503  Biso   1.000  F
  C162     1.0000 0.35614  0.12575  0.36080  Biso   1.000  C
  F63      1.0000 0.94543  0.32602  0.41841  Biso   1.000  F
  F64      1.0000 0.94529  0.32602  0.41841  Biso   1.000  F
  C163     1.0000 0.02721  0.14104  0.28299  Biso   1.000  C
  C164     1.0000 0.02735  0.14104  0.28299  Biso   1.000  C
  H40      1.0000 0.46194  0.25132  0.96601  Biso   1.000  H
  H41      1.0000 0.54849  0.18946  0.84029  Biso   1.000  H
  H42      1.0000 0.66052  0.20794  0.01015  Biso   1.000  H
  H43      1.0000 0.66060  0.20781  0.01015  Biso   1.000  H
  H44      1.0000 0.66046  0.20781  0.01015  Biso   1.000  H
  F65      1.0000 0.49036  0.06046  0.34193  Biso   1.000  F
  F66      1.0000 0.49050  0.06046  0.34193  Biso   1.000  F
  F67      1.0000 0.83876  0.08489  0.19182  Biso   1.000  F
  F68      1.0000 0.83862  0.08489  0.19182  Biso   1.000  F
