data_image0
_cell_length_a       8.652
_cell_length_b       12.075
_cell_length_c       13.549
_cell_angle_alpha    97.84
_cell_angle_beta     98.27
_cell_angle_gamma    109.74

_symmetry_space_group_name_H-M    "P 1"
_symmetry_int_tables_number       1

loop_
  _symmetry_equiv_pos_as_xyz
  'x, y, z'

loop_
  _atom_site_label
  _atom_site_occupancy
  _atom_site_fract_x
  _atom_site_fract_y
  _atom_site_fract_z
  _atom_site_thermal_displace_type
  _atom_site_B_iso_or_equiv
  _atom_site_type_symbol
  O1       1.0000 0.71398  0.54434  0.51587  Biso   1.000  O
  C1       1.0000 0.68473  0.49413  0.60345  Biso   1.000  C
  C2       1.0000 0.86187  0.64865  0.53596  Biso   1.000  C
  C3       1.0000 0.79453  0.42285  0.62895  Biso   1.000  C
  H1       1.0000 0.56788  0.44193  0.59212  Biso   1.000  H
  H2       1.0000 0.70586  0.55823  0.66114  Biso   1.000  H
  H3       1.0000 0.95921  0.62685  0.55293  Biso   1.000  H
  H4       1.0000 0.86041  0.70496  0.59379  Biso   1.000  H
  C4       1.0000 0.87507  0.70698  0.44578  Biso   1.000  C
  O2       1.0000 0.79341  0.41063  0.73115  Biso   1.000  O
  H5       1.0000 0.75065  0.34453  0.58420  Biso   1.000  H
  H6       1.0000 0.90794  0.46477  0.62088  Biso   1.000  H
  O3       1.0000 0.75413  0.76174  0.43467  Biso   1.000  O
  H7       1.0000 0.98660  0.76696  0.45468  Biso   1.000  H
  H8       1.0000 0.85596  0.64736  0.38513  Biso   1.000  H
  C5       1.0000 0.84925  0.31947  0.75930  Biso   1.000  C
  C6       1.0000 0.77361  0.83117  0.35735  Biso   1.000  C
  C7       1.0000 0.84541  0.32161  0.87018  Biso   1.000  C
  H9       1.0000 0.96231  0.33452  0.74842  Biso   1.000  H
  H10      1.0000 0.77630  0.24176  0.71867  Biso   1.000  H
  H11      1.0000 0.73679  0.77904  0.29069  Biso   1.000  H
  H12      1.0000 0.89052  0.88161  0.36496  Biso   1.000  H
  C8       1.0000 0.66934  0.90678  0.36839  Biso   1.000  C
  O4       1.0000 0.67686  0.30770  0.88479  Biso   1.000  O
  H13      1.0000 0.87561  0.25683  0.89148  Biso   1.000  H
  H14      1.0000 0.92539  0.39705  0.91089  Biso   1.000  H
  O5       1.0000 0.73599  0.99005  0.46541  Biso   1.000  O
  H15      1.0000 0.67188  0.95073  0.31337  Biso   1.000  H
  H16      1.0000 0.55397  0.85625  0.36527  Biso   1.000  H
  C9       1.0000 0.64027  0.40714  0.89240  Biso   1.000  C
  C10      1.0000 0.67342  0.95637  0.54547  Biso   1.000  C
  N1       1.0000 0.76022  0.51250  0.93760  Biso   1.000  N
  N2       1.0000 0.48032  0.38790  0.85420  Biso   1.000  N
  N3       1.0000 0.51930  0.87415  0.53101  Biso   1.000  N
  N4       1.0000 0.77714  0.01355  0.63481  Biso   1.000  N
  C11      1.0000 0.70910  0.60396  0.93440  Biso   1.000  C
  C12      1.0000 0.45179  0.48891  0.85534  Biso   1.000  C
  C13      1.0000 0.47591  0.84838  0.61708  Biso   1.000  C
  C14      1.0000 0.71492  0.97544  0.71288  Biso   1.000  C
  O6       1.0000 0.82820  0.71172  0.97900  Biso   1.000  O
  N5       1.0000 0.55872  0.60059  0.89263  Biso   1.000  N
  O7       1.0000 0.29312  0.47275  0.81227  Biso   1.000  O
  O8       1.0000 0.31937  0.76719  0.60513  Biso   1.000  O
  N6       1.0000 0.56604  0.89298  0.71090  Biso   1.000  N
  O9       1.0000 0.81808  0.02892  0.80443  Biso   1.000  O
  C15      1.0000 0.78633  0.81443  0.97276  Biso   1.000  C
  C16      1.0000 0.26181  0.57586  0.79309  Biso   1.000  C
  C17      1.0000 0.27490  0.72108  0.69150  Biso   1.000  C
  C18      1.0000 0.78102  0.97082  0.88616  Biso   1.000  C
  C19      1.0000 0.81615  0.86780  0.89034  Biso   1.000  C
  C20      1.0000 0.72604  0.86098  0.05053  Biso   1.000  C
  C21      1.0000 0.31331  0.62298  0.71068  Biso   1.000  C
  C22      1.0000 0.17215  0.62058  0.85252  Biso   1.000  C
  C23      1.0000 0.18644  0.76977  0.74949  Biso   1.000  C
  C24      1.0000 0.71983  0.02039  0.96180  Biso   1.000  C
  H17      1.0000 0.85865  0.83556  0.83913  Biso   1.000  H
  C25      1.0000 0.69268  0.96458  0.04429  Biso   1.000  C
  H18      1.0000 0.70821  0.82390  0.10593  Biso   1.000  H
  H19      1.0000 0.37111  0.59016  0.67012  Biso   1.000  H
  C26      1.0000 0.13480  0.71843  0.83038  Biso   1.000  C
  H20      1.0000 0.13733  0.58584  0.90663  Biso   1.000  H
  H21      1.0000 0.16192  0.83565  0.73472  Biso   1.000  H
  H22      1.0000 0.69726  0.08987  0.95792  Biso   1.000  H
  H23      1.0000 0.65145  0.99729  0.09603  Biso   1.000  H
  H24      1.0000 0.07446  0.74998  0.87002  Biso   1.000  H
  O10      1.0000 0.28606  0.45570  0.48413  Biso   1.000  O
  C27      1.0000 0.13806  0.35139  0.46404  Biso   1.000  C
  C28      1.0000 0.31536  0.50601  0.39654  Biso   1.000  C
  C29      1.0000 0.12502  0.29316  0.55422  Biso   1.000  C
  H25      1.0000 0.04072  0.37319  0.44707  Biso   1.000  H
  H26      1.0000 0.13967  0.29517  0.40621  Biso   1.000  H
  C30      1.0000 0.20552  0.57720  0.37105  Biso   1.000  C
  H27      1.0000 0.43216  0.55811  0.40788  Biso   1.000  H
  H28      1.0000 0.29418  0.44181  0.33886  Biso   1.000  H
  O11      1.0000 0.24591  0.23830  0.56533  Biso   1.000  O
  H29      1.0000 0.01349  0.23317  0.54532  Biso   1.000  H
  H30      1.0000 0.14413  0.35277  0.61487  Biso   1.000  H
  O12      1.0000 0.20663  0.58941  0.26885  Biso   1.000  O
  H31      1.0000 0.24940  0.65552  0.41580  Biso   1.000  H
  H32      1.0000 0.09214  0.53536  0.37912  Biso   1.000  H
  C31      1.0000 0.22632  0.16887  0.64264  Biso   1.000  C
  C32      1.0000 0.15080  0.68057  0.24070  Biso   1.000  C
  C33      1.0000 0.33071  0.09326  0.63161  Biso   1.000  C
  H33      1.0000 0.26325  0.22100  0.70931  Biso   1.000  H
  H34      1.0000 0.10952  0.11843  0.63503  Biso   1.000  H
  C34      1.0000 0.15464  0.67844  0.12982  Biso   1.000  C
  H35      1.0000 0.03774  0.66552  0.25158  Biso   1.000  H
  H36      1.0000 0.22378  0.75837  0.28133  Biso   1.000  H
  O13      1.0000 0.26405  0.00999  0.53459  Biso   1.000  O
  H37      1.0000 0.32816  0.04931  0.68663  Biso   1.000  H
  H38      1.0000 0.44611  0.14388  0.63473  Biso   1.000  H
  O14      1.0000 0.32307  0.69235  0.11521  Biso   1.000  O
  H39      1.0000 0.12443  0.74322  0.10852  Biso   1.000  H
  H40      1.0000 0.07465  0.60300  0.08911  Biso   1.000  H
  C35      1.0000 0.32655  0.04376  0.45453  Biso   1.000  C
  C36      1.0000 0.35970  0.59299  0.10760  Biso   1.000  C
  N7       1.0000 0.22291  0.98649  0.36519  Biso   1.000  N
  N8       1.0000 0.48079  0.12599  0.46899  Biso   1.000  N
  N9       1.0000 0.23983  0.48755  0.06240  Biso   1.000  N
  N10      1.0000 0.51973  0.61214  0.14580  Biso   1.000  N
  C37      1.0000 0.28501  0.02460  0.28712  Biso   1.000  C
  C38      1.0000 0.52402  0.15166  0.38292  Biso   1.000  C
  C39      1.0000 0.29094  0.39609  0.06560  Biso   1.000  C
  C40      1.0000 0.54832  0.51124  0.14474  Biso   1.000  C
  O15      1.0000 0.18203  0.97123  0.19565  Biso   1.000  O
  N11      1.0000 0.43401  0.10706  0.28909  Biso   1.000  N
  O16      1.0000 0.68072  0.23294  0.39487  Biso   1.000  O
  O17      1.0000 0.17177  0.28841  0.02100  Biso   1.000  O
  N12      1.0000 0.44133  0.39945  0.10737  Biso   1.000  N
  O18      1.0000 0.70697  0.52738  0.18773  Biso   1.000  O
  C41      1.0000 0.21906  0.02924  0.11392  Biso   1.000  C
  C42      1.0000 0.72514  0.27896  0.30850  Biso   1.000  C
  C43      1.0000 0.21376  0.18570  0.02724  Biso   1.000  C
  C44      1.0000 0.73823  0.42418  0.20691  Biso   1.000  C
  C45      1.0000 0.18393  0.13233  0.10966  Biso   1.000  C
  C46      1.0000 0.28010  0.97965  0.03820  Biso   1.000  C
  C47      1.0000 0.68674  0.37706  0.28932  Biso   1.000  C
  C48      1.0000 0.81353  0.23036  0.25051  Biso   1.000  C
  C49      1.0000 0.27404  0.13915  0.94947  Biso   1.000  C
  C50      1.0000 0.82778  0.37946  0.14748  Biso   1.000  C
  H41      1.0000 0.14139  0.16448  0.16087  Biso   1.000  H
  H42      1.0000 0.30278  0.91017  0.04208  Biso   1.000  H
  C51      1.0000 0.30737  0.03546  0.95571  Biso   1.000  C
  H43      1.0000 0.62893  0.40988  0.32988  Biso   1.000  H
  H44      1.0000 0.83812  0.16439  0.26528  Biso   1.000  H
  C52      1.0000 0.86527  0.28163  0.16970  Biso   1.000  C
  H45      1.0000 0.29183  0.17614  0.89407  Biso   1.000  H
  H46      1.0000 0.86260  0.41421  0.09337  Biso   1.000  H
  H47      1.0000 0.34860  0.00275  0.90396  Biso   1.000  H
  H48      1.0000 0.92547  0.25007  0.12997  Biso   1.000  H
