data_image0
_cell_length_a       9.133
_cell_length_b       19.628
_cell_length_c       22.662
_cell_angle_alpha    90
_cell_angle_beta     107.77
_cell_angle_gamma    90

_symmetry_space_group_name_H-M    "P 1"
_symmetry_int_tables_number       1

loop_
  _symmetry_equiv_pos_as_xyz
  'x, y, z'

loop_
  _atom_site_label
  _atom_site_occupancy
  _atom_site_fract_x
  _atom_site_fract_y
  _atom_site_fract_z
  _atom_site_thermal_displace_type
  _atom_site_B_iso_or_equiv
  _atom_site_type_symbol
  O1       1.0000 0.72935  0.49338  0.53223  Biso   1.000  O
  C1       1.0000 0.69836  0.43932  0.50332  Biso   1.000  C
  N1       1.0000 0.72291  0.43035  0.44725  Biso   1.000  N
  C2       1.0000 0.64567  0.37931  0.53075  Biso   1.000  C
  C3       1.0000 0.62833  0.38415  0.40202  Biso   1.000  C
  C4       1.0000 0.80205  0.48375  0.42264  Biso   1.000  C
  C5       1.0000 0.73805  0.32133  0.54359  Biso   1.000  C
  C6       1.0000 0.51927  0.38343  0.55267  Biso   1.000  C
  C7       1.0000 0.47051  0.39510  0.38057  Biso   1.000  C
  C8       1.0000 0.69541  0.33391  0.37682  Biso   1.000  C
  H1       1.0000 0.72669  0.51732  0.39961  Biso   1.000  H
  H2       1.0000 0.87853  0.50642  0.45712  Biso   1.000  H
  H3       1.0000 0.85352  0.46311  0.39489  Biso   1.000  H
  C9       1.0000 0.70692  0.26926  0.57968  Biso   1.000  C
  H4       1.0000 0.82252  0.31730  0.52760  Biso   1.000  H
  C10      1.0000 0.48530  0.32994  0.58589  Biso   1.000  C
  H5       1.0000 0.45618  0.42302  0.54470  Biso   1.000  H
  C11      1.0000 0.38021  0.35536  0.33247  Biso   1.000  C
  H6       1.0000 0.42481  0.42949  0.39860  Biso   1.000  H
  C12      1.0000 0.60401  0.29361  0.32927  Biso   1.000  C
  H7       1.0000 0.80336  0.32668  0.39169  Biso   1.000  H
  N2       1.0000 0.81284  0.21383  0.59882  Biso   1.000  N
  C13      1.0000 0.57981  0.27318  0.60095  Biso   1.000  C
  N3       1.0000 0.35065  0.33366  0.60660  Biso   1.000  N
  C14      1.0000 0.44593  0.30518  0.30648  Biso   1.000  C
  N4       1.0000 0.22013  0.37171  0.30629  Biso   1.000  N
  C15      1.0000 0.67436  0.23991  0.29971  Biso   1.000  C
  C16      1.0000 0.84058  0.16930  0.55781  Biso   1.000  C
  C17      1.0000 0.92495  0.22030  0.66054  Biso   1.000  C
  H8       1.0000 0.55804  0.23762  0.62542  Biso   1.000  H
  C18      1.0000 0.20868  0.32953  0.56662  Biso   1.000  C
  C19      1.0000 0.37363  0.34950  0.67194  Biso   1.000  C
  H9       1.0000 0.38410  0.27848  0.27311  Biso   1.000  H
  C20      1.0000 0.12094  0.36718  0.34058  Biso   1.000  C
  C21      1.0000 0.18317  0.41619  0.25171  Biso   1.000  C
  O2       1.0000 0.69831  0.24929  0.24994  Biso   1.000  O
  N5       1.0000 0.71000  0.18066  0.33043  Biso   1.000  N
  C22      1.0000 0.72478  0.16451  0.49512  Biso   1.000  C
  O3       1.0000 0.95478  0.13241  0.57227  Biso   1.000  O
  H10      1.0000 0.97878  0.17689  0.67250  Biso   1.000  H
  H11      1.0000 0.99935  0.25601  0.65989  Biso   1.000  H
  H12      1.0000 0.87151  0.23242  0.69061  Biso   1.000  H
  C23      1.0000 0.19761  0.30319  0.50327  Biso   1.000  C
  O4       1.0000 0.09222  0.34359  0.58112  Biso   1.000  O
  H13      1.0000 0.38971  0.39861  0.67871  Biso   1.000  H
  H14      1.0000 0.28252  0.33549  0.68320  Biso   1.000  H
  H15      1.0000 0.46384  0.32479  0.69780  Biso   1.000  H
  C24      1.0000 0.16336  0.31975  0.39456  Biso   1.000  C
  O5       1.0000 0.99912  0.39999  0.32733  Biso   1.000  O
  H16      1.0000 0.22299  0.39372  0.21552  Biso   1.000  H
  H17      1.0000 0.24002  0.46001  0.26042  Biso   1.000  H
  H18      1.0000 0.08195  0.42501  0.23400  Biso   1.000  H
  C25      1.0000 0.66523  0.16650  0.38525  Biso   1.000  C
  C26      1.0000 0.78109  0.12538  0.30532  Biso   1.000  C
  C27      1.0000 0.76943  0.17511  0.44289  Biso   1.000  C
  C28      1.0000 0.57584  0.14276  0.48900  Biso   1.000  C
  C29      1.0000 0.16591  0.34578  0.45230  Biso   1.000  C
  C30      1.0000 0.21415  0.23390  0.49604  Biso   1.000  C
  C31      1.0000 0.18506  0.25076  0.38780  Biso   1.000  C
  C32      1.0000 0.51825  0.14311  0.37825  Biso   1.000  C
  H19      1.0000 0.87606  0.11091  0.33660  Biso   1.000  H
  H20      1.0000 0.70993  0.08681  0.29420  Biso   1.000  H
  H21      1.0000 0.80484  0.14148  0.26829  Biso   1.000  H
  H22      1.0000 0.87198  0.18840  0.44688  Biso   1.000  H
  C33      1.0000 0.47315  0.13037  0.43061  Biso   1.000  C
  H23      1.0000 0.54434  0.13628  0.52491  Biso   1.000  H
  H24      1.0000 0.14589  0.39270  0.45652  Biso   1.000  H
  C34      1.0000 0.20732  0.20695  0.43845  Biso   1.000  C
  H25      1.0000 0.23065  0.20440  0.53070  Biso   1.000  H
  H26      1.0000 0.18468  0.23309  0.34869  Biso   1.000  H
  H27      1.0000 0.44855  0.13562  0.33799  Biso   1.000  H
  N6       1.0000 0.32701  0.09899  0.42371  Biso   1.000  N
  C35      1.0000 0.20361  0.13170  0.43080  Biso   1.000  C
  C36      1.0000 0.31828  0.02558  0.41291  Biso   1.000  C
  O6       1.0000 0.08769  0.09976  0.43085  Biso   1.000  O
  H28      1.0000 0.32415  0.00189  0.45161  Biso   1.000  H
  H29      1.0000 0.22080  0.01442  0.38150  Biso   1.000  H
  H30      1.0000 0.40409  0.01121  0.39841  Biso   1.000  H
  O7       1.0000 0.27070  0.50662  0.46778  Biso   1.000  O
  C37      1.0000 0.30158  0.56068  0.49669  Biso   1.000  C
  N7       1.0000 0.27714  0.56965  0.55276  Biso   1.000  N
  C38      1.0000 0.35424  0.62069  0.46921  Biso   1.000  C
  C39      1.0000 0.37172  0.61585  0.59799  Biso   1.000  C
  C40      1.0000 0.19785  0.51625  0.57732  Biso   1.000  C
  C41      1.0000 0.26200  0.67867  0.45642  Biso   1.000  C
  C42      1.0000 0.48078  0.61657  0.44734  Biso   1.000  C
  C43      1.0000 0.52954  0.60490  0.61944  Biso   1.000  C
  C44      1.0000 0.30464  0.66609  0.62319  Biso   1.000  C
  H31      1.0000 0.27325  0.48268  0.60040  Biso   1.000  H
  H32      1.0000 0.12152  0.49358  0.54289  Biso   1.000  H
  H33      1.0000 0.14653  0.53689  0.60512  Biso   1.000  H
  C45      1.0000 0.29313  0.73074  0.42033  Biso   1.000  C
  H34      1.0000 0.17753  0.68270  0.47241  Biso   1.000  H
  C46      1.0000 0.51464  0.67006  0.41412  Biso   1.000  C
  H35      1.0000 0.54386  0.57698  0.45531  Biso   1.000  H
  C47      1.0000 0.61980  0.64464  0.66749  Biso   1.000  C
  H36      1.0000 0.57523  0.57051  0.60141  Biso   1.000  H
  H37      1.0000 0.19658  0.67332  0.60832  Biso   1.000  H
  C48      1.0000 0.39604  0.70639  0.67074  Biso   1.000  C
  N8       1.0000 0.18721  0.78617  0.40119  Biso   1.000  N
  C49      1.0000 0.42024  0.72682  0.39906  Biso   1.000  C
  N9       1.0000 0.64929  0.66634  0.39341  Biso   1.000  N
  N10      1.0000 0.77992  0.62829  0.69372  Biso   1.000  N
  C50      1.0000 0.55412  0.69482  0.69353  Biso   1.000  C
  C51      1.0000 0.32569  0.76009  0.70030  Biso   1.000  C
  C52      1.0000 0.07510  0.77970  0.33947  Biso   1.000  C
  C53      1.0000 0.15947  0.83070  0.44220  Biso   1.000  C
  H38      1.0000 0.44200  0.76238  0.37459  Biso   1.000  H
  C54      1.0000 0.79125  0.67047  0.43339  Biso   1.000  C
  C55      1.0000 0.62638  0.65050  0.32802  Biso   1.000  C
  C56      1.0000 0.87910  0.63282  0.65943  Biso   1.000  C
  C57      1.0000 0.81677  0.58381  0.74830  Biso   1.000  C
  H39      1.0000 0.61595  0.72152  0.72690  Biso   1.000  H
  O8       1.0000 0.30173  0.75071  0.75007  Biso   1.000  O
  N11      1.0000 0.28994  0.81934  0.66958  Biso   1.000  N
  H40      1.0000 0.02126  0.82311  0.32751  Biso   1.000  H
  H41      1.0000 0.00059  0.74399  0.34012  Biso   1.000  H
  H42      1.0000 0.12853  0.76758  0.30940  Biso   1.000  H
  O9       1.0000 0.04516  0.86759  0.42774  Biso   1.000  O
  C58      1.0000 0.27516  0.83549  0.50489  Biso   1.000  C
  O10      1.0000 0.90783  0.65641  0.41889  Biso   1.000  O
  C59      1.0000 0.80243  0.69681  0.49674  Biso   1.000  C
  H43      1.0000 0.61034  0.60139  0.32130  Biso   1.000  H
  H44      1.0000 0.71753  0.66451  0.31681  Biso   1.000  H
  H45      1.0000 0.53621  0.67521  0.30221  Biso   1.000  H
  C60      1.0000 0.83669  0.68025  0.60545  Biso   1.000  C
  O11      1.0000 0.00093  0.60001  0.67268  Biso   1.000  O
  H46      1.0000 0.77695  0.60628  0.78449  Biso   1.000  H
  H47      1.0000 0.76002  0.53999  0.73959  Biso   1.000  H
  H48      1.0000 0.91799  0.57499  0.76601  Biso   1.000  H
  C61      1.0000 0.33478  0.83350  0.61471  Biso   1.000  C
  C62      1.0000 0.21885  0.87462  0.69469  Biso   1.000  C
  C63      1.0000 0.23062  0.82489  0.55712  Biso   1.000  C
  C64      1.0000 0.42421  0.85724  0.51101  Biso   1.000  C
  C65      1.0000 0.83414  0.65422  0.54771  Biso   1.000  C
  C66      1.0000 0.78579  0.76610  0.50397  Biso   1.000  C
  C67      1.0000 0.81499  0.74924  0.61221  Biso   1.000  C
  C68      1.0000 0.48180  0.85689  0.62176  Biso   1.000  C
  H49      1.0000 0.12388  0.88909  0.66341  Biso   1.000  H
  H50      1.0000 0.29012  0.91319  0.70581  Biso   1.000  H
  H51      1.0000 0.19510  0.85852  0.73172  Biso   1.000  H
  H52      1.0000 0.12803  0.81160  0.55308  Biso   1.000  H
  C69      1.0000 0.52690  0.86963  0.56940  Biso   1.000  C
  H53      1.0000 0.45571  0.86372  0.47510  Biso   1.000  H
  H54      1.0000 0.85405  0.60730  0.54349  Biso   1.000  H
  H55      1.0000 0.76940  0.79560  0.46931  Biso   1.000  H
  C70      1.0000 0.79273  0.79305  0.56156  Biso   1.000  C
  H56      1.0000 0.81537  0.76691  0.65132  Biso   1.000  H
  H57      1.0000 0.55135  0.86438  0.66198  Biso   1.000  H
  N12      1.0000 0.67304  0.90101  0.57630  Biso   1.000  N
  C71      1.0000 0.79640  0.86830  0.56916  Biso   1.000  C
  C72      1.0000 0.68166  0.97442  0.58710  Biso   1.000  C
  O12      1.0000 0.91225  0.90024  0.56916  Biso   1.000  O
  H58      1.0000 0.67590  0.99811  0.54840  Biso   1.000  H
  H59      1.0000 0.77925  0.98558  0.61851  Biso   1.000  H
  H60      1.0000 0.59585  0.98879  0.60160  Biso   1.000  H
  C73      1.0000 0.78110  0.37462  0.80530  Biso   1.000  C
  N13      1.0000 0.71000  0.31934  0.83041  Biso   1.000  N
  H61      1.0000 0.87606  0.38909  0.83658  Biso   1.000  H
  H62      1.0000 0.70993  0.41319  0.79418  Biso   1.000  H
  H63      1.0000 0.80488  0.35852  0.76832  Biso   1.000  H
  C74      1.0000 0.67426  0.26009  0.79969  Biso   1.000  C
  C75      1.0000 0.66516  0.33350  0.88528  Biso   1.000  C
  O13      1.0000 0.69832  0.25071  0.74993  Biso   1.000  O
  C76      1.0000 0.60401  0.20639  0.82926  Biso   1.000  C
  C77      1.0000 0.51814  0.35689  0.87824  Biso   1.000  C
  C78      1.0000 0.76936  0.32489  0.94292  Biso   1.000  C
  C79      1.0000 0.69542  0.16609  0.87680  Biso   1.000  C
  C80      1.0000 0.44594  0.19482  0.80646  Biso   1.000  C
  C81      1.0000 0.47305  0.36963  0.93060  Biso   1.000  C
  H64      1.0000 0.44859  0.36438  0.83801  Biso   1.000  H
  H65      1.0000 0.87202  0.31160  0.94691  Biso   1.000  H
  C82      1.0000 0.72479  0.33549  0.99510  Biso   1.000  C
  C83      1.0000 0.62826  0.11585  0.90205  Biso   1.000  C
  H66      1.0000 0.80340  0.17332  0.89172  Biso   1.000  H
  C84      1.0000 0.38026  0.14464  0.83250  Biso   1.000  C
  H67      1.0000 0.38410  0.22152  0.77310  Biso   1.000  H
  N14      1.0000 0.32701  0.40101  0.92369  Biso   1.000  N
  C85      1.0000 0.57577  0.35724  0.98903  Biso   1.000  C
  C86      1.0000 0.84062  0.33070  0.05784  Biso   1.000  C
  N15      1.0000 0.72295  0.06965  0.94728  Biso   1.000  N
  C87      1.0000 0.47052  0.10490  0.88055  Biso   1.000  C
  N16      1.0000 0.22013  0.12829  0.80627  Biso   1.000  N
  C88      1.0000 0.20365  0.36830  0.93083  Biso   1.000  C
  C89      1.0000 0.31829  0.47442  0.91290  Biso   1.000  C
  H68      1.0000 0.54435  0.36372  0.02489  Biso   1.000  H
  O14      1.0000 0.95479  0.36759  0.07225  Biso   1.000  O
  N17      1.0000 0.81274  0.28617  0.09880  Biso   1.000  N
  C90      1.0000 0.80210  0.01625  0.92267  Biso   1.000  C
  C91      1.0000 0.69837  0.06068  0.00330  Biso   1.000  C
  H69      1.0000 0.42482  0.07051  0.89858  Biso   1.000  H
  C92      1.0000 0.12084  0.13282  0.84056  Biso   1.000  C
  C93      1.0000 0.18318  0.08381  0.75169  Biso   1.000  C
  O15      1.0000 0.08770  0.40024  0.93083  Biso   1.000  O
  C94      1.0000 0.20733  0.29305  0.93843  Biso   1.000  C
  H70      1.0000 0.32405  0.49811  0.95159  Biso   1.000  H
  H71      1.0000 0.22081  0.48558  0.88148  Biso   1.000  H
  H72      1.0000 0.40410  0.48879  0.89839  Biso   1.000  H
  C95      1.0000 0.70693  0.23074  0.07966  Biso   1.000  C
  C96      1.0000 0.92484  0.27970  0.16052  Biso   1.000  C
  H73      1.0000 0.85356  0.03689  0.89492  Biso   1.000  H
  H74      1.0000 0.72670  0.98268  0.89960  Biso   1.000  H
  H75      1.0000 0.87854  0.99358  0.95710  Biso   1.000  H
  O16      1.0000 0.72924  0.00662  0.03221  Biso   1.000  O
  C97      1.0000 0.64571  0.12069  0.03078  Biso   1.000  C
  C98      1.0000 0.16326  0.18025  0.89455  Biso   1.000  C
  O17      1.0000 0.99916  0.10001  0.82736  Biso   1.000  O
  H76      1.0000 0.22300  0.10628  0.71550  Biso   1.000  H
  H77      1.0000 0.24003  0.03999  0.76040  Biso   1.000  H
  H78      1.0000 0.08196  0.07499  0.73399  Biso   1.000  H
  C99      1.0000 0.18496  0.24924  0.88778  Biso   1.000  C
  C100     1.0000 0.21415  0.26610  0.99603  Biso   1.000  C
  C101     1.0000 0.73795  0.17867  0.04357  Biso   1.000  C
  C102     1.0000 0.57982  0.22682  0.10093  Biso   1.000  C
  H79      1.0000 0.97879  0.32311  0.17248  Biso   1.000  H
  H80      1.0000 0.99939  0.24399  0.15992  Biso   1.000  H
  H81      1.0000 0.87152  0.26758  0.19060  Biso   1.000  H
  C103     1.0000 0.51916  0.11657  0.05265  Biso   1.000  C
  C104     1.0000 0.16592  0.15422  0.95228  Biso   1.000  C
  H82      1.0000 0.18472  0.26691  0.84872  Biso   1.000  H
  C105     1.0000 0.19762  0.19681  0.00325  Biso   1.000  C
  H83      1.0000 0.23055  0.29560  0.03069  Biso   1.000  H
  H84      1.0000 0.82253  0.18270  0.02758  Biso   1.000  H
  C106     1.0000 0.48531  0.17006  0.08587  Biso   1.000  C
  H85      1.0000 0.55805  0.26238  0.12540  Biso   1.000  H
  H86      1.0000 0.45619  0.07698  0.04468  Biso   1.000  H
  H87      1.0000 0.14590  0.10730  0.95650  Biso   1.000  H
  C107     1.0000 0.20869  0.17047  0.06660  Biso   1.000  C
  N18      1.0000 0.35069  0.16634  0.10663  Biso   1.000  N
  O18      1.0000 0.09223  0.15641  0.08110  Biso   1.000  O
  C108     1.0000 0.37356  0.15050  0.17197  Biso   1.000  C
  H88      1.0000 0.38971  0.10139  0.17869  Biso   1.000  H
  H89      1.0000 0.28253  0.16451  0.18318  Biso   1.000  H
  H90      1.0000 0.46373  0.17521  0.19778  Biso   1.000  H
  C109     1.0000 0.21895  0.62538  0.19471  Biso   1.000  C
  N19      1.0000 0.29005  0.68066  0.16960  Biso   1.000  N
  H91      1.0000 0.12384  0.61091  0.16339  Biso   1.000  H
  H92      1.0000 0.29008  0.58681  0.20578  Biso   1.000  H
  H93      1.0000 0.19505  0.64148  0.23169  Biso   1.000  H
  C110     1.0000 0.33478  0.66650  0.11473  Biso   1.000  C
  C111     1.0000 0.32568  0.73991  0.20032  Biso   1.000  C
  C112     1.0000 0.48180  0.64311  0.12178  Biso   1.000  C
  C113     1.0000 0.23057  0.67511  0.05709  Biso   1.000  C
  O19      1.0000 0.30173  0.74929  0.25008  Biso   1.000  O
  C114     1.0000 0.39600  0.79361  0.17071  Biso   1.000  C
  C115     1.0000 0.52689  0.63037  0.06941  Biso   1.000  C
  H94      1.0000 0.55134  0.63562  0.16200  Biso   1.000  H
  H95      1.0000 0.12803  0.68840  0.05310  Biso   1.000  H
  C116     1.0000 0.27526  0.66451  0.00491  Biso   1.000  C
  C117     1.0000 0.30463  0.83391  0.12321  Biso   1.000  C
  C118     1.0000 0.55411  0.80518  0.19355  Biso   1.000  C
  N20      1.0000 0.67304  0.59899  0.07632  Biso   1.000  N
  C119     1.0000 0.42417  0.64276  0.01098  Biso   1.000  C
  C120     1.0000 0.15943  0.66930  0.94217  Biso   1.000  C
  C121     1.0000 0.37168  0.88415  0.09796  Biso   1.000  C
  H96      1.0000 0.19665  0.82668  0.10829  Biso   1.000  H
  C122     1.0000 0.61979  0.85536  0.16751  Biso   1.000  C
  H97      1.0000 0.61595  0.77848  0.22691  Biso   1.000  H
  C123     1.0000 0.79640  0.63170  0.06918  Biso   1.000  C
  C124     1.0000 0.68176  0.52558  0.08711  Biso   1.000  C
  H98      1.0000 0.45570  0.63628  0.97512  Biso   1.000  H
  O20      1.0000 0.04526  0.63241  0.92776  Biso   1.000  O
  N21      1.0000 0.18717  0.71383  0.90116  Biso   1.000  N
  N22      1.0000 0.27710  0.93035  0.05273  Biso   1.000  N
  C125     1.0000 0.52953  0.89510  0.11946  Biso   1.000  C
  N23      1.0000 0.77991  0.87171  0.19374  Biso   1.000  N
  O21      1.0000 0.91235  0.59976  0.06918  Biso   1.000  O
  C126     1.0000 0.79272  0.70695  0.06158  Biso   1.000  C
  H99      1.0000 0.67589  0.50189  0.04842  Biso   1.000  H
  H100     1.0000 0.77921  0.51442  0.11849  Biso   1.000  H
  H101     1.0000 0.59595  0.51121  0.10162  Biso   1.000  H
  C127     1.0000 0.29312  0.76926  0.92035  Biso   1.000  C
  C128     1.0000 0.07506  0.72030  0.83944  Biso   1.000  C
  C129     1.0000 0.19795  0.98375  0.07734  Biso   1.000  C
  C130     1.0000 0.30157  0.93932  0.99671  Biso   1.000  C
  H102     1.0000 0.57519  0.92949  0.10139  Biso   1.000  H
  C131     1.0000 0.87910  0.86718  0.15945  Biso   1.000  C
  C132     1.0000 0.81687  0.91619  0.24832  Biso   1.000  C
  C133     1.0000 0.78575  0.73390  0.00394  Biso   1.000  C
  C134     1.0000 0.81498  0.75076  0.11223  Biso   1.000  C
  C135     1.0000 0.42023  0.77318  0.89908  Biso   1.000  C
  C136     1.0000 0.26199  0.82133  0.95644  Biso   1.000  C
  H103     1.0000 0.02122  0.67689  0.82749  Biso   1.000  H
  H104     1.0000 0.00055  0.75601  0.84009  Biso   1.000  H
  H105     1.0000 0.12853  0.73242  0.80941  Biso   1.000  H
  H106     1.0000 0.14649  0.96311  0.10509  Biso   1.000  H
  H107     1.0000 0.27335  0.01732  0.10041  Biso   1.000  H
  H108     1.0000 0.12151  0.00642  0.04291  Biso   1.000  H
  O22      1.0000 0.27066  0.99338  0.96775  Biso   1.000  O
  C137     1.0000 0.35434  0.87931  0.96923  Biso   1.000  C
  C138     1.0000 0.83668  0.81975  0.10546  Biso   1.000  C
  O23      1.0000 0.00089  0.89999  0.17265  Biso   1.000  O
  H109     1.0000 0.77705  0.89372  0.28451  Biso   1.000  H
  H110     1.0000 0.76002  0.96001  0.23961  Biso   1.000  H
  H111     1.0000 0.91795  0.92501  0.26598  Biso   1.000  H
  C139     1.0000 0.80243  0.80319  0.99676  Biso   1.000  C
  H112     1.0000 0.76935  0.70440  0.96928  Biso   1.000  H
  H113     1.0000 0.81533  0.73309  0.15129  Biso   1.000  H
  C140     1.0000 0.51474  0.82994  0.91414  Biso   1.000  C
  H114     1.0000 0.44200  0.73762  0.87461  Biso   1.000  H
  H115     1.0000 0.17749  0.81730  0.97238  Biso   1.000  H
  C141     1.0000 0.48078  0.88343  0.94736  Biso   1.000  C
  C142     1.0000 0.83413  0.84578  0.04773  Biso   1.000  C
  C143     1.0000 0.79136  0.82953  0.93341  Biso   1.000  C
  N24      1.0000 0.64925  0.83366  0.89338  Biso   1.000  N
  H116     1.0000 0.54382  0.92302  0.95528  Biso   1.000  H
  H117     1.0000 0.85415  0.89270  0.04351  Biso   1.000  H
  O24      1.0000 0.90779  0.84359  0.91886  Biso   1.000  O
  C144     1.0000 0.62637  0.84950  0.82804  Biso   1.000  C
  H118     1.0000 0.61034  0.89861  0.82132  Biso   1.000  H
  H119     1.0000 0.71749  0.83549  0.81678  Biso   1.000  H
  H120     1.0000 0.53617  0.82479  0.80219  Biso   1.000  H
