data_image0
_cell_length_a       9.207
_cell_length_b       24.232
_cell_length_c       17.811
_cell_angle_alpha    90
_cell_angle_beta     114.07
_cell_angle_gamma    90

_symmetry_space_group_name_H-M    "P 1"
_symmetry_int_tables_number       1

loop_
  _symmetry_equiv_pos_as_xyz
  'x, y, z'

loop_
  _atom_site_label
  _atom_site_occupancy
  _atom_site_fract_x
  _atom_site_fract_y
  _atom_site_fract_z
  _atom_site_thermal_displace_type
  _atom_site_B_iso_or_equiv
  _atom_site_type_symbol
  C1       1.0000 0.62532  0.59624  0.37572  Biso   1.000  C
  N1       1.0000 0.52079  0.63032  0.30697  Biso   1.000  N
  H1       1.0000 0.69152  0.62009  0.42122  Biso   1.000  H
  H2       1.0000 0.56075  0.57209  0.39410  Biso   1.000  H
  H3       1.0000 0.69374  0.57370  0.35782  Biso   1.000  H
  C2       1.0000 0.37677  0.60499  0.25040  Biso   1.000  C
  C3       1.0000 0.57985  0.67605  0.28588  Biso   1.000  C
  C4       1.0000 0.36673  0.58757  0.17421  Biso   1.000  C
  C5       1.0000 0.25244  0.59467  0.27370  Biso   1.000  C
  O1       1.0000 0.72103  0.68996  0.32068  Biso   1.000  O
  C6       1.0000 0.46076  0.71220  0.22180  Biso   1.000  C
  C7       1.0000 0.23396  0.55852  0.12157  Biso   1.000  C
  H4       1.0000 0.45086  0.59549  0.15791  Biso   1.000  H
  C8       1.0000 0.11767  0.56797  0.21934  Biso   1.000  C
  H5       1.0000 0.25993  0.60581  0.32628  Biso   1.000  H
  C9       1.0000 0.47767  0.72644  0.15004  Biso   1.000  C
  C10      1.0000 0.33559  0.73415  0.23785  Biso   1.000  C
  C11      1.0000 0.24734  0.53070  0.04932  Biso   1.000  C
  C12      1.0000 0.10902  0.54861  0.14451  Biso   1.000  C
  N2       1.0000 0.98660  0.55856  0.24209  Biso   1.000  N
  C13      1.0000 0.36508  0.76028  0.09310  Biso   1.000  C
  H6       1.0000 0.56548  0.71311  0.14032  Biso   1.000  H
  C14      1.0000 0.22816  0.76997  0.18208  Biso   1.000  C
  H7       1.0000 0.32446  0.72450  0.28692  Biso   1.000  H
  O2       1.0000 0.28354  0.48147  0.05417  Biso   1.000  O
  N3       1.0000 0.23524  0.56211  0.98457  Biso   1.000  N
  H8       1.0000 0.01814  0.52868  0.10903  Biso   1.000  H
  C15      1.0000 0.00426  0.51477  0.30260  Biso   1.000  C
  C16      1.0000 0.84635  0.58481  0.20323  Biso   1.000  C
  N4       1.0000 0.37441  0.77550  0.01654  Biso   1.000  N
  C17      1.0000 0.24192  0.78310  0.10921  Biso   1.000  C
  N5       1.0000 0.11094  0.79824  0.20200  Biso   1.000  N
  C18      1.0000 0.15410  0.61464  0.96624  Biso   1.000  C
  C19      1.0000 0.28375  0.54048  0.92104  Biso   1.000  C
  H9       1.0000 0.11120  0.51651  0.34688  Biso   1.000  H
  H10      1.0000 0.98828  0.47871  0.27561  Biso   1.000  H
  H11      1.0000 0.92487  0.52001  0.32560  Biso   1.000  H
  O3       1.0000 0.72378  0.57098  0.21129  Biso   1.000  O
  C20      1.0000 0.84475  0.63309  0.15041  Biso   1.000  C
  C21      1.0000 0.25022  0.76345  0.94435  Biso   1.000  C
  C22      1.0000 0.47730  0.82271  0.02017  Biso   1.000  C
  H12      1.0000 0.16777  0.80740  0.07072  Biso   1.000  H
  C23      1.0000 0.95674  0.78367  0.17218  Biso   1.000  C
  C24      1.0000 0.16059  0.85172  0.24388  Biso   1.000  C
  C25      1.0000 0.98891  0.61580  0.93722  Biso   1.000  C
  C26      1.0000 0.23929  0.66247  0.97042  Biso   1.000  C
  H13      1.0000 0.18898  0.53070  0.87197  Biso   1.000  H
  H14      1.0000 0.34444  0.56879  0.90684  Biso   1.000  H
  H15      1.0000 0.35008  0.50759  0.94207  Biso   1.000  H
  C27      1.0000 0.91990  0.68236  0.18454  Biso   1.000  C
  C28      1.0000 0.75804  0.62900  0.06598  Biso   1.000  C
  C29      1.0000 0.15805  0.71191  0.94275  Biso   1.000  C
  O4       1.0000 0.21642  0.79209  0.88224  Biso   1.000  O
  H16      1.0000 0.42447  0.85701  0.02410  Biso   1.000  H
  H17      1.0000 0.57833  0.81908  0.06838  Biso   1.000  H
  H18      1.0000 0.49763  0.82350  0.97036  Biso   1.000  H
  C30      1.0000 0.90530  0.72796  0.13424  Biso   1.000  C
  O5       1.0000 0.85472  0.81467  0.17777  Biso   1.000  O
  H19      1.0000 0.08724  0.86250  0.26847  Biso   1.000  H
  H20      1.0000 0.26835  0.84851  0.28698  Biso   1.000  H
  H21      1.0000 0.15925  0.87970  0.20391  Biso   1.000  H
  H22      1.0000 0.93144  0.58311  0.93623  Biso   1.000  H
  C31      1.0000 0.90967  0.66536  0.90961  Biso   1.000  C
  H23      1.0000 0.35218  0.66160  0.99194  Biso   1.000  H
  H24      1.0000 0.98139  0.68500  0.24209  Biso   1.000  H
  C32      1.0000 0.75123  0.67337  0.01494  Biso   1.000  C
  H25      1.0000 0.70303  0.59578  0.04292  Biso   1.000  H
  C33      1.0000 0.99276  0.71327  0.91016  Biso   1.000  C
  C34      1.0000 0.82296  0.72305  0.04956  Biso   1.000  C
  N6       1.0000 0.73759  0.66610  0.87597  Biso   1.000  N
  C35      1.0000 0.65684  0.66668  0.92436  Biso   1.000  C
  H26      1.0000 0.93730  0.74662  0.88845  Biso   1.000  H
  H27      1.0000 0.81578  0.75380  0.01513  Biso   1.000  H
  C36      1.0000 0.65395  0.65628  0.78730  Biso   1.000  C
  O6       1.0000 0.51142  0.66107  0.89712  Biso   1.000  O
  H28      1.0000 0.53965  0.66231  0.77033  Biso   1.000  H
  H29      1.0000 0.69395  0.68178  0.75748  Biso   1.000  H
  H30      1.0000 0.67239  0.61819  0.77488  Biso   1.000  H
  C37      1.0000 0.37475  0.40376  0.62433  Biso   1.000  C
  N7       1.0000 0.47938  0.36968  0.69308  Biso   1.000  N
  H31      1.0000 0.30854  0.37991  0.57882  Biso   1.000  H
  H32      1.0000 0.43937  0.42791  0.60588  Biso   1.000  H
  H33      1.0000 0.30632  0.42630  0.64222  Biso   1.000  H
  C38      1.0000 0.42021  0.32395  0.71417  Biso   1.000  C
  C39      1.0000 0.62340  0.39501  0.74965  Biso   1.000  C
  O7       1.0000 0.27899  0.31004  0.67930  Biso   1.000  O
  C40      1.0000 0.53941  0.28780  0.77824  Biso   1.000  C
  C41      1.0000 0.74762  0.40533  0.72634  Biso   1.000  C
  C42      1.0000 0.63333  0.41243  0.82584  Biso   1.000  C
  C43      1.0000 0.52234  0.27356  0.84994  Biso   1.000  C
  C44      1.0000 0.66442  0.26585  0.76213  Biso   1.000  C
  C45      1.0000 0.88235  0.43203  0.78064  Biso   1.000  C
  H34      1.0000 0.74019  0.39419  0.67371  Biso   1.000  H
  C46      1.0000 0.76610  0.44148  0.87847  Biso   1.000  C
  H35      1.0000 0.54931  0.40451  0.84213  Biso   1.000  H
  H36      1.0000 0.43458  0.28689  0.85972  Biso   1.000  H
  C47      1.0000 0.63498  0.23972  0.90694  Biso   1.000  C
  C48      1.0000 0.77185  0.23003  0.81790  Biso   1.000  C
  H37      1.0000 0.67571  0.27550  0.71312  Biso   1.000  H
  C49      1.0000 0.89104  0.45139  0.85554  Biso   1.000  C
  N8       1.0000 0.01346  0.44144  0.75795  Biso   1.000  N
  C50      1.0000 0.75283  0.46930  0.95073  Biso   1.000  C
  N9       1.0000 0.62566  0.22450  0.98350  Biso   1.000  N
  C51      1.0000 0.75815  0.21690  0.89083  Biso   1.000  C
  N10      1.0000 0.88919  0.20176  0.79798  Biso   1.000  N
  H38      1.0000 0.98193  0.47132  0.89102  Biso   1.000  H
  C52      1.0000 0.99587  0.48523  0.69738  Biso   1.000  C
  C53      1.0000 0.15371  0.41519  0.79681  Biso   1.000  C
  O8       1.0000 0.71648  0.51853  0.94581  Biso   1.000  O
  N11      1.0000 0.76477  0.43789  0.01542  Biso   1.000  N
  C54      1.0000 0.52276  0.17729  0.97987  Biso   1.000  C
  C55      1.0000 0.74985  0.23655  0.05569  Biso   1.000  C
  H39      1.0000 0.83229  0.19260  0.92933  Biso   1.000  H
  C56      1.0000 0.83947  0.14828  0.75617  Biso   1.000  C
  C57      1.0000 0.04338  0.21633  0.82780  Biso   1.000  C
  H40      1.0000 0.88882  0.48349  0.65311  Biso   1.000  H
  H41      1.0000 0.01178  0.52129  0.72444  Biso   1.000  H
  H42      1.0000 0.07515  0.47999  0.67438  Biso   1.000  H
  O9       1.0000 0.27628  0.42902  0.78876  Biso   1.000  O
  C58      1.0000 0.15531  0.36691  0.84963  Biso   1.000  C
  C59      1.0000 0.84592  0.38536  0.03374  Biso   1.000  C
  C60      1.0000 0.71627  0.45952  0.07894  Biso   1.000  C
  H43      1.0000 0.57559  0.14299  0.97594  Biso   1.000  H
  H44      1.0000 0.42168  0.18092  0.93160  Biso   1.000  H
  H45      1.0000 0.50243  0.17650  0.02968  Biso   1.000  H
  O10      1.0000 0.78364  0.20791  0.11780  Biso   1.000  O
  C61      1.0000 0.84197  0.28809  0.05723  Biso   1.000  C
  H46      1.0000 0.91288  0.13750  0.73151  Biso   1.000  H
  H47      1.0000 0.73166  0.15149  0.71300  Biso   1.000  H
  H48      1.0000 0.84092  0.12030  0.79614  Biso   1.000  H
  O11      1.0000 0.14540  0.18533  0.82221  Biso   1.000  O
  C62      1.0000 0.09471  0.27204  0.86574  Biso   1.000  C
  C63      1.0000 0.08011  0.31764  0.81544  Biso   1.000  C
  C64      1.0000 0.24213  0.37100  0.93406  Biso   1.000  C
  C65      1.0000 0.76088  0.33753  0.02962  Biso   1.000  C
  C66      1.0000 0.01115  0.38420  0.06283  Biso   1.000  C
  H49      1.0000 0.81119  0.46930  0.12807  Biso   1.000  H
  H50      1.0000 0.65557  0.43121  0.09314  Biso   1.000  H
  H51      1.0000 0.65009  0.49241  0.05797  Biso   1.000  H
  C67      1.0000 0.00730  0.28673  0.08988  Biso   1.000  C
  C68      1.0000 0.17705  0.27695  0.95042  Biso   1.000  C
  H52      1.0000 0.01863  0.31500  0.75789  Biso   1.000  H
  C69      1.0000 0.24894  0.32663  0.98510  Biso   1.000  C
  H53      1.0000 0.29703  0.40422  0.95712  Biso   1.000  H
  H54      1.0000 0.64795  0.33840  0.00804  Biso   1.000  H
  H55      1.0000 0.06857  0.41689  0.06375  Biso   1.000  H
  C70      1.0000 0.09050  0.33464  0.09044  Biso   1.000  C
  H56      1.0000 0.06272  0.25338  0.11153  Biso   1.000  H
  H57      1.0000 0.18428  0.24620  0.98492  Biso   1.000  H
  C71      1.0000 0.34317  0.33332  0.07562  Biso   1.000  C
  N12      1.0000 0.26242  0.33390  0.12401  Biso   1.000  N
  O12      1.0000 0.48859  0.33893  0.10286  Biso   1.000  O
  C72      1.0000 0.34612  0.34372  0.21274  Biso   1.000  C
  H58      1.0000 0.46047  0.33769  0.22965  Biso   1.000  H
  H59      1.0000 0.30611  0.31822  0.24257  Biso   1.000  H
  H60      1.0000 0.32779  0.38181  0.22517  Biso   1.000  H
  C73      1.0000 0.52275  0.32271  0.47988  Biso   1.000  C
  N13      1.0000 0.62560  0.27550  0.48345  Biso   1.000  N
  H61      1.0000 0.57554  0.35701  0.47589  Biso   1.000  H
  H62      1.0000 0.42167  0.31908  0.43161  Biso   1.000  H
  H63      1.0000 0.50242  0.32350  0.52969  Biso   1.000  H
  C74      1.0000 0.63498  0.26028  0.40695  Biso   1.000  C
  C75      1.0000 0.74984  0.26345  0.55570  Biso   1.000  C
  C76      1.0000 0.52233  0.22644  0.34995  Biso   1.000  C
  C77      1.0000 0.75809  0.28310  0.39078  Biso   1.000  C
  O13      1.0000 0.78368  0.29209  0.61787  Biso   1.000  O
  C78      1.0000 0.84201  0.21191  0.55730  Biso   1.000  C
  C79      1.0000 0.53929  0.21220  0.27825  Biso   1.000  C
  H64      1.0000 0.43458  0.21311  0.35973  Biso   1.000  H
  C80      1.0000 0.77185  0.26997  0.31791  Biso   1.000  C
  H65      1.0000 0.83228  0.30740  0.42934  Biso   1.000  H
  C81      1.0000 0.76077  0.16247  0.52963  Biso   1.000  C
  C82      1.0000 0.00734  0.21327  0.58995  Biso   1.000  C
  C83      1.0000 0.42021  0.17605  0.21418  Biso   1.000  C
  C84      1.0000 0.66441  0.23415  0.26214  Biso   1.000  C
  N14      1.0000 0.88918  0.29824  0.29799  Biso   1.000  N
  C85      1.0000 0.84596  0.11464  0.53381  Biso   1.000  C
  H66      1.0000 0.64799  0.16160  0.50811  Biso   1.000  H
  H67      1.0000 0.06276  0.24662  0.61160  Biso   1.000  H
  C86      1.0000 0.09038  0.16536  0.59045  Biso   1.000  C
  O14      1.0000 0.27898  0.18996  0.17931  Biso   1.000  O
  N15      1.0000 0.47938  0.13032  0.19308  Biso   1.000  N
  H68      1.0000 0.67560  0.22450  0.21313  Biso   1.000  H
  C87      1.0000 0.83941  0.35172  0.25611  Biso   1.000  C
  C88      1.0000 0.04337  0.28367  0.32781  Biso   1.000  C
  N16      1.0000 0.76481  0.06211  0.51549  Biso   1.000  N
  C89      1.0000 0.01119  0.11580  0.56290  Biso   1.000  C
  N17      1.0000 0.26246  0.16610  0.62408  Biso   1.000  N
  C90      1.0000 0.62334  0.10499  0.24960  Biso   1.000  C
  C91      1.0000 0.37469  0.09624  0.12428  Biso   1.000  C
  H69      1.0000 0.91287  0.36250  0.23152  Biso   1.000  H
  H70      1.0000 0.73165  0.34851  0.21301  Biso   1.000  H
  H71      1.0000 0.84075  0.37970  0.29608  Biso   1.000  H
  O15      1.0000 0.14529  0.31467  0.32222  Biso   1.000  O
  C92      1.0000 0.09470  0.22796  0.36575  Biso   1.000  C
  C93      1.0000 0.75272  0.03070  0.45074  Biso   1.000  C
  C94      1.0000 0.71631  0.04048  0.57901  Biso   1.000  C
  H72      1.0000 0.06861  0.08311  0.56382  Biso   1.000  H
  C95      1.0000 0.34321  0.16668  0.57569  Biso   1.000  C
  C96      1.0000 0.34611  0.15628  0.71275  Biso   1.000  C
  C97      1.0000 0.74757  0.09467  0.22629  Biso   1.000  C
  C98      1.0000 0.63333  0.08757  0.32585  Biso   1.000  C
  H73      1.0000 0.30848  0.12009  0.07877  Biso   1.000  H
  H74      1.0000 0.43925  0.07209  0.10589  Biso   1.000  H
  H75      1.0000 0.30631  0.07370  0.14223  Biso   1.000  H
  C99      1.0000 0.08011  0.18236  0.31545  Biso   1.000  C
  C100     1.0000 0.17704  0.22305  0.45043  Biso   1.000  C
  C101     1.0000 0.76604  0.05852  0.37842  Biso   1.000  C
  O16      1.0000 0.71647  0.98147  0.44582  Biso   1.000  O
  H76      1.0000 0.81112  0.03070  0.62814  Biso   1.000  H
  H77      1.0000 0.65562  0.06879  0.59321  Biso   1.000  H
  H78      1.0000 0.65002  0.00759  0.55804  Biso   1.000  H
  C102     1.0000 0.24878  0.17337  0.48505  Biso   1.000  C
  O17      1.0000 0.48863  0.16107  0.60293  Biso   1.000  O
  H79      1.0000 0.46051  0.16231  0.72972  Biso   1.000  H
  H80      1.0000 0.30615  0.18178  0.74264  Biso   1.000  H
  H81      1.0000 0.32783  0.11819  0.72524  Biso   1.000  H
  C103     1.0000 0.88234  0.06797  0.28065  Biso   1.000  C
  H82      1.0000 0.74008  0.10581  0.17371  Biso   1.000  H
  H83      1.0000 0.54925  0.09549  0.34208  Biso   1.000  H
  C104     1.0000 0.15531  0.13309  0.34964  Biso   1.000  C
  H84      1.0000 0.01862  0.18500  0.25790  Biso   1.000  H
  H85      1.0000 0.18428  0.25380  0.48493  Biso   1.000  H
  C105     1.0000 0.89099  0.04861  0.35548  Biso   1.000  C
  C106     1.0000 0.24207  0.12900  0.43401  Biso   1.000  C
  N18      1.0000 0.01341  0.05856  0.25790  Biso   1.000  N
  C107     1.0000 0.15371  0.08481  0.29682  Biso   1.000  C
  H86      1.0000 0.98192  0.02868  0.39103  Biso   1.000  H
  H87      1.0000 0.29703  0.09578  0.45713  Biso   1.000  H
  C108     1.0000 0.99586  0.01477  0.19739  Biso   1.000  C
  O18      1.0000 0.27628  0.07098  0.28877  Biso   1.000  O
  H88      1.0000 0.88881  0.01651  0.15311  Biso   1.000  H
  H89      1.0000 0.01173  0.97871  0.22438  Biso   1.000  H
  H90      1.0000 0.07514  0.02001  0.17439  Biso   1.000  H
  C109     1.0000 0.47731  0.67729  0.52016  Biso   1.000  C
  N19      1.0000 0.37441  0.72450  0.51653  Biso   1.000  N
  H91      1.0000 0.42448  0.64299  0.52410  Biso   1.000  H
  H92      1.0000 0.57850  0.68092  0.56843  Biso   1.000  H
  H93      1.0000 0.49759  0.67650  0.47029  Biso   1.000  H
  C110     1.0000 0.25017  0.73655  0.44428  Biso   1.000  C
  C111     1.0000 0.36520  0.73972  0.59309  Biso   1.000  C
  O19      1.0000 0.21649  0.70791  0.38217  Biso   1.000  O
  C112     1.0000 0.15800  0.78809  0.44268  Biso   1.000  C
  C113     1.0000 0.47768  0.77356  0.65003  Biso   1.000  C
  C114     1.0000 0.24192  0.71690  0.60920  Biso   1.000  C
  C115     1.0000 0.23925  0.83753  0.47035  Biso   1.000  C
  C116     1.0000 0.99272  0.78673  0.41009  Biso   1.000  C
  C117     1.0000 0.46077  0.78780  0.72179  Biso   1.000  C
  H94      1.0000 0.56559  0.78689  0.64032  Biso   1.000  H
  C118     1.0000 0.22821  0.73003  0.68213  Biso   1.000  C
  H95      1.0000 0.16789  0.69260  0.57071  Biso   1.000  H
  H96      1.0000 0.35218  0.83840  0.49194  Biso   1.000  H
  C119     1.0000 0.15410  0.88536  0.46623  Biso   1.000  C
  H97      1.0000 0.93736  0.75338  0.38838  Biso   1.000  H
  C120     1.0000 0.90963  0.83464  0.40954  Biso   1.000  C
  C121     1.0000 0.57986  0.82395  0.78587  Biso   1.000  C
  C122     1.0000 0.33565  0.76585  0.73790  Biso   1.000  C
  N20      1.0000 0.11099  0.70176  0.70205  Biso   1.000  N
  N21      1.0000 0.23520  0.93789  0.48449  Biso   1.000  N
  C123     1.0000 0.98898  0.88420  0.43715  Biso   1.000  C
  N22      1.0000 0.73766  0.83390  0.37590  Biso   1.000  N
  O20      1.0000 0.72104  0.81004  0.82067  Biso   1.000  O
  N23      1.0000 0.52079  0.86968  0.80696  Biso   1.000  N
  H98      1.0000 0.32446  0.77550  0.78691  Biso   1.000  H
  C124     1.0000 0.16060  0.64828  0.74387  Biso   1.000  C
  C125     1.0000 0.95680  0.71633  0.67223  Biso   1.000  C
  C126     1.0000 0.24735  0.96930  0.54931  Biso   1.000  C
  C127     1.0000 0.28370  0.95952  0.42097  Biso   1.000  C
  H99      1.0000 0.93145  0.91689  0.43622  Biso   1.000  H
  C128     1.0000 0.65680  0.83332  0.42429  Biso   1.000  C
  C129     1.0000 0.65391  0.84372  0.28723  Biso   1.000  C
  C130     1.0000 0.37678  0.89501  0.75039  Biso   1.000  C
  C131     1.0000 0.62532  0.90376  0.87571  Biso   1.000  C
  H100     1.0000 0.08730  0.63750  0.76853  Biso   1.000  H
  H101     1.0000 0.26852  0.65149  0.78704  Biso   1.000  H
  H102     1.0000 0.15926  0.62030  0.70390  Biso   1.000  H
  O21      1.0000 0.85477  0.68533  0.67783  Biso   1.000  O
  C132     1.0000 0.90536  0.77204  0.63429  Biso   1.000  C
  C133     1.0000 0.23408  0.94148  0.62156  Biso   1.000  C
  O22      1.0000 0.28370  0.01853  0.55423  Biso   1.000  O
  H103     1.0000 0.18894  0.96930  0.37190  Biso   1.000  H
  H104     1.0000 0.34445  0.93121  0.40683  Biso   1.000  H
  H105     1.0000 0.35004  0.99241  0.44200  Biso   1.000  H
  O23      1.0000 0.51138  0.83893  0.39705  Biso   1.000  O
  C134     1.0000 0.75123  0.82663  0.51493  Biso   1.000  C
  H106     1.0000 0.53966  0.83769  0.27032  Biso   1.000  H
  H107     1.0000 0.69391  0.81822  0.25741  Biso   1.000  H
  H108     1.0000 0.67234  0.88181  0.27481  Biso   1.000  H
  C135     1.0000 0.25245  0.90533  0.77369  Biso   1.000  C
  C136     1.0000 0.36674  0.91243  0.67420  Biso   1.000  C
  H109     1.0000 0.69153  0.87991  0.92121  Biso   1.000  H
  H110     1.0000 0.56076  0.92791  0.89409  Biso   1.000  H
  H111     1.0000 0.69375  0.92630  0.85781  Biso   1.000  H
  C137     1.0000 0.91991  0.81764  0.68453  Biso   1.000  C
  C138     1.0000 0.82297  0.77695  0.54955  Biso   1.000  C
  C139     1.0000 0.10903  0.95139  0.64450  Biso   1.000  C
  C140     1.0000 0.75805  0.87100  0.56597  Biso   1.000  C
  C141     1.0000 0.11778  0.93203  0.71933  Biso   1.000  C
  H112     1.0000 0.25998  0.89419  0.82633  Biso   1.000  H
  H113     1.0000 0.45087  0.90451  0.65790  Biso   1.000  H
  H114     1.0000 0.98139  0.81500  0.74208  Biso   1.000  H
  C142     1.0000 0.84476  0.86691  0.65040  Biso   1.000  C
  H115     1.0000 0.81590  0.74620  0.51512  Biso   1.000  H
  H116     1.0000 0.01814  0.97132  0.60902  Biso   1.000  H
  H117     1.0000 0.70304  0.90422  0.54291  Biso   1.000  H
  N24      1.0000 0.98661  0.94144  0.74208  Biso   1.000  N
  C143     1.0000 0.84635  0.91519  0.70322  Biso   1.000  C
  C144     1.0000 0.00426  0.98523  0.80259  Biso   1.000  C
  O24      1.0000 0.72390  0.92902  0.71128  Biso   1.000  O
  H118     1.0000 0.11125  0.98349  0.84693  Biso   1.000  H
  H119     1.0000 0.92498  0.97999  0.82559  Biso   1.000  H
  H120     1.0000 0.98839  0.02129  0.77560  Biso   1.000  H
