data_image0
_cell_length_a       15.22
_cell_length_b       10.228
_cell_length_c       20.932
_cell_angle_alpha    90
_cell_angle_beta     110.93
_cell_angle_gamma    90

_symmetry_space_group_name_H-M    "P 1"
_symmetry_int_tables_number       1

loop_
  _symmetry_equiv_pos_as_xyz
  'x, y, z'

loop_
  _atom_site_label
  _atom_site_occupancy
  _atom_site_fract_x
  _atom_site_fract_y
  _atom_site_fract_z
  _atom_site_thermal_displace_type
  _atom_site_B_iso_or_equiv
  _atom_site_type_symbol
  C1       1.0000 0.53475  0.66660  0.47983  Biso   1.000  C
  C2       1.0000 0.45161  0.75352  0.47415  Biso   1.000  C
  O1       1.0000 0.54481  0.65448  0.41579  Biso   1.000  O
  H1       1.0000 0.52413  0.57968  0.49553  Biso   1.000  H
  C3       1.0000 0.62545  0.72360  0.53097  Biso   1.000  C
  O2       1.0000 0.36529  0.69388  0.43246  Biso   1.000  O
  C4       1.0000 0.44871  0.78060  0.54530  Biso   1.000  C
  H2       1.0000 0.45872  0.83672  0.45333  Biso   1.000  H
  H3       1.0000 0.58761  0.60344  0.41891  Biso   1.000  H
  C5       1.0000 0.61432  0.75000  0.59926  Biso   1.000  C
  O3       1.0000 0.69854  0.63072  0.53906  Biso   1.000  O
  H4       1.0000 0.64064  0.80544  0.51282  Biso   1.000  H
  H5       1.0000 0.33511  0.74531  0.40259  Biso   1.000  H
  O4       1.0000 0.42899  0.66338  0.57215  Biso   1.000  O
  O5       1.0000 0.53430  0.83506  0.58765  Biso   1.000  O
  H6       1.0000 0.39800  0.84308  0.54090  Biso   1.000  H
  C6       1.0000 0.69206  0.81912  0.65772  Biso   1.000  C
  H7       1.0000 0.60060  0.66660  0.61680  Biso   1.000  H
  C7       1.0000 0.70303  0.82059  0.64529  Biso   1.000  C
  C8       1.0000 0.77430  0.66797  0.51941  Biso   1.000  C
  C9       1.0000 0.35486  0.66455  0.59967  Biso   1.000  C
  H8       1.0000 0.66872  0.84122  0.69393  Biso   1.000  H
  H9       1.0000 0.74542  0.76105  0.67659  Biso   1.000  H
  O6       1.0000 0.72103  0.93713  0.63230  Biso   1.000  O
  H10      1.0000 0.75824  0.76652  0.65322  Biso   1.000  H
  H11      1.0000 0.71141  0.90233  0.62463  Biso   1.000  H
  O7       1.0000 0.68805  0.84474  0.70882  Biso   1.000  O
  O8       1.0000 0.85449  0.69965  0.57670  Biso   1.000  O
  H12      1.0000 0.75562  0.74521  0.48980  Biso   1.000  H
  C10      1.0000 0.79550  0.55671  0.47870  Biso   1.000  C
  C11      1.0000 0.29630  0.54273  0.57128  Biso   1.000  C
  H13      1.0000 0.31617  0.74325  0.58483  Biso   1.000  H
  C12      1.0000 0.39431  0.65682  0.67716  Biso   1.000  C
  H14      1.0000 0.72175  0.99853  0.65772  Biso   1.000  H
  H15      1.0000 0.66593  0.77914  0.71982  Biso   1.000  H
  C13      1.0000 0.88962  0.59318  0.62427  Biso   1.000  C
  O9       1.0000 0.71532  0.52767  0.41967  Biso   1.000  O
  H16      1.0000 0.84704  0.58379  0.46392  Biso   1.000  H
  C14      1.0000 0.82700  0.43733  0.52438  Biso   1.000  C
  O10      1.0000 0.25603  0.54361  0.49880  Biso   1.000  O
  C15      1.0000 0.21994  0.52708  0.60228  Biso   1.000  C
  H17      1.0000 0.33828  0.46676  0.58504  Biso   1.000  H
  O11      1.0000 0.31691  0.65291  0.70109  Biso   1.000  O
  C16      1.0000 0.46394  0.76427  0.71644  Biso   1.000  C
  H18      1.0000 0.42736  0.57303  0.68933  Biso   1.000  H
  C17      1.0000 0.43405  0.79273  0.70401  Biso   1.000  C
  C18      1.0000 0.90890  0.47302  0.58862  Biso   1.000  C
  H19      1.0000 0.84342  0.57147  0.64539  Biso   1.000  H
  C19      1.0000 0.97752  0.64617  0.67787  Biso   1.000  C
  H20      1.0000 0.67169  0.57577  0.41860  Biso   1.000  H
  O12      1.0000 0.85285  0.33467  0.48898  Biso   1.000  O
  H21      1.0000 0.77454  0.40751  0.53742  Biso   1.000  H
  H22      1.0000 0.21724  0.48455  0.48591  Biso   1.000  H
  O13      1.0000 0.17271  0.40516  0.58437  Biso   1.000  O
  C20      1.0000 0.26227  0.53862  0.68094  Biso   1.000  C
  H23      1.0000 0.17376  0.59718  0.58463  Biso   1.000  H
  H24      1.0000 0.48077  0.74971  0.76513  Biso   1.000  H
  H25      1.0000 0.52090  0.75675  0.70600  Biso   1.000  H
  O14      1.0000 0.42743  0.89558  0.70043  Biso   1.000  O
  H26      1.0000 0.46704  0.83242  0.67700  Biso   1.000  H
  O15      1.0000 0.49766  0.74824  0.77050  Biso   1.000  O
  H27      1.0000 0.38624  0.85178  0.70754  Biso   1.000  H
  O16      1.0000 0.92251  0.36390  0.63399  Biso   1.000  O
  H28      1.0000 0.96553  0.48690  0.57752  Biso   1.000  H
  H29      1.0000 0.96182  0.72145  0.69982  Biso   1.000  H
  O17      1.0000 0.04474  0.68322  0.64754  Biso   1.000  O
  H30      1.0000 0.00470  0.58007  0.71260  Biso   1.000  H
  H31      1.0000 0.88411  0.28041  0.51650  Biso   1.000  H
  H32      1.0000 0.20644  0.35315  0.57399  Biso   1.000  H
  O18      1.0000 0.31685  0.42569  0.70672  Biso   1.000  O
  H33      1.0000 0.21083  0.54204  0.69874  Biso   1.000  H
  H34      1.0000 0.42605  0.93088  0.73521  Biso   1.000  H
  H35      1.0000 0.48584  0.78686  0.80073  Biso   1.000  H
  C21      1.0000 0.01315  0.30866  0.66186  Biso   1.000  C
  H36      1.0000 0.09650  0.65379  0.67051  Biso   1.000  H
  C22      1.0000 0.29408  0.34758  0.75506  Biso   1.000  C
  O19      1.0000 0.05545  0.33878  0.73219  Biso   1.000  O
  H37      1.0000 0.05253  0.34239  0.63731  Biso   1.000  H
  C23      1.0000 0.00223  0.16191  0.65194  Biso   1.000  C
  C24      1.0000 0.30576  0.20679  0.73710  Biso   1.000  C
  H38      1.0000 0.22835  0.36302  0.75004  Biso   1.000  H
  C25      1.0000 0.35783  0.38043  0.82825  Biso   1.000  C
  C26      1.0000 0.00307  0.29478  0.77321  Biso   1.000  C
  O20      1.0000 0.95974  0.13463  0.58151  Biso   1.000  O
  C27      1.0000 0.94722  0.10530  0.69337  Biso   1.000  C
  H39      1.0000 0.06511  0.12270  0.66841  Biso   1.000  H
  O21      1.0000 0.23582  0.17931  0.67138  Biso   1.000  O
  C28      1.0000 0.29437  0.11527  0.79014  Biso   1.000  C
  H40      1.0000 0.36843  0.19515  0.73480  Biso   1.000  H
  O22      1.0000 0.34478  0.28559  0.87510  Biso   1.000  O
  H41      1.0000 0.42365  0.37896  0.83142  Biso   1.000  H
  C29      1.0000 0.33594  0.51154  0.85203  Biso   1.000  C
  C30      1.0000 0.99270  0.14705  0.76749  Biso   1.000  C
  H42      1.0000 0.94033  0.33438  0.75572  Biso   1.000  H
  C31      1.0000 0.05432  0.34484  0.84436  Biso   1.000  C
  H43      1.0000 0.95532  0.05524  0.57573  Biso   1.000  H
  H44      1.0000 0.88283  0.13942  0.67532  Biso   1.000  H
  O23      1.0000 0.94413  0.96734  0.68774  Biso   1.000  O
  H45      1.0000 0.25756  0.19417  0.64140  Biso   1.000  H
  C32      1.0000 0.36135  0.15585  0.86042  Biso   1.000  C
  H46      1.0000 0.22976  0.12270  0.78943  Biso   1.000  H
  O24      1.0000 0.31096  0.98318  0.77685  Biso   1.000  O
  O25      1.0000 0.23955  0.51467  0.84492  Biso   1.000  O
  H47      1.0000 0.37523  0.52532  0.89950  Biso   1.000  H
  H48      1.0000 0.34897  0.58056  0.82493  Biso   1.000  H
  O26      1.0000 0.93511  0.10051  0.80339  Biso   1.000  O
  H49      1.0000 0.05514  0.10677  0.78692  Biso   1.000  H
  O27      1.0000 0.14546  0.29165  0.87408  Biso   1.000  O
  H50      1.0000 0.05907  0.43928  0.84293  Biso   1.000  H
  H51      1.0000 0.01821  0.32362  0.87290  Biso   1.000  H
  H52      1.0000 0.89002  0.94388  0.66642  Biso   1.000  H
  O28      1.0000 0.45361  0.13962  0.86124  Biso   1.000  O
  H53      1.0000 0.35218  0.09797  0.89485  Biso   1.000  H
  H54      1.0000 0.26066  0.94720  0.75603  Biso   1.000  H
  H55      1.0000 0.20683  0.52249  0.80441  Biso   1.000  H
  C33      1.0000 0.97826  0.02904  0.86421  Biso   1.000  C
  H56      1.0000 0.17933  0.32137  0.85475  Biso   1.000  H
  C34      1.0000 0.52215  0.07802  0.91904  Biso   1.000  C
  O29      1.0000 0.97500  0.10022  0.92124  Biso   1.000  O
  C35      1.0000 0.92702  0.90008  0.85715  Biso   1.000  C
  H57      1.0000 0.04413  0.01232  0.87004  Biso   1.000  H
  H58      1.0000 0.49525  0.06160  0.95443  Biso   1.000  H
  C36      1.0000 0.60698  0.16914  0.94702  Biso   1.000  C
  C37      1.0000 0.54767  0.94965  0.89423  Biso   1.000  C
  C38      1.0000 0.88133  0.12612  0.91940  Biso   1.000  C
  O30      1.0000 0.93195  0.83135  0.80058  Biso   1.000  O
  H59      1.0000 0.96031  0.84826  0.89802  Biso   1.000  H
  C39      1.0000 0.82792  0.92022  0.85510  Biso   1.000  C
  O31      1.0000 0.68395  0.10061  0.99643  Biso   1.000  O
  H60      1.0000 0.62577  0.19994  0.90942  Biso   1.000  H
  C40      1.0000 0.58784  0.28442  0.98482  Biso   1.000  C
  O32      1.0000 0.47046  0.85970  0.87776  Biso   1.000  O
  C41      1.0000 0.63279  0.88932  0.94845  Biso   1.000  C
  H61      1.0000 0.56257  0.96578  0.85301  Biso   1.000  H
  H62      1.0000 0.84732  0.17403  0.87720  Biso   1.000  H
  C42      1.0000 0.88855  0.21275  0.98011  Biso   1.000  C
  C43      1.0000 0.83103  0.99668  0.91812  Biso   1.000  C
  H63      1.0000 0.88931  0.85540  0.76580  Biso   1.000  H
  O33      1.0000 0.78222  0.79918  0.85127  Biso   1.000  O
  H64      1.0000 0.79325  0.97155  0.81434  Biso   1.000  H
  C44      1.0000 0.71236  0.98729  0.97080  Biso   1.000  C
  H65      1.0000 0.53405  0.33232  0.95464  Biso   1.000  H
  O34      1.0000 0.66666  0.36996  0.00911  Biso   1.000  O
  H66      1.0000 0.57220  0.25332  0.02333  Biso   1.000  H
  H67      1.0000 0.42234  0.89578  0.85270  Biso   1.000  H
  O35      1.0000 0.66003  0.77386  0.92206  Biso   1.000  O
  H68      1.0000 0.61597  0.86557  0.98804  Biso   1.000  H
  H69      1.0000 0.92823  0.28754  0.98103  Biso   1.000  H
  H70      1.0000 0.82655  0.24511  0.97520  Biso   1.000  H
  O36      1.0000 0.92681  0.14226  0.04246  Biso   1.000  O
  O37      1.0000 0.73677  0.01897  0.91336  Biso   1.000  O
  H71      1.0000 0.86459  0.94632  0.95955  Biso   1.000  H
  H72      1.0000 0.77568  0.78422  0.88784  Biso   1.000  H
  H73      1.0000 0.76676  0.94857  0.00650  Biso   1.000  H
  H74      1.0000 0.70536  0.34992  0.99172  Biso   1.000  H
  H75      1.0000 0.71766  0.76907  0.93612  Biso   1.000  H
  H76      1.0000 0.90816  0.17452  0.07110  Biso   1.000  H
  C45      1.0000 0.46531  0.16660  0.52023  Biso   1.000  C
  C46      1.0000 0.37461  0.22360  0.46908  Biso   1.000  C
  O38      1.0000 0.45529  0.15448  0.58422  Biso   1.000  O
  C47      1.0000 0.54843  0.25352  0.52586  Biso   1.000  C
  H77      1.0000 0.47593  0.07968  0.50453  Biso   1.000  H
  O39      1.0000 0.30156  0.13072  0.46095  Biso   1.000  O
  H78      1.0000 0.35939  0.30544  0.48719  Biso   1.000  H
  C48      1.0000 0.38574  0.25000  0.40080  Biso   1.000  C
  H79      1.0000 0.41243  0.10334  0.58110  Biso   1.000  H
  O40      1.0000 0.63484  0.19388  0.56760  Biso   1.000  O
  C49      1.0000 0.55132  0.28060  0.45471  Biso   1.000  C
  H80      1.0000 0.54134  0.33672  0.54673  Biso   1.000  H
  C50      1.0000 0.22576  0.16797  0.48064  Biso   1.000  C
  O41      1.0000 0.46580  0.33506  0.41236  Biso   1.000  O
  C51      1.0000 0.30798  0.31912  0.34229  Biso   1.000  C
  H81      1.0000 0.39944  0.16660  0.38321  Biso   1.000  H
  C52      1.0000 0.29700  0.32059  0.35472  Biso   1.000  C
  H82      1.0000 0.66493  0.24531  0.59742  Biso   1.000  H
  O42      1.0000 0.57104  0.16338  0.42786  Biso   1.000  O
  H83      1.0000 0.60204  0.34308  0.45911  Biso   1.000  H
  C53      1.0000 0.20454  0.05671  0.52131  Biso   1.000  C
  O43      1.0000 0.14555  0.19965  0.42331  Biso   1.000  O
  H84      1.0000 0.24442  0.24521  0.51021  Biso   1.000  H
  H85      1.0000 0.33134  0.34122  0.30612  Biso   1.000  H
  H86      1.0000 0.25462  0.26105  0.32341  Biso   1.000  H
  O44      1.0000 0.27901  0.43713  0.36771  Biso   1.000  O
  H87      1.0000 0.24179  0.26652  0.34679  Biso   1.000  H
  H88      1.0000 0.28865  0.40233  0.37543  Biso   1.000  H
  O45      1.0000 0.31198  0.34474  0.29119  Biso   1.000  O
  C54      1.0000 0.64524  0.16455  0.40034  Biso   1.000  C
  C55      1.0000 0.17306  0.93733  0.47568  Biso   1.000  C
  O46      1.0000 0.28472  0.02767  0.58033  Biso   1.000  O
  H89      1.0000 0.15300  0.08379  0.53609  Biso   1.000  H
  C56      1.0000 0.11044  0.09318  0.37579  Biso   1.000  C
  H90      1.0000 0.27828  0.49853  0.34229  Biso   1.000  H
  H91      1.0000 0.33411  0.27914  0.28019  Biso   1.000  H
  C57      1.0000 0.60572  0.15682  0.32285  Biso   1.000  C
  C58      1.0000 0.70373  0.04273  0.42873  Biso   1.000  C
  H92      1.0000 0.68389  0.24325  0.41522  Biso   1.000  H
  C59      1.0000 0.09117  0.97302  0.41144  Biso   1.000  C
  O47      1.0000 0.14721  0.83467  0.51108  Biso   1.000  O
  H93      1.0000 0.22549  0.90751  0.46259  Biso   1.000  H
  H94      1.0000 0.32835  0.07577  0.58141  Biso   1.000  H
  H95      1.0000 0.15661  0.07147  0.35461  Biso   1.000  H
  C60      1.0000 0.02252  0.14617  0.32213  Biso   1.000  C
  O48      1.0000 0.68312  0.15291  0.29891  Biso   1.000  O
  C61      1.0000 0.53612  0.26427  0.28362  Biso   1.000  C
  H96      1.0000 0.57270  0.07303  0.31073  Biso   1.000  H
  C62      1.0000 0.56599  0.29273  0.29600  Biso   1.000  C
  C63      1.0000 0.78009  0.02708  0.39773  Biso   1.000  C
  H97      1.0000 0.66185  0.96676  0.41502  Biso   1.000  H
  O49      1.0000 0.74400  0.04361  0.50121  Biso   1.000  O
  O50      1.0000 0.07755  0.86390  0.36607  Biso   1.000  O
  H98      1.0000 0.03450  0.98690  0.42249  Biso   1.000  H
  H99      1.0000 0.11593  0.78041  0.48351  Biso   1.000  H
  O51      1.0000 0.95529  0.18322  0.35247  Biso   1.000  O
  H100     1.0000 0.99534  0.08007  0.28740  Biso   1.000  H
  H101     1.0000 0.03822  0.22145  0.30019  Biso   1.000  H
  C64      1.0000 0.73779  0.03862  0.31912  Biso   1.000  C
  H102     1.0000 0.51929  0.24971  0.23493  Biso   1.000  H
  H103     1.0000 0.47913  0.25675  0.29400  Biso   1.000  H
  O52      1.0000 0.57263  0.39558  0.29963  Biso   1.000  O
  H104     1.0000 0.53300  0.33242  0.32300  Biso   1.000  H
  O53      1.0000 0.50237  0.24824  0.22950  Biso   1.000  O
  H105     1.0000 0.61382  0.35178  0.29252  Biso   1.000  H
  O54      1.0000 0.82735  0.90516  0.41569  Biso   1.000  O
  H106     1.0000 0.82631  0.09718  0.41543  Biso   1.000  H
  H107     1.0000 0.78279  0.98455  0.51410  Biso   1.000  H
  C65      1.0000 0.98689  0.80866  0.33814  Biso   1.000  C
  H108     1.0000 0.90354  0.15379  0.32950  Biso   1.000  H
  O55      1.0000 0.68327  0.92569  0.29334  Biso   1.000  O
  H109     1.0000 0.78923  0.04194  0.30132  Biso   1.000  H
  H110     1.0000 0.57398  0.43088  0.26480  Biso   1.000  H
  H111     1.0000 0.51422  0.28686  0.19933  Biso   1.000  H
  H112     1.0000 0.79360  0.85315  0.42602  Biso   1.000  H
  C66      1.0000 0.99781  0.66191  0.34807  Biso   1.000  C
  O56      1.0000 0.94458  0.83878  0.26781  Biso   1.000  O
  H113     1.0000 0.94751  0.84239  0.36270  Biso   1.000  H
  C67      1.0000 0.70602  0.84758  0.24495  Biso   1.000  C
  C68      1.0000 0.05282  0.60530  0.30664  Biso   1.000  C
  O57      1.0000 0.04030  0.63463  0.41850  Biso   1.000  O
  H114     1.0000 0.93492  0.62270  0.33160  Biso   1.000  H
  C69      1.0000 0.99699  0.79478  0.22684  Biso   1.000  C
  C70      1.0000 0.64220  0.88043  0.17176  Biso   1.000  C
  C71      1.0000 0.69427  0.70679  0.26290  Biso   1.000  C
  H115     1.0000 0.77171  0.86302  0.25001  Biso   1.000  H
  C72      1.0000 0.00734  0.64695  0.23252  Biso   1.000  C
  O58      1.0000 0.05593  0.46725  0.31231  Biso   1.000  O
  H116     1.0000 0.11721  0.63942  0.32469  Biso   1.000  H
  H117     1.0000 0.04474  0.55524  0.42433  Biso   1.000  H
  H118     1.0000 0.05970  0.83438  0.24429  Biso   1.000  H
  C73      1.0000 0.94572  0.84484  0.15565  Biso   1.000  C
  O59      1.0000 0.65525  0.78559  0.12491  Biso   1.000  O
  H119     1.0000 0.57639  0.87896  0.16859  Biso   1.000  H
  C74      1.0000 0.66409  0.01154  0.14797  Biso   1.000  C
  C75      1.0000 0.70567  0.61527  0.20986  Biso   1.000  C
  O60      1.0000 0.76424  0.67931  0.32868  Biso   1.000  O
  H120     1.0000 0.63161  0.69515  0.26521  Biso   1.000  H
  O61      1.0000 0.06495  0.60051  0.19667  Biso   1.000  O
  H121     1.0000 0.94490  0.60677  0.21309  Biso   1.000  H
  H122     1.0000 0.11001  0.44388  0.33359  Biso   1.000  H
  O62      1.0000 0.85464  0.79165  0.12593  Biso   1.000  O
  H123     1.0000 0.94099  0.93928  0.15713  Biso   1.000  H
  H124     1.0000 0.98183  0.82362  0.12710  Biso   1.000  H
  C76      1.0000 0.63868  0.65575  0.13958  Biso   1.000  C
  O63      1.0000 0.76049  0.01467  0.15508  Biso   1.000  O
  H125     1.0000 0.62481  0.02532  0.10051  Biso   1.000  H
  H126     1.0000 0.65106  0.08056  0.17508  Biso   1.000  H
  O64      1.0000 0.68914  0.48318  0.22316  Biso   1.000  O
  H127     1.0000 0.77030  0.62270  0.21063  Biso   1.000  H
  H128     1.0000 0.74247  0.69417  0.35860  Biso   1.000  H
  C77      1.0000 0.02178  0.52904  0.13580  Biso   1.000  C
  H129     1.0000 0.82073  0.82137  0.14531  Biso   1.000  H
  O65      1.0000 0.54645  0.63962  0.13882  Biso   1.000  O
  H130     1.0000 0.64788  0.59797  0.10521  Biso   1.000  H
  H131     1.0000 0.79320  0.02249  0.19559  Biso   1.000  H
  H132     1.0000 0.73940  0.44720  0.24403  Biso   1.000  H
  C78      1.0000 0.07301  0.40008  0.14286  Biso   1.000  C
  O66      1.0000 0.02503  0.60022  0.07877  Biso   1.000  O
  H133     1.0000 0.95593  0.51232  0.13002  Biso   1.000  H
  C79      1.0000 0.47789  0.57802  0.08097  Biso   1.000  C
  C80      1.0000 0.17214  0.42022  0.14496  Biso   1.000  C
  O67      1.0000 0.06811  0.33135  0.19948  Biso   1.000  O
  H134     1.0000 0.03973  0.34826  0.10199  Biso   1.000  H
  C81      1.0000 0.11871  0.62612  0.08061  Biso   1.000  C
  C82      1.0000 0.39308  0.66905  0.05304  Biso   1.000  C
  C83      1.0000 0.45236  0.44955  0.10578  Biso   1.000  C
  H135     1.0000 0.50481  0.56160  0.04562  Biso   1.000  H
  O68      1.0000 0.21782  0.29918  0.14874  Biso   1.000  O
  H136     1.0000 0.20681  0.47145  0.18572  Biso   1.000  H
  C84      1.0000 0.16901  0.49668  0.08189  Biso   1.000  C
  H137     1.0000 0.11073  0.35540  0.23421  Biso   1.000  H
  H138     1.0000 0.15271  0.67403  0.12281  Biso   1.000  H
  C85      1.0000 0.11148  0.71275  0.01990  Biso   1.000  C
  O69      1.0000 0.31611  0.60061  0.00363  Biso   1.000  O
  H139     1.0000 0.37427  0.69994  0.09058  Biso   1.000  H
  C86      1.0000 0.41219  0.78442  0.01519  Biso   1.000  C
  C87      1.0000 0.36727  0.38932  0.05161  Biso   1.000  C
  O70      1.0000 0.52957  0.35970  0.12225  Biso   1.000  O
  H140     1.0000 0.43753  0.46578  0.14700  Biso   1.000  H
  H141     1.0000 0.22438  0.28422  0.11222  Biso   1.000  H
  O71      1.0000 0.26326  0.51897  0.08665  Biso   1.000  O
  H142     1.0000 0.13547  0.44632  0.04051  Biso   1.000  H
  H143     1.0000 0.07181  0.78745  0.01898  Biso   1.000  H
  H144     1.0000 0.17349  0.74511  0.02481  Biso   1.000  H
  O72      1.0000 0.07325  0.64226  0.95760  Biso   1.000  O
  C88      1.0000 0.28767  0.48729  0.02921  Biso   1.000  C
  H145     1.0000 0.46601  0.83232  0.04542  Biso   1.000  H
  O73      1.0000 0.33337  0.86996  0.99090  Biso   1.000  O
  H146     1.0000 0.42783  0.75332  0.97668  Biso   1.000  H
  O74      1.0000 0.34000  0.27386  0.07795  Biso   1.000  O
  H147     1.0000 0.38409  0.36557  0.01202  Biso   1.000  H
  H148     1.0000 0.57769  0.39578  0.14731  Biso   1.000  H
  H149     1.0000 0.09188  0.67452  0.92890  Biso   1.000  H
  H150     1.0000 0.23327  0.44857  0.99350  Biso   1.000  H
  H151     1.0000 0.29468  0.84992  0.00829  Biso   1.000  H
  H152     1.0000 0.28237  0.26907  0.06388  Biso   1.000  H
