data_image0
_cell_length_a       12.436
_cell_length_b       20.83
_cell_length_c       14.261
_cell_angle_alpha    90
_cell_angle_beta     113.35
_cell_angle_gamma    90

_symmetry_space_group_name_H-M    "P 1"
_symmetry_int_tables_number       1

loop_
  _symmetry_equiv_pos_as_xyz
  'x, y, z'

loop_
  _atom_site_label
  _atom_site_occupancy
  _atom_site_fract_x
  _atom_site_fract_y
  _atom_site_fract_z
  _atom_site_thermal_displace_type
  _atom_site_B_iso_or_equiv
  _atom_site_type_symbol
  C1       1.0000 0.53385  0.17168  0.21424  Biso   1.000  C
  O1       1.0000 0.44459  0.15559  0.22485  Biso   1.000  O
  N1       1.0000 0.54013  0.21661  0.14702  Biso   1.000  N
  N2       1.0000 0.64462  0.14964  0.27007  Biso   1.000  N
  N3       1.0000 0.64457  0.14964  0.27014  Biso   1.000  N
  C2       1.0000 0.43820  0.24359  0.06767  Biso   1.000  C
  C3       1.0000 0.65856  0.22645  0.15390  Biso   1.000  C
  C4       1.0000 0.43824  0.24359  0.06775  Biso   1.000  C
  C5       1.0000 0.73281  0.18257  0.24471  Biso   1.000  C
  C6       1.0000 0.67101  0.10879  0.35874  Biso   1.000  C
  H1       1.0000 0.37268  0.24172  0.08928  Biso   1.000  H
  H2       1.0000 0.45349  0.28891  0.05919  Biso   1.000  H
  N4       1.0000 0.40365  0.21176  0.96953  Biso   1.000  N
  N5       1.0000 0.40357  0.21176  0.96953  Biso   1.000  N
  N6       1.0000 0.68050  0.19981  0.06859  Biso   1.000  N
  H3       1.0000 0.68266  0.27201  0.16658  Biso   1.000  H
  N7       1.0000 0.79480  0.14172  0.20118  Biso   1.000  N
  H4       1.0000 0.78718  0.20778  0.30314  Biso   1.000  H
  N8       1.0000 0.69548  0.04316  0.34217  Biso   1.000  N
  H5       1.0000 0.60430  0.10951  0.37898  Biso   1.000  H
  H6       1.0000 0.73883  0.12640  0.41541  Biso   1.000  H
  N9       1.0000 0.69552  0.04316  0.34224  Biso   1.000  N
  C7       1.0000 0.43130  0.23663  0.88689  Biso   1.000  C
  C8       1.0000 0.30987  0.17024  0.93447  Biso   1.000  C
  C9       1.0000 0.30991  0.17024  0.93455  Biso   1.000  C
  C10      1.0000 0.76729  0.15449  0.10066  Biso   1.000  C
  C11      1.0000 0.76732  0.15449  0.10074  Biso   1.000  C
  C12      1.0000 0.65494  0.23524  0.97502  Biso   1.000  C
  C13      1.0000 0.65486  0.23524  0.97502  Biso   1.000  C
  C14      1.0000 0.88752  0.09837  0.26029  Biso   1.000  C
  C15      1.0000 0.81109  0.01944  0.35591  Biso   1.000  C
  C16      1.0000 0.61669  0.99448  0.32643  Biso   1.000  C
  N10      1.0000 0.54639  0.21666  0.89223  Biso   1.000  N
  C17      1.0000 0.34538  0.20024  0.79180  Biso   1.000  C
  H7       1.0000 0.42062  0.28368  0.87948  Biso   1.000  H
  O2       1.0000 0.26367  0.14522  0.98656  Biso   1.000  O
  N11      1.0000 0.27831  0.16087  0.83281  Biso   1.000  N
  O3       1.0000 0.81137  0.12904  0.04728  Biso   1.000  O
  H8       1.0000 0.71948  0.22909  0.95303  Biso   1.000  H
  H9       1.0000 0.65113  0.28108  0.98893  Biso   1.000  H
  N12      1.0000 0.84619  0.03562  0.27320  Biso   1.000  N
  H10      1.0000 0.93084  0.11728  0.32781  Biso   1.000  H
  H11      1.0000 0.94214  0.09371  0.22653  Biso   1.000  H
  H12      1.0000 0.87161  0.03130  0.42343  Biso   1.000  H
  C18      1.0000 0.79333  0.94590  0.34408  Biso   1.000  C
  C19      1.0000 0.79325  0.94590  0.34408  Biso   1.000  C
  O4       1.0000 0.51612  0.00010  0.32154  Biso   1.000  O
  N13      1.0000 0.66731  0.93783  0.31681  Biso   1.000  N
  C20      1.0000 0.53839  0.17216  0.81891  Biso   1.000  C
  N14      1.0000 0.42347  0.16318  0.75873  Biso   1.000  N
  H13      1.0000 0.29509  0.22981  0.73811  Biso   1.000  H
  C21      1.0000 0.16487  0.13433  0.77041  Biso   1.000  C
  C22      1.0000 0.85713  0.98325  0.22050  Biso   1.000  C
  C23      1.0000 0.85705  0.98325  0.22050  Biso   1.000  C
  N15      1.0000 0.82987  0.93034  0.26312  Biso   1.000  N
  H14      1.0000 0.84051  0.92300  0.40808  Biso   1.000  H
  C24      1.0000 0.61953  0.87700  0.33109  Biso   1.000  C
  O5       1.0000 0.62178  0.14642  0.80830  Biso   1.000  O
  O6       1.0000 0.62181  0.14642  0.80837  Biso   1.000  O
  C25      1.0000 0.38047  0.12300  0.66891  Biso   1.000  C
  N16      1.0000 0.17005  0.06966  0.73688  Biso   1.000  N
  H15      1.0000 0.11550  0.13500  0.80952  Biso   1.000  H
  H16      1.0000 0.12766  0.16169  0.71030  Biso   1.000  H
  O7       1.0000 0.88658  0.98363  0.14817  Biso   1.000  O
  C26      1.0000 0.83513  0.86567  0.22959  Biso   1.000  C
  C27      1.0000 0.83505  0.86567  0.22959  Biso   1.000  C
  N17      1.0000 0.57645  0.83682  0.24127  Biso   1.000  N
  H17      1.0000 0.55510  0.88541  0.35263  Biso   1.000  H
  H18      1.0000 0.68028  0.85348  0.38639  Biso   1.000  H
  N18      1.0000 0.57649  0.83682  0.24135  Biso   1.000  N
  N19      1.0000 0.33269  0.06217  0.68319  Biso   1.000  N
  H19      1.0000 0.44490  0.11459  0.64737  Biso   1.000  H
  H20      1.0000 0.31972  0.14652  0.61361  Biso   1.000  H
  C28      1.0000 0.20667  0.05410  0.65592  Biso   1.000  C
  C29      1.0000 0.14287  0.01675  0.77950  Biso   1.000  C
  N20      1.0000 0.72169  0.83913  0.16719  Biso   1.000  N
  H21      1.0000 0.88450  0.86500  0.19048  Biso   1.000  H
  H22      1.0000 0.87226  0.83831  0.28970  Biso   1.000  H
  N21      1.0000 0.72173  0.83913  0.16726  Biso   1.000  N
  C30      1.0000 0.46161  0.82784  0.18109  Biso   1.000  C
  C31      1.0000 0.65462  0.79976  0.20820  Biso   1.000  C
  C32      1.0000 0.38331  0.00552  0.67357  Biso   1.000  C
  C33      1.0000 0.38327  0.00552  0.67364  Biso   1.000  C
  C34      1.0000 0.18891  0.98056  0.64409  Biso   1.000  C
  H23      1.0000 0.15949  0.07700  0.59192  Biso   1.000  H
  N22      1.0000 0.15381  0.96438  0.72680  Biso   1.000  N
  O8       1.0000 0.11342  0.01637  0.85183  Biso   1.000  O
  C35      1.0000 0.69013  0.82976  0.06553  Biso   1.000  C
  O9       1.0000 0.37822  0.85358  0.19170  Biso   1.000  O
  N23      1.0000 0.45361  0.78334  0.10777  Biso   1.000  N
  N24      1.0000 0.45365  0.78334  0.10784  Biso   1.000  N
  H24      1.0000 0.70491  0.77019  0.26189  Biso   1.000  H
  C36      1.0000 0.56870  0.76337  0.11311  Biso   1.000  C
  O10      1.0000 0.48388  0.99990  0.67846  Biso   1.000  O
  N25      1.0000 0.30452  0.95684  0.65783  Biso   1.000  N
  H25      1.0000 0.12839  0.96870  0.57657  Biso   1.000  H
  H26      1.0000 0.12842  0.96870  0.57665  Biso   1.000  H
  C37      1.0000 0.11248  0.90163  0.73971  Biso   1.000  C
  N26      1.0000 0.59635  0.78824  0.03047  Biso   1.000  N
  O11      1.0000 0.73625  0.85478  0.01344  Biso   1.000  O
  C38      1.0000 0.34506  0.76476  0.02498  Biso   1.000  C
  H27      1.0000 0.57938  0.71632  0.12052  Biso   1.000  H
  C39      1.0000 0.32899  0.89121  0.64126  Biso   1.000  C
  C40      1.0000 0.32902  0.89121  0.64134  Biso   1.000  C
  N27      1.0000 0.20520  0.85828  0.79882  Biso   1.000  N
  H28      1.0000 0.06916  0.88272  0.67219  Biso   1.000  H
  H29      1.0000 0.05786  0.90629  0.77347  Biso   1.000  H
  H30      1.0000 0.05790  0.90629  0.77354  Biso   1.000  H
  C41      1.0000 0.56180  0.75641  0.93233  Biso   1.000  C
  N28      1.0000 0.31950  0.80019  0.93141  Biso   1.000  N
  H31      1.0000 0.28052  0.77091  0.04697  Biso   1.000  H
  H32      1.0000 0.34887  0.71892  0.01107  Biso   1.000  H
  H33      1.0000 0.28055  0.77091  0.04705  Biso   1.000  H
  N29      1.0000 0.35538  0.85036  0.72993  Biso   1.000  N
  H34      1.0000 0.39570  0.89049  0.62102  Biso   1.000  H
  H35      1.0000 0.26117  0.87360  0.58459  Biso   1.000  H
  C42      1.0000 0.26719  0.81743  0.75529  Biso   1.000  C
  C43      1.0000 0.23271  0.84551  0.89934  Biso   1.000  C
  N30      1.0000 0.45987  0.78339  0.85298  Biso   1.000  N
  H36      1.0000 0.62732  0.75828  0.91072  Biso   1.000  H
  H37      1.0000 0.54651  0.71109  0.94081  Biso   1.000  H
  C44      1.0000 0.34136  0.77355  0.84610  Biso   1.000  C
  C45      1.0000 0.46615  0.82832  0.78576  Biso   1.000  C
  C46      1.0000 0.46619  0.82832  0.78584  Biso   1.000  C
  H38      1.0000 0.21282  0.79222  0.69686  Biso   1.000  H
  H39      1.0000 0.21277  0.79222  0.69694  Biso   1.000  H
  O12      1.0000 0.18863  0.87096  0.95272  Biso   1.000  O
  H40      1.0000 0.31734  0.72799  0.83342  Biso   1.000  H
  H41      1.0000 0.31726  0.72799  0.83342  Biso   1.000  H
  O13      1.0000 0.55541  0.84441  0.77515  Biso   1.000  O
  C47      1.0000 0.53385  0.17168  0.21424  Biso   1.000  C
  O14      1.0000 0.44459  0.15559  0.22485  Biso   1.000  O
  N31      1.0000 0.54013  0.21661  0.14702  Biso   1.000  N
  N32      1.0000 0.64462  0.14964  0.27007  Biso   1.000  N
  N33      1.0000 0.64457  0.14964  0.27014  Biso   1.000  N
  C48      1.0000 0.65856  0.22645  0.15390  Biso   1.000  C
  C49      1.0000 0.43820  0.24359  0.06767  Biso   1.000  C
  C50      1.0000 0.43824  0.24359  0.06775  Biso   1.000  C
  C51      1.0000 0.73281  0.18257  0.24471  Biso   1.000  C
  C52      1.0000 0.67101  0.10879  0.35874  Biso   1.000  C
  N34      1.0000 0.68050  0.19981  0.06859  Biso   1.000  N
  H42      1.0000 0.68266  0.27201  0.16658  Biso   1.000  H
  H43      1.0000 0.37268  0.24172  0.08928  Biso   1.000  H
  H44      1.0000 0.45349  0.28891  0.05919  Biso   1.000  H
  N35      1.0000 0.40365  0.21176  0.96953  Biso   1.000  N
  N36      1.0000 0.40357  0.21176  0.96953  Biso   1.000  N
  N37      1.0000 0.79480  0.14172  0.20118  Biso   1.000  N
  H45      1.0000 0.78718  0.20778  0.30314  Biso   1.000  H
  H46      1.0000 0.60430  0.10951  0.37898  Biso   1.000  H
  H47      1.0000 0.73883  0.12640  0.41541  Biso   1.000  H
  N38      1.0000 0.69548  0.04316  0.34217  Biso   1.000  N
  N39      1.0000 0.69552  0.04316  0.34224  Biso   1.000  N
  C53      1.0000 0.76729  0.15449  0.10066  Biso   1.000  C
  C54      1.0000 0.76732  0.15449  0.10074  Biso   1.000  C
  C55      1.0000 0.65494  0.23524  0.97502  Biso   1.000  C
  C56      1.0000 0.65486  0.23524  0.97502  Biso   1.000  C
  C57      1.0000 0.43130  0.23663  0.88689  Biso   1.000  C
  C58      1.0000 0.30987  0.17024  0.93447  Biso   1.000  C
  C59      1.0000 0.30991  0.17024  0.93455  Biso   1.000  C
  C60      1.0000 0.88752  0.09837  0.26029  Biso   1.000  C
  C61      1.0000 0.81109  0.01944  0.35591  Biso   1.000  C
  C62      1.0000 0.61669  0.99448  0.32643  Biso   1.000  C
  O15      1.0000 0.81137  0.12904  0.04728  Biso   1.000  O
  N40      1.0000 0.54639  0.21666  0.89223  Biso   1.000  N
  H48      1.0000 0.71948  0.22909  0.95303  Biso   1.000  H
  H49      1.0000 0.65113  0.28108  0.98893  Biso   1.000  H
  C63      1.0000 0.34538  0.20024  0.79180  Biso   1.000  C
  H50      1.0000 0.42062  0.28368  0.87948  Biso   1.000  H
  O16      1.0000 0.26367  0.14522  0.98656  Biso   1.000  O
  N41      1.0000 0.27831  0.16087  0.83281  Biso   1.000  N
  N42      1.0000 0.84619  0.03562  0.27320  Biso   1.000  N
  H51      1.0000 0.93084  0.11728  0.32781  Biso   1.000  H
  H52      1.0000 0.94214  0.09371  0.22653  Biso   1.000  H
  H53      1.0000 0.87161  0.03130  0.42343  Biso   1.000  H
  C64      1.0000 0.79333  0.94590  0.34408  Biso   1.000  C
  C65      1.0000 0.79325  0.94590  0.34408  Biso   1.000  C
  O17      1.0000 0.51612  0.00010  0.32154  Biso   1.000  O
  N43      1.0000 0.66731  0.93783  0.31681  Biso   1.000  N
  C66      1.0000 0.53839  0.17216  0.81891  Biso   1.000  C
  N44      1.0000 0.42347  0.16318  0.75873  Biso   1.000  N
  H54      1.0000 0.29509  0.22981  0.73811  Biso   1.000  H
  C67      1.0000 0.16487  0.13433  0.77041  Biso   1.000  C
  C68      1.0000 0.85713  0.98325  0.22050  Biso   1.000  C
  C69      1.0000 0.85705  0.98325  0.22050  Biso   1.000  C
  N45      1.0000 0.82987  0.93034  0.26312  Biso   1.000  N
  H55      1.0000 0.84051  0.92300  0.40808  Biso   1.000  H
  C70      1.0000 0.61953  0.87700  0.33109  Biso   1.000  C
  O18      1.0000 0.62178  0.14642  0.80830  Biso   1.000  O
  O19      1.0000 0.62181  0.14642  0.80837  Biso   1.000  O
  C71      1.0000 0.38047  0.12300  0.66891  Biso   1.000  C
  N46      1.0000 0.17005  0.06966  0.73688  Biso   1.000  N
  H56      1.0000 0.11550  0.13500  0.80952  Biso   1.000  H
  H57      1.0000 0.12766  0.16169  0.71030  Biso   1.000  H
  O20      1.0000 0.88658  0.98363  0.14817  Biso   1.000  O
  C72      1.0000 0.83513  0.86567  0.22959  Biso   1.000  C
  C73      1.0000 0.83505  0.86567  0.22959  Biso   1.000  C
  N47      1.0000 0.57645  0.83682  0.24127  Biso   1.000  N
  H58      1.0000 0.55510  0.88541  0.35263  Biso   1.000  H
  H59      1.0000 0.68028  0.85348  0.38639  Biso   1.000  H
  N48      1.0000 0.57649  0.83682  0.24135  Biso   1.000  N
  N49      1.0000 0.33269  0.06217  0.68319  Biso   1.000  N
  H60      1.0000 0.44490  0.11459  0.64737  Biso   1.000  H
  H61      1.0000 0.31972  0.14652  0.61361  Biso   1.000  H
  C74      1.0000 0.20667  0.05410  0.65592  Biso   1.000  C
  C75      1.0000 0.14287  0.01675  0.77950  Biso   1.000  C
  N50      1.0000 0.72169  0.83913  0.16719  Biso   1.000  N
  H62      1.0000 0.88450  0.86500  0.19048  Biso   1.000  H
  H63      1.0000 0.87226  0.83831  0.28970  Biso   1.000  H
  N51      1.0000 0.72173  0.83913  0.16726  Biso   1.000  N
  C76      1.0000 0.46161  0.82784  0.18109  Biso   1.000  C
  C77      1.0000 0.65462  0.79976  0.20820  Biso   1.000  C
  C78      1.0000 0.38331  0.00552  0.67357  Biso   1.000  C
  C79      1.0000 0.38327  0.00552  0.67364  Biso   1.000  C
  C80      1.0000 0.18891  0.98056  0.64409  Biso   1.000  C
  H64      1.0000 0.15949  0.07700  0.59192  Biso   1.000  H
  N52      1.0000 0.15381  0.96438  0.72680  Biso   1.000  N
  O21      1.0000 0.11342  0.01637  0.85183  Biso   1.000  O
  C81      1.0000 0.69013  0.82976  0.06553  Biso   1.000  C
  O22      1.0000 0.37822  0.85358  0.19170  Biso   1.000  O
  N53      1.0000 0.45361  0.78334  0.10777  Biso   1.000  N
  N54      1.0000 0.45365  0.78334  0.10784  Biso   1.000  N
  H65      1.0000 0.70491  0.77019  0.26189  Biso   1.000  H
  C82      1.0000 0.56870  0.76337  0.11311  Biso   1.000  C
  O23      1.0000 0.48388  0.99990  0.67846  Biso   1.000  O
  N55      1.0000 0.30452  0.95684  0.65783  Biso   1.000  N
  H66      1.0000 0.12839  0.96870  0.57657  Biso   1.000  H
  H67      1.0000 0.12842  0.96870  0.57665  Biso   1.000  H
  C83      1.0000 0.11248  0.90163  0.73971  Biso   1.000  C
  N56      1.0000 0.59635  0.78824  0.03047  Biso   1.000  N
  O24      1.0000 0.73625  0.85478  0.01344  Biso   1.000  O
  C84      1.0000 0.34506  0.76476  0.02498  Biso   1.000  C
  H68      1.0000 0.57938  0.71632  0.12052  Biso   1.000  H
  C85      1.0000 0.32899  0.89121  0.64126  Biso   1.000  C
  C86      1.0000 0.32902  0.89121  0.64134  Biso   1.000  C
  N57      1.0000 0.20520  0.85828  0.79882  Biso   1.000  N
  H69      1.0000 0.06916  0.88272  0.67219  Biso   1.000  H
  H70      1.0000 0.05786  0.90629  0.77347  Biso   1.000  H
  H71      1.0000 0.05790  0.90629  0.77354  Biso   1.000  H
  C87      1.0000 0.56180  0.75641  0.93233  Biso   1.000  C
  N58      1.0000 0.31950  0.80019  0.93141  Biso   1.000  N
  H72      1.0000 0.28052  0.77091  0.04697  Biso   1.000  H
  H73      1.0000 0.34887  0.71892  0.01107  Biso   1.000  H
  H74      1.0000 0.28055  0.77091  0.04705  Biso   1.000  H
  N59      1.0000 0.35538  0.85036  0.72993  Biso   1.000  N
  H75      1.0000 0.39570  0.89049  0.62102  Biso   1.000  H
  H76      1.0000 0.26117  0.87360  0.58459  Biso   1.000  H
  C88      1.0000 0.26719  0.81743  0.75529  Biso   1.000  C
  C89      1.0000 0.23271  0.84551  0.89934  Biso   1.000  C
  N60      1.0000 0.45987  0.78339  0.85298  Biso   1.000  N
  H77      1.0000 0.62732  0.75828  0.91072  Biso   1.000  H
  H78      1.0000 0.54651  0.71109  0.94081  Biso   1.000  H
  C90      1.0000 0.34136  0.77355  0.84610  Biso   1.000  C
  C91      1.0000 0.46615  0.82832  0.78576  Biso   1.000  C
  C92      1.0000 0.46619  0.82832  0.78584  Biso   1.000  C
  H79      1.0000 0.21282  0.79222  0.69686  Biso   1.000  H
  H80      1.0000 0.21277  0.79222  0.69694  Biso   1.000  H
  O25      1.0000 0.18863  0.87096  0.95272  Biso   1.000  O
  H81      1.0000 0.31734  0.72799  0.83342  Biso   1.000  H
  H82      1.0000 0.31726  0.72799  0.83342  Biso   1.000  H
  O26      1.0000 0.55541  0.84441  0.77515  Biso   1.000  O
  C93      1.0000 0.53385  0.17168  0.21424  Biso   1.000  C
  O27      1.0000 0.44459  0.15559  0.22485  Biso   1.000  O
  N61      1.0000 0.54013  0.21661  0.14702  Biso   1.000  N
  N62      1.0000 0.64462  0.14964  0.27007  Biso   1.000  N
  N63      1.0000 0.64457  0.14964  0.27014  Biso   1.000  N
  C94      1.0000 0.65856  0.22645  0.15390  Biso   1.000  C
  C95      1.0000 0.43820  0.24359  0.06767  Biso   1.000  C
  C96      1.0000 0.43824  0.24359  0.06775  Biso   1.000  C
  C97      1.0000 0.73281  0.18257  0.24471  Biso   1.000  C
  C98      1.0000 0.67101  0.10879  0.35874  Biso   1.000  C
  N64      1.0000 0.68050  0.19981  0.06859  Biso   1.000  N
  H83      1.0000 0.68266  0.27201  0.16658  Biso   1.000  H
  H84      1.0000 0.37268  0.24172  0.08928  Biso   1.000  H
  H85      1.0000 0.45349  0.28891  0.05919  Biso   1.000  H
  N65      1.0000 0.40365  0.21176  0.96953  Biso   1.000  N
  N66      1.0000 0.40357  0.21176  0.96953  Biso   1.000  N
  N67      1.0000 0.79480  0.14172  0.20118  Biso   1.000  N
  H86      1.0000 0.78718  0.20778  0.30314  Biso   1.000  H
  H87      1.0000 0.60430  0.10951  0.37898  Biso   1.000  H
  H88      1.0000 0.73883  0.12640  0.41541  Biso   1.000  H
  N68      1.0000 0.69548  0.04316  0.34217  Biso   1.000  N
  N69      1.0000 0.69552  0.04316  0.34224  Biso   1.000  N
  C99      1.0000 0.65494  0.23524  0.97502  Biso   1.000  C
  C100     1.0000 0.65486  0.23524  0.97502  Biso   1.000  C
  C101     1.0000 0.76729  0.15449  0.10066  Biso   1.000  C
  C102     1.0000 0.76732  0.15449  0.10074  Biso   1.000  C
  C103     1.0000 0.43130  0.23663  0.88689  Biso   1.000  C
  C104     1.0000 0.30987  0.17024  0.93447  Biso   1.000  C
  C105     1.0000 0.30991  0.17024  0.93455  Biso   1.000  C
  C106     1.0000 0.88752  0.09837  0.26029  Biso   1.000  C
  C107     1.0000 0.81109  0.01944  0.35591  Biso   1.000  C
  C108     1.0000 0.61669  0.99448  0.32643  Biso   1.000  C
  N70      1.0000 0.54639  0.21666  0.89223  Biso   1.000  N
  H89      1.0000 0.71948  0.22909  0.95303  Biso   1.000  H
  H90      1.0000 0.65113  0.28108  0.98893  Biso   1.000  H
  O28      1.0000 0.81137  0.12904  0.04728  Biso   1.000  O
  C109     1.0000 0.34538  0.20024  0.79180  Biso   1.000  C
  H91      1.0000 0.42062  0.28368  0.87948  Biso   1.000  H
  O29      1.0000 0.26367  0.14522  0.98656  Biso   1.000  O
  N71      1.0000 0.27831  0.16087  0.83281  Biso   1.000  N
  N72      1.0000 0.84619  0.03562  0.27320  Biso   1.000  N
  H92      1.0000 0.93084  0.11728  0.32781  Biso   1.000  H
  H93      1.0000 0.94214  0.09371  0.22653  Biso   1.000  H
  H94      1.0000 0.87161  0.03130  0.42343  Biso   1.000  H
  C110     1.0000 0.79333  0.94590  0.34408  Biso   1.000  C
  C111     1.0000 0.79325  0.94590  0.34408  Biso   1.000  C
  O30      1.0000 0.51612  0.00010  0.32154  Biso   1.000  O
  N73      1.0000 0.66731  0.93783  0.31681  Biso   1.000  N
  C112     1.0000 0.53839  0.17216  0.81891  Biso   1.000  C
  N74      1.0000 0.42347  0.16318  0.75873  Biso   1.000  N
  H95      1.0000 0.29509  0.22981  0.73811  Biso   1.000  H
  C113     1.0000 0.16487  0.13433  0.77041  Biso   1.000  C
  C114     1.0000 0.85713  0.98325  0.22050  Biso   1.000  C
  C115     1.0000 0.85705  0.98325  0.22050  Biso   1.000  C
  N75      1.0000 0.82987  0.93034  0.26312  Biso   1.000  N
  H96      1.0000 0.84051  0.92300  0.40808  Biso   1.000  H
  C116     1.0000 0.61953  0.87700  0.33109  Biso   1.000  C
  O31      1.0000 0.62178  0.14642  0.80830  Biso   1.000  O
  O32      1.0000 0.62181  0.14642  0.80837  Biso   1.000  O
  C117     1.0000 0.38047  0.12300  0.66891  Biso   1.000  C
  N76      1.0000 0.17005  0.06966  0.73688  Biso   1.000  N
  H97      1.0000 0.11550  0.13500  0.80952  Biso   1.000  H
  H98      1.0000 0.12766  0.16169  0.71030  Biso   1.000  H
  O33      1.0000 0.88658  0.98363  0.14817  Biso   1.000  O
  C118     1.0000 0.83513  0.86567  0.22959  Biso   1.000  C
  C119     1.0000 0.83505  0.86567  0.22959  Biso   1.000  C
  N77      1.0000 0.57645  0.83682  0.24127  Biso   1.000  N
  H99      1.0000 0.55510  0.88541  0.35263  Biso   1.000  H
  H100     1.0000 0.68028  0.85348  0.38639  Biso   1.000  H
  N78      1.0000 0.57649  0.83682  0.24135  Biso   1.000  N
  N79      1.0000 0.33269  0.06217  0.68319  Biso   1.000  N
  H101     1.0000 0.44490  0.11459  0.64737  Biso   1.000  H
  H102     1.0000 0.31972  0.14652  0.61361  Biso   1.000  H
  C120     1.0000 0.20667  0.05410  0.65592  Biso   1.000  C
  C121     1.0000 0.14287  0.01675  0.77950  Biso   1.000  C
  N80      1.0000 0.72169  0.83913  0.16719  Biso   1.000  N
  H103     1.0000 0.88450  0.86500  0.19048  Biso   1.000  H
  H104     1.0000 0.87226  0.83831  0.28970  Biso   1.000  H
  N81      1.0000 0.72173  0.83913  0.16726  Biso   1.000  N
  C122     1.0000 0.46161  0.82784  0.18109  Biso   1.000  C
  C123     1.0000 0.65462  0.79976  0.20820  Biso   1.000  C
  C124     1.0000 0.38331  0.00552  0.67357  Biso   1.000  C
  C125     1.0000 0.38327  0.00552  0.67364  Biso   1.000  C
  C126     1.0000 0.18891  0.98056  0.64409  Biso   1.000  C
  H105     1.0000 0.15949  0.07700  0.59192  Biso   1.000  H
  N82      1.0000 0.15381  0.96438  0.72680  Biso   1.000  N
  O34      1.0000 0.11342  0.01637  0.85183  Biso   1.000  O
  C127     1.0000 0.69013  0.82976  0.06553  Biso   1.000  C
  O35      1.0000 0.37822  0.85358  0.19170  Biso   1.000  O
  N83      1.0000 0.45361  0.78334  0.10777  Biso   1.000  N
  N84      1.0000 0.45365  0.78334  0.10784  Biso   1.000  N
  H106     1.0000 0.70491  0.77019  0.26189  Biso   1.000  H
  C128     1.0000 0.56870  0.76337  0.11311  Biso   1.000  C
  O36      1.0000 0.48388  0.99990  0.67846  Biso   1.000  O
  N85      1.0000 0.30452  0.95684  0.65783  Biso   1.000  N
  H107     1.0000 0.12839  0.96870  0.57657  Biso   1.000  H
  H108     1.0000 0.12842  0.96870  0.57665  Biso   1.000  H
  C129     1.0000 0.11248  0.90163  0.73971  Biso   1.000  C
  N86      1.0000 0.59635  0.78824  0.03047  Biso   1.000  N
  O37      1.0000 0.73625  0.85478  0.01344  Biso   1.000  O
  C130     1.0000 0.34506  0.76476  0.02498  Biso   1.000  C
  H109     1.0000 0.57938  0.71632  0.12052  Biso   1.000  H
  C131     1.0000 0.32899  0.89121  0.64126  Biso   1.000  C
  C132     1.0000 0.32902  0.89121  0.64134  Biso   1.000  C
  N87      1.0000 0.20520  0.85828  0.79882  Biso   1.000  N
  H110     1.0000 0.06916  0.88272  0.67219  Biso   1.000  H
  H111     1.0000 0.05786  0.90629  0.77347  Biso   1.000  H
  H112     1.0000 0.05790  0.90629  0.77354  Biso   1.000  H
  C133     1.0000 0.56180  0.75641  0.93233  Biso   1.000  C
  N88      1.0000 0.31950  0.80019  0.93141  Biso   1.000  N
  H113     1.0000 0.28052  0.77091  0.04697  Biso   1.000  H
  H114     1.0000 0.34887  0.71892  0.01107  Biso   1.000  H
  H115     1.0000 0.28055  0.77091  0.04705  Biso   1.000  H
  N89      1.0000 0.35538  0.85036  0.72993  Biso   1.000  N
  H116     1.0000 0.39570  0.89049  0.62102  Biso   1.000  H
  H117     1.0000 0.26117  0.87360  0.58459  Biso   1.000  H
  C134     1.0000 0.26719  0.81743  0.75529  Biso   1.000  C
  C135     1.0000 0.23271  0.84551  0.89934  Biso   1.000  C
  N90      1.0000 0.45987  0.78339  0.85298  Biso   1.000  N
  H118     1.0000 0.62732  0.75828  0.91072  Biso   1.000  H
  H119     1.0000 0.54651  0.71109  0.94081  Biso   1.000  H
  C136     1.0000 0.34136  0.77355  0.84610  Biso   1.000  C
  C137     1.0000 0.46615  0.82832  0.78576  Biso   1.000  C
  C138     1.0000 0.46619  0.82832  0.78584  Biso   1.000  C
  H120     1.0000 0.21282  0.79222  0.69686  Biso   1.000  H
  H121     1.0000 0.21277  0.79222  0.69694  Biso   1.000  H
  O38      1.0000 0.18863  0.87096  0.95272  Biso   1.000  O
  H122     1.0000 0.31734  0.72799  0.83342  Biso   1.000  H
  H123     1.0000 0.31726  0.72799  0.83342  Biso   1.000  H
  O39      1.0000 0.55541  0.84441  0.77515  Biso   1.000  O
  C139     1.0000 0.53385  0.17168  0.21424  Biso   1.000  C
  O40      1.0000 0.44459  0.15559  0.22485  Biso   1.000  O
  N91      1.0000 0.54013  0.21661  0.14702  Biso   1.000  N
  N92      1.0000 0.64462  0.14964  0.27007  Biso   1.000  N
  N93      1.0000 0.64457  0.14964  0.27014  Biso   1.000  N
  C140     1.0000 0.65856  0.22645  0.15390  Biso   1.000  C
  C141     1.0000 0.43820  0.24359  0.06767  Biso   1.000  C
  C142     1.0000 0.43824  0.24359  0.06775  Biso   1.000  C
  C143     1.0000 0.73281  0.18257  0.24471  Biso   1.000  C
  C144     1.0000 0.67101  0.10879  0.35874  Biso   1.000  C
  N94      1.0000 0.68050  0.19981  0.06859  Biso   1.000  N
  H124     1.0000 0.68266  0.27201  0.16658  Biso   1.000  H
  H125     1.0000 0.37268  0.24172  0.08928  Biso   1.000  H
  H126     1.0000 0.45349  0.28891  0.05919  Biso   1.000  H
  N95      1.0000 0.40365  0.21176  0.96953  Biso   1.000  N
  N96      1.0000 0.40357  0.21176  0.96953  Biso   1.000  N
  N97      1.0000 0.79480  0.14172  0.20118  Biso   1.000  N
  H127     1.0000 0.78718  0.20778  0.30314  Biso   1.000  H
  H128     1.0000 0.60430  0.10951  0.37898  Biso   1.000  H
  H129     1.0000 0.73883  0.12640  0.41541  Biso   1.000  H
  N98      1.0000 0.69548  0.04316  0.34217  Biso   1.000  N
  N99      1.0000 0.69552  0.04316  0.34224  Biso   1.000  N
  C145     1.0000 0.65494  0.23524  0.97502  Biso   1.000  C
  C146     1.0000 0.65486  0.23524  0.97502  Biso   1.000  C
  C147     1.0000 0.76729  0.15449  0.10066  Biso   1.000  C
  C148     1.0000 0.76732  0.15449  0.10074  Biso   1.000  C
  C149     1.0000 0.43130  0.23663  0.88689  Biso   1.000  C
  C150     1.0000 0.30987  0.17024  0.93447  Biso   1.000  C
  C151     1.0000 0.30991  0.17024  0.93455  Biso   1.000  C
  C152     1.0000 0.88752  0.09837  0.26029  Biso   1.000  C
  C153     1.0000 0.81109  0.01944  0.35591  Biso   1.000  C
  C154     1.0000 0.61669  0.99448  0.32643  Biso   1.000  C
  N100     1.0000 0.54639  0.21666  0.89223  Biso   1.000  N
  H130     1.0000 0.71948  0.22909  0.95303  Biso   1.000  H
  H131     1.0000 0.65113  0.28108  0.98893  Biso   1.000  H
  O41      1.0000 0.81137  0.12904  0.04728  Biso   1.000  O
  C155     1.0000 0.34538  0.20024  0.79180  Biso   1.000  C
  H132     1.0000 0.42062  0.28368  0.87948  Biso   1.000  H
  O42      1.0000 0.26367  0.14522  0.98656  Biso   1.000  O
  N101     1.0000 0.27831  0.16087  0.83281  Biso   1.000  N
  N102     1.0000 0.84619  0.03562  0.27320  Biso   1.000  N
  H133     1.0000 0.93084  0.11728  0.32781  Biso   1.000  H
  H134     1.0000 0.94214  0.09371  0.22653  Biso   1.000  H
  H135     1.0000 0.87161  0.03130  0.42343  Biso   1.000  H
  C156     1.0000 0.79333  0.94590  0.34408  Biso   1.000  C
  C157     1.0000 0.79325  0.94590  0.34408  Biso   1.000  C
  O43      1.0000 0.51612  0.00010  0.32154  Biso   1.000  O
  N103     1.0000 0.66731  0.93783  0.31681  Biso   1.000  N
  C158     1.0000 0.53839  0.17216  0.81891  Biso   1.000  C
  N104     1.0000 0.42347  0.16318  0.75873  Biso   1.000  N
  H136     1.0000 0.29509  0.22981  0.73811  Biso   1.000  H
  C159     1.0000 0.16487  0.13433  0.77041  Biso   1.000  C
  C160     1.0000 0.85713  0.98325  0.22050  Biso   1.000  C
  C161     1.0000 0.85705  0.98325  0.22050  Biso   1.000  C
  N105     1.0000 0.82987  0.93034  0.26312  Biso   1.000  N
  H137     1.0000 0.84051  0.92300  0.40808  Biso   1.000  H
  C162     1.0000 0.61953  0.87700  0.33109  Biso   1.000  C
  O44      1.0000 0.62178  0.14642  0.80830  Biso   1.000  O
  O45      1.0000 0.62181  0.14642  0.80837  Biso   1.000  O
  C163     1.0000 0.38047  0.12300  0.66891  Biso   1.000  C
  N106     1.0000 0.17005  0.06966  0.73688  Biso   1.000  N
  H138     1.0000 0.11550  0.13500  0.80952  Biso   1.000  H
  H139     1.0000 0.12766  0.16169  0.71030  Biso   1.000  H
  O46      1.0000 0.88658  0.98363  0.14817  Biso   1.000  O
  C164     1.0000 0.83513  0.86567  0.22959  Biso   1.000  C
  C165     1.0000 0.83505  0.86567  0.22959  Biso   1.000  C
  N107     1.0000 0.57645  0.83682  0.24127  Biso   1.000  N
  H140     1.0000 0.55510  0.88541  0.35263  Biso   1.000  H
  H141     1.0000 0.68028  0.85348  0.38639  Biso   1.000  H
  N108     1.0000 0.57649  0.83682  0.24135  Biso   1.000  N
  N109     1.0000 0.33269  0.06217  0.68319  Biso   1.000  N
  H142     1.0000 0.44490  0.11459  0.64737  Biso   1.000  H
  H143     1.0000 0.31972  0.14652  0.61361  Biso   1.000  H
  C166     1.0000 0.20667  0.05410  0.65592  Biso   1.000  C
  C167     1.0000 0.14287  0.01675  0.77950  Biso   1.000  C
  N110     1.0000 0.72169  0.83913  0.16719  Biso   1.000  N
  H144     1.0000 0.88450  0.86500  0.19048  Biso   1.000  H
  H145     1.0000 0.87226  0.83831  0.28970  Biso   1.000  H
  N111     1.0000 0.72173  0.83913  0.16726  Biso   1.000  N
  C168     1.0000 0.46161  0.82784  0.18109  Biso   1.000  C
  C169     1.0000 0.65462  0.79976  0.20820  Biso   1.000  C
  C170     1.0000 0.38331  0.00552  0.67357  Biso   1.000  C
  C171     1.0000 0.38327  0.00552  0.67364  Biso   1.000  C
  C172     1.0000 0.18891  0.98056  0.64409  Biso   1.000  C
  H146     1.0000 0.15949  0.07700  0.59192  Biso   1.000  H
  N112     1.0000 0.15381  0.96438  0.72680  Biso   1.000  N
  O47      1.0000 0.11342  0.01637  0.85183  Biso   1.000  O
  C173     1.0000 0.69013  0.82976  0.06553  Biso   1.000  C
  O48      1.0000 0.37822  0.85358  0.19170  Biso   1.000  O
  N113     1.0000 0.45361  0.78334  0.10777  Biso   1.000  N
  N114     1.0000 0.45365  0.78334  0.10784  Biso   1.000  N
  H147     1.0000 0.70491  0.77019  0.26189  Biso   1.000  H
  C174     1.0000 0.56870  0.76337  0.11311  Biso   1.000  C
  O49      1.0000 0.48388  0.99990  0.67846  Biso   1.000  O
  N115     1.0000 0.30452  0.95684  0.65783  Biso   1.000  N
  H148     1.0000 0.12839  0.96870  0.57657  Biso   1.000  H
  H149     1.0000 0.12842  0.96870  0.57665  Biso   1.000  H
  C175     1.0000 0.11248  0.90163  0.73971  Biso   1.000  C
  N116     1.0000 0.59635  0.78824  0.03047  Biso   1.000  N
  O50      1.0000 0.73625  0.85478  0.01344  Biso   1.000  O
  C176     1.0000 0.34506  0.76476  0.02498  Biso   1.000  C
  H150     1.0000 0.57938  0.71632  0.12052  Biso   1.000  H
  C177     1.0000 0.32899  0.89121  0.64126  Biso   1.000  C
  C178     1.0000 0.32902  0.89121  0.64134  Biso   1.000  C
  N117     1.0000 0.20520  0.85828  0.79882  Biso   1.000  N
  H151     1.0000 0.06916  0.88272  0.67219  Biso   1.000  H
  H152     1.0000 0.05786  0.90629  0.77347  Biso   1.000  H
  H153     1.0000 0.05790  0.90629  0.77354  Biso   1.000  H
  C179     1.0000 0.56180  0.75641  0.93233  Biso   1.000  C
  N118     1.0000 0.31950  0.80019  0.93141  Biso   1.000  N
  H154     1.0000 0.28052  0.77091  0.04697  Biso   1.000  H
  H155     1.0000 0.34887  0.71892  0.01107  Biso   1.000  H
  H156     1.0000 0.28055  0.77091  0.04705  Biso   1.000  H
  N119     1.0000 0.35538  0.85036  0.72993  Biso   1.000  N
  H157     1.0000 0.39570  0.89049  0.62102  Biso   1.000  H
  H158     1.0000 0.26117  0.87360  0.58459  Biso   1.000  H
  C180     1.0000 0.26719  0.81743  0.75529  Biso   1.000  C
  C181     1.0000 0.23271  0.84551  0.89934  Biso   1.000  C
  N120     1.0000 0.45987  0.78339  0.85298  Biso   1.000  N
  H159     1.0000 0.62732  0.75828  0.91072  Biso   1.000  H
  H160     1.0000 0.54651  0.71109  0.94081  Biso   1.000  H
  C182     1.0000 0.34136  0.77355  0.84610  Biso   1.000  C
  C183     1.0000 0.46615  0.82832  0.78576  Biso   1.000  C
  C184     1.0000 0.46619  0.82832  0.78584  Biso   1.000  C
  H161     1.0000 0.21282  0.79222  0.69686  Biso   1.000  H
  H162     1.0000 0.21277  0.79222  0.69694  Biso   1.000  H
  O51      1.0000 0.18863  0.87096  0.95272  Biso   1.000  O
  H163     1.0000 0.31734  0.72799  0.83342  Biso   1.000  H
  H164     1.0000 0.31726  0.72799  0.83342  Biso   1.000  H
  O52      1.0000 0.55541  0.84441  0.77515  Biso   1.000  O
  C185     1.0000 0.53839  0.32784  0.31887  Biso   1.000  C
  N121     1.0000 0.42346  0.33682  0.25869  Biso   1.000  N
  N122     1.0000 0.54638  0.28334  0.39219  Biso   1.000  N
  O53      1.0000 0.62181  0.35358  0.30833  Biso   1.000  O
  C186     1.0000 0.34541  0.29976  0.29183  Biso   1.000  C
  C187     1.0000 0.38047  0.37700  0.16887  Biso   1.000  C
  C188     1.0000 0.43133  0.26337  0.38692  Biso   1.000  C
  C189     1.0000 0.65493  0.26476  0.47499  Biso   1.000  C
  N123     1.0000 0.27830  0.33913  0.33277  Biso   1.000  N
  H165     1.0000 0.29508  0.27019  0.23807  Biso   1.000  H
  N124     1.0000 0.33272  0.43783  0.18323  Biso   1.000  N
  H166     1.0000 0.44493  0.38541  0.14741  Biso   1.000  H
  H167     1.0000 0.31971  0.35348  0.11357  Biso   1.000  H
  N125     1.0000 0.40356  0.28824  0.46949  Biso   1.000  N
  H168     1.0000 0.42064  0.21632  0.37951  Biso   1.000  H
  N126     1.0000 0.68053  0.30019  0.56862  Biso   1.000  N
  H169     1.0000 0.71948  0.27091  0.45299  Biso   1.000  H
  H170     1.0000 0.65112  0.21892  0.48889  Biso   1.000  H
  C190     1.0000 0.16486  0.36567  0.27037  Biso   1.000  C
  C191     1.0000 0.30990  0.32976  0.43451  Biso   1.000  C
  C192     1.0000 0.38326  0.49448  0.17360  Biso   1.000  C
  C193     1.0000 0.20667  0.44590  0.15588  Biso   1.000  C
  C194     1.0000 0.43823  0.25641  0.56771  Biso   1.000  C
  C195     1.0000 0.65859  0.27355  0.65394  Biso   1.000  C
  C196     1.0000 0.76732  0.34551  0.60070  Biso   1.000  C
  N127     1.0000 0.17008  0.43034  0.23692  Biso   1.000  N
  H171     1.0000 0.11549  0.36500  0.30948  Biso   1.000  H
  H172     1.0000 0.12765  0.33831  0.21026  Biso   1.000  H
  O54      1.0000 0.26367  0.35478  0.48652  Biso   1.000  O
  O55      1.0000 0.48387  0.50010  0.17842  Biso   1.000  O
  N128     1.0000 0.30451  0.54316  0.15779  Biso   1.000  N
  C197     1.0000 0.18894  0.51944  0.14412  Biso   1.000  C
  H173     1.0000 0.15948  0.42300  0.09188  Biso   1.000  H
  N129     1.0000 0.54012  0.28339  0.64699  Biso   1.000  N
  H174     1.0000 0.37271  0.25828  0.58932  Biso   1.000  H
  H175     1.0000 0.45352  0.21109  0.55923  Biso   1.000  H
  H176     1.0000 0.68269  0.22799  0.66661  Biso   1.000  H
  C198     1.0000 0.73280  0.31743  0.74467  Biso   1.000  C
  O56      1.0000 0.81140  0.37096  0.54731  Biso   1.000  O
  N130     1.0000 0.79483  0.35828  0.70121  Biso   1.000  N
  C199     1.0000 0.14289  0.48325  0.27954  Biso   1.000  C
  C200     1.0000 0.32902  0.60879  0.14130  Biso   1.000  C
  N131     1.0000 0.15384  0.53562  0.22684  Biso   1.000  N
  H177     1.0000 0.12842  0.53130  0.07661  Biso   1.000  H
  C201     1.0000 0.53384  0.32832  0.71420  Biso   1.000  C
  N132     1.0000 0.64465  0.35036  0.77010  Biso   1.000  N
  H178     1.0000 0.78718  0.29222  0.80310  Biso   1.000  H
  C202     1.0000 0.88755  0.40163  0.76033  Biso   1.000  C
  O57      1.0000 0.11341  0.48363  0.35179  Biso   1.000  O
  N133     1.0000 0.35537  0.64964  0.22989  Biso   1.000  N
  H179     1.0000 0.39569  0.60951  0.12098  Biso   1.000  H
  H180     1.0000 0.26120  0.62640  0.08463  Biso   1.000  H
  C203     1.0000 0.11247  0.59837  0.23967  Biso   1.000  C
  O58      1.0000 0.44462  0.34441  0.72489  Biso   1.000  O
  C204     1.0000 0.67101  0.39121  0.85870  Biso   1.000  C
  N134     1.0000 0.84622  0.46438  0.77324  Biso   1.000  N
  H181     1.0000 0.93083  0.38272  0.82777  Biso   1.000  H
  H182     1.0000 0.94213  0.40629  0.72649  Biso   1.000  H
  C205     1.0000 0.46618  0.67168  0.28580  Biso   1.000  C
  C206     1.0000 0.26722  0.68257  0.25533  Biso   1.000  C
  N135     1.0000 0.20520  0.64172  0.29878  Biso   1.000  N
  H183     1.0000 0.06919  0.61728  0.17223  Biso   1.000  H
  H184     1.0000 0.05789  0.59371  0.27350  Biso   1.000  H
  N136     1.0000 0.69551  0.45684  0.84220  Biso   1.000  N
  H185     1.0000 0.60433  0.39049  0.87902  Biso   1.000  H
  H186     1.0000 0.73882  0.37360  0.91537  Biso   1.000  H
  C207     1.0000 0.81109  0.48056  0.85587  Biso   1.000  C
  C208     1.0000 0.85708  0.51675  0.72054  Biso   1.000  C
  O59      1.0000 0.55540  0.65559  0.27511  Biso   1.000  O
  N137     1.0000 0.45990  0.71661  0.35301  Biso   1.000  N
  C209     1.0000 0.34139  0.72645  0.34614  Biso   1.000  C
  H187     1.0000 0.21276  0.70778  0.19690  Biso   1.000  H
  C210     1.0000 0.23271  0.65449  0.39930  Biso   1.000  C
  C211     1.0000 0.61668  0.50552  0.82639  Biso   1.000  C
  H188     1.0000 0.87161  0.46870  0.92339  Biso   1.000  H
  C212     1.0000 0.79328  0.55410  0.84411  Biso   1.000  C
  O60      1.0000 0.88661  0.51637  0.64821  Biso   1.000  O
  N138     1.0000 0.82986  0.56966  0.76308  Biso   1.000  N
  C213     1.0000 0.56179  0.74359  0.43229  Biso   1.000  C
  N139     1.0000 0.31953  0.69981  0.43145  Biso   1.000  N
  H189     1.0000 0.31734  0.77201  0.33338  Biso   1.000  H
  O61      1.0000 0.18862  0.62904  0.45268  Biso   1.000  O
  O62      1.0000 0.51615  0.49990  0.82158  Biso   1.000  O
  N140     1.0000 0.66731  0.56217  0.81677  Biso   1.000  N
  H190     1.0000 0.84054  0.57700  0.90812  Biso   1.000  H
  C214     1.0000 0.83508  0.63433  0.72962  Biso   1.000  C
  N141     1.0000 0.59638  0.71176  0.53051  Biso   1.000  N
  H191     1.0000 0.62731  0.74172  0.41068  Biso   1.000  H
  H192     1.0000 0.54651  0.78891  0.44077  Biso   1.000  H
  C215     1.0000 0.34509  0.73524  0.52501  Biso   1.000  C
  C216     1.0000 0.61956  0.62300  0.83113  Biso   1.000  C
  N142     1.0000 0.72172  0.66087  0.66722  Biso   1.000  N
  H193     1.0000 0.88453  0.63500  0.69052  Biso   1.000  H
  H194     1.0000 0.87229  0.66169  0.78973  Biso   1.000  H
  C217     1.0000 0.56869  0.73663  0.61307  Biso   1.000  C
  C218     1.0000 0.69012  0.67024  0.56549  Biso   1.000  C
  N143     1.0000 0.45364  0.71666  0.60780  Biso   1.000  N
  H195     1.0000 0.28054  0.72909  0.54701  Biso   1.000  H
  H196     1.0000 0.34890  0.78108  0.51111  Biso   1.000  H
  N144     1.0000 0.57648  0.66318  0.74131  Biso   1.000  N
  H197     1.0000 0.55509  0.61459  0.85259  Biso   1.000  H
  H198     1.0000 0.68031  0.64652  0.88643  Biso   1.000  H
  C219     1.0000 0.65465  0.70024  0.70824  Biso   1.000  C
  H199     1.0000 0.57938  0.78368  0.62048  Biso   1.000  H
  O63      1.0000 0.73628  0.64522  0.51348  Biso   1.000  O
  C220     1.0000 0.46164  0.67216  0.68113  Biso   1.000  C
  H200     1.0000 0.70494  0.72981  0.76193  Biso   1.000  H
  O64      1.0000 0.37822  0.64642  0.69167  Biso   1.000  O
