data_image0
_cell_length_a       14.119
_cell_length_b       15.151
_cell_length_c       24.87
_cell_angle_alpha    90
_cell_angle_beta     121.05
_cell_angle_gamma    90

_symmetry_space_group_name_H-M    "P 1"
_symmetry_int_tables_number       1

loop_
  _symmetry_equiv_pos_as_xyz
  'x, y, z'

loop_
  _atom_site_label
  _atom_site_occupancy
  _atom_site_fract_x
  _atom_site_fract_y
  _atom_site_fract_z
  _atom_site_thermal_displace_type
  _atom_site_B_iso_or_equiv
  _atom_site_type_symbol
  N1       1.0000 0.58854  0.57112  0.56851  Biso   1.000  N
  C1       1.0000 0.64037  0.50083  0.60451  Biso   1.000  C
  N2       1.0000 0.48744  0.58392  0.55912  Biso   1.000  N
  H1       1.0000 0.61753  0.60478  0.55302  Biso   1.000  H
  C2       1.0000 0.75158  0.47482  0.61793  Biso   1.000  C
  C3       1.0000 0.56907  0.46690  0.62051  Biso   1.000  C
  C4       1.0000 0.47577  0.51898  0.59141  Biso   1.000  C
  N3       1.0000 0.81051  0.42070  0.67632  Biso   1.000  N
  H2       1.0000 0.74448  0.44109  0.58283  Biso   1.000  H
  H3       1.0000 0.79445  0.52729  0.62263  Biso   1.000  H
  H4       1.0000 0.58082  0.41819  0.64600  Biso   1.000  H
  C5       1.0000 0.37335  0.51693  0.59390  Biso   1.000  C
  C6       1.0000 0.92651  0.40242  0.69462  Biso   1.000  C
  H5       1.0000 0.77156  0.36519  0.66970  Biso   1.000  H
  H6       1.0000 0.80977  0.45172  0.71020  Biso   1.000  H
  N4       1.0000 0.32093  0.42829  0.58259  Biso   1.000  N
  H7       1.0000 0.39028  0.53759  0.63483  Biso   1.000  H
  H8       1.0000 0.32039  0.55759  0.56274  Biso   1.000  H
  C7       1.0000 0.98727  0.34407  0.75183  Biso   1.000  C
  H9       1.0000 0.92694  0.37423  0.65970  Biso   1.000  H
  H10      1.0000 0.96577  0.45792  0.70284  Biso   1.000  H
  C8       1.0000 0.21024  0.43667  0.57550  Biso   1.000  C
  H11      1.0000 0.36705  0.38961  0.61760  Biso   1.000  H
  H12      1.0000 0.31353  0.40268  0.54490  Biso   1.000  H
  N5       1.0000 0.94649  0.25259  0.74461  Biso   1.000  N
  H13      1.0000 0.98353  0.37153  0.78600  Biso   1.000  H
  H14      1.0000 0.06459  0.34222  0.76413  Biso   1.000  H
  C9       1.0000 0.14897  0.35080  0.56030  Biso   1.000  C
  H15      1.0000 0.21898  0.45990  0.61413  Biso   1.000  H
  H16      1.0000 0.16663  0.47878  0.54232  Biso   1.000  H
  C10      1.0000 0.95364  0.20811  0.69401  Biso   1.000  C
  C11      1.0000 0.01490  0.20500  0.80431  Biso   1.000  C
  N6       1.0000 0.20066  0.28427  0.61103  Biso   1.000  N
  H17      1.0000 0.14351  0.32651  0.52280  Biso   1.000  H
  H18      1.0000 0.07446  0.36209  0.55110  Biso   1.000  H
  C12      1.0000 0.90537  0.11623  0.67674  Biso   1.000  C
  H19      1.0000 0.91907  0.24223  0.65923  Biso   1.000  H
  H20      1.0000 0.02608  0.20500  0.70560  Biso   1.000  H
  C13      1.0000 0.99922  0.23378  0.85683  Biso   1.000  C
  H21      1.0000 0.99816  0.14250  0.79703  Biso   1.000  H
  H22      1.0000 0.09214  0.21259  0.81745  Biso   1.000  H
  C14      1.0000 0.14609  0.19820  0.58644  Biso   1.000  C
  C15      1.0000 0.18783  0.31087  0.66365  Biso   1.000  C
  N7       1.0000 0.78665  0.11227  0.65731  Biso   1.000  N
  H23      1.0000 0.94707  0.07762  0.71250  Biso   1.000  H
  H24      1.0000 0.91347  0.09438  0.64262  Biso   1.000  H
  N8       1.0000 0.88147  0.22989  0.83885  Biso   1.000  N
  H25      1.0000 0.02599  0.29378  0.86875  Biso   1.000  H
  H26      1.0000 0.04258  0.19622  0.89301  Biso   1.000  H
  C16      1.0000 0.17553  0.15458  0.54260  Biso   1.000  C
  H27      1.0000 0.16604  0.15887  0.62150  Biso   1.000  H
  H28      1.0000 0.06668  0.20659  0.56452  Biso   1.000  H
  H29      1.0000 0.20390  0.37337  0.67144  Biso   1.000  H
  H30      1.0000 0.11150  0.30209  0.65182  Biso   1.000  H
  C17      1.0000 0.26163  0.26077  0.72391  Biso   1.000  C
  C18      1.0000 0.72109  0.05260  0.60254  Biso   1.000  C
  H31      1.0000 0.78079  0.09181  0.69242  Biso   1.000  H
  H32      1.0000 0.75559  0.17121  0.64651  Biso   1.000  H
  H33      1.0000 0.84229  0.27932  0.81163  Biso   1.000  H
  H34      1.0000 0.84891  0.17609  0.81534  Biso   1.000  H
  C19      1.0000 0.86650  0.23213  0.89433  Biso   1.000  C
  N9       1.0000 0.29405  0.12969  0.57405  Biso   1.000  N
  H35      1.0000 0.15815  0.19457  0.50820  Biso   1.000  H
  H36      1.0000 0.13064  0.10211  0.52500  Biso   1.000  H
  N10      1.0000 0.38098  0.27437  0.74761  Biso   1.000  N
  H37      1.0000 0.24497  0.19827  0.71663  Biso   1.000  H
  H38      1.0000 0.24577  0.27978  0.75564  Biso   1.000  H
  C20      1.0000 0.60586  0.03921  0.58921  Biso   1.000  C
  H39      1.0000 0.71799  0.07762  0.56583  Biso   1.000  H
  H40      1.0000 0.75798  0.99591  0.61094  Biso   1.000  H
  C21      1.0000 0.75072  0.24718  0.87494  Biso   1.000  C
  H41      1.0000 0.91190  0.27879  0.92263  Biso   1.000  H
  H42      1.0000 0.89108  0.17649  0.91671  Biso   1.000  H
  C22      1.0000 0.31393  0.07201  0.53232  Biso   1.000  C
  H43      1.0000 0.33900  0.18263  0.58423  Biso   1.000  H
  H44      1.0000 0.31553  0.09881  0.61282  Biso   1.000  H
  H45      1.0000 0.39808  0.25193  0.71701  Biso   1.000  H
  H46      1.0000 0.39707  0.33707  0.75254  Biso   1.000  H
  C23      1.0000 0.45239  0.22923  0.80891  Biso   1.000  C
  C24      1.0000 0.51397  0.09201  0.55682  Biso   1.000  C
  N11      1.0000 0.58381  0.96621  0.61094  Biso   1.000  N
  C25      1.0000 0.65488  0.20348  0.83603  Biso   1.000  C
  N12      1.0000 0.72261  0.31707  0.89709  Biso   1.000  N
  C26      1.0000 0.43156  0.04851  0.55912  Biso   1.000  C
  H47      1.0000 0.28763  0.10197  0.49262  Biso   1.000  H
  H48      1.0000 0.27124  0.01828  0.52392  Biso   1.000  H
  C27      1.0000 0.57141  0.24988  0.83833  Biso   1.000  C
  H49      1.0000 0.44241  0.16600  0.80252  Biso   1.000  H
  H50      1.0000 0.42819  0.24612  0.83754  Biso   1.000  H
  H51      1.0000 0.50905  0.14573  0.53753  Biso   1.000  H
  N13      1.0000 0.47608  0.97307  0.59184  Biso   1.000  N
  H52      1.0000 0.64671  0.15313  0.81261  Biso   1.000  H
  N14      1.0000 0.61335  0.31991  0.87607  Biso   1.000  N
  H53      1.0000 0.76507  0.34902  0.92901  Biso   1.000  H
  H54      1.0000 0.44706  0.92799  0.60502  Biso   1.000  H
  N15      1.0000 0.41152  0.42888  0.43151  Biso   1.000  N
  C28      1.0000 0.35976  0.49917  0.39551  Biso   1.000  C
  H55      1.0000 0.38253  0.39522  0.44700  Biso   1.000  H
  N16      1.0000 0.51262  0.41608  0.44090  Biso   1.000  N
  C29      1.0000 0.24855  0.52518  0.38209  Biso   1.000  C
  C30      1.0000 0.43106  0.53310  0.37951  Biso   1.000  C
  C31      1.0000 0.52436  0.48102  0.40861  Biso   1.000  C
  N17      1.0000 0.18967  0.57930  0.32375  Biso   1.000  N
  H56      1.0000 0.25566  0.55891  0.41720  Biso   1.000  H
  H57      1.0000 0.20561  0.47271  0.37740  Biso   1.000  H
  H58      1.0000 0.41924  0.58181  0.35402  Biso   1.000  H
  C32      1.0000 0.62678  0.48307  0.40612  Biso   1.000  C
  H59      1.0000 0.22857  0.63481  0.33032  Biso   1.000  H
  H60      1.0000 0.19036  0.54828  0.28982  Biso   1.000  H
  C33      1.0000 0.07363  0.59758  0.30540  Biso   1.000  C
  N18      1.0000 0.67913  0.57171  0.41743  Biso   1.000  N
  H61      1.0000 0.60986  0.46241  0.36519  Biso   1.000  H
  H62      1.0000 0.67979  0.44241  0.43733  Biso   1.000  H
  C34      1.0000 0.01279  0.65593  0.24819  Biso   1.000  C
  H63      1.0000 0.07313  0.62577  0.34032  Biso   1.000  H
  H64      1.0000 0.03434  0.54208  0.29723  Biso   1.000  H
  H65      1.0000 0.63301  0.61039  0.38242  Biso   1.000  H
  H66      1.0000 0.68653  0.59732  0.45512  Biso   1.000  H
  C35      1.0000 0.78982  0.56333  0.42452  Biso   1.000  C
  N19      1.0000 0.05364  0.74741  0.25541  Biso   1.000  N
  H67      1.0000 0.01653  0.62847  0.21402  Biso   1.000  H
  H68      1.0000 0.93554  0.65778  0.23589  Biso   1.000  H
  C36      1.0000 0.85116  0.64920  0.43972  Biso   1.000  C
  H69      1.0000 0.78115  0.54010  0.38589  Biso   1.000  H
  H70      1.0000 0.83343  0.52122  0.45770  Biso   1.000  H
  C37      1.0000 0.04642  0.79189  0.30601  Biso   1.000  C
  C38      1.0000 0.98524  0.79500  0.19571  Biso   1.000  C
  N20      1.0000 0.79945  0.71573  0.38904  Biso   1.000  N
  H71      1.0000 0.85655  0.67349  0.47722  Biso   1.000  H
  H72      1.0000 0.92567  0.63791  0.44892  Biso   1.000  H
  H73      1.0000 0.08103  0.75777  0.34083  Biso   1.000  H
  C39      1.0000 0.09473  0.88377  0.32333  Biso   1.000  C
  H74      1.0000 0.97405  0.79500  0.29442  Biso   1.000  H
  C40      1.0000 0.00091  0.76622  0.14320  Biso   1.000  C
  H75      1.0000 0.00190  0.85750  0.20299  Biso   1.000  H
  H76      1.0000 0.90804  0.78741  0.18262  Biso   1.000  H
  C41      1.0000 0.81223  0.68913  0.33638  Biso   1.000  C
  C42      1.0000 0.85409  0.80180  0.41363  Biso   1.000  C
  N21      1.0000 0.21341  0.88773  0.34271  Biso   1.000  N
  H77      1.0000 0.05306  0.92238  0.28752  Biso   1.000  H
  H78      1.0000 0.08666  0.90562  0.35740  Biso   1.000  H
  N22      1.0000 0.11859  0.77011  0.16117  Biso   1.000  N
  H79      1.0000 0.97412  0.70622  0.13132  Biso   1.000  H
  H80      1.0000 0.95755  0.80378  0.10701  Biso   1.000  H
  H81      1.0000 0.79627  0.62663  0.32863  Biso   1.000  H
  H82      1.0000 0.88863  0.69791  0.34820  Biso   1.000  H
  C43      1.0000 0.73843  0.73923  0.27611  Biso   1.000  C
  H83      1.0000 0.83402  0.84113  0.37852  Biso   1.000  H
  H84      1.0000 0.93345  0.79341  0.43550  Biso   1.000  H
  C44      1.0000 0.82453  0.84542  0.45742  Biso   1.000  C
  H85      1.0000 0.21934  0.90819  0.30760  Biso   1.000  H
  H86      1.0000 0.24454  0.82879  0.35351  Biso   1.000  H
  C45      1.0000 0.27908  0.94740  0.39753  Biso   1.000  C
  H87      1.0000 0.15777  0.72068  0.18839  Biso   1.000  H
  H88      1.0000 0.15122  0.82391  0.18468  Biso   1.000  H
  C46      1.0000 0.13364  0.76787  0.10570  Biso   1.000  C
  N23      1.0000 0.61915  0.72563  0.25241  Biso   1.000  N
  H89      1.0000 0.75509  0.80173  0.28339  Biso   1.000  H
  H90      1.0000 0.75429  0.72022  0.24438  Biso   1.000  H
  N24      1.0000 0.70606  0.87031  0.42602  Biso   1.000  N
  H91      1.0000 0.84198  0.80543  0.49182  Biso   1.000  H
  H92      1.0000 0.86942  0.89789  0.47502  Biso   1.000  H
  C47      1.0000 0.39427  0.96079  0.41081  Biso   1.000  C
  H93      1.0000 0.28218  0.92238  0.43423  Biso   1.000  H
  H94      1.0000 0.24213  0.00409  0.38913  Biso   1.000  H
  C48      1.0000 0.24946  0.75282  0.12513  Biso   1.000  C
  H95      1.0000 0.08823  0.72121  0.07739  Biso   1.000  H
  H96      1.0000 0.10905  0.82351  0.08331  Biso   1.000  H
  H97      1.0000 0.60205  0.74807  0.28301  Biso   1.000  H
  H98      1.0000 0.60303  0.66293  0.24753  Biso   1.000  H
  C49      1.0000 0.54774  0.77077  0.19111  Biso   1.000  C
  H99      1.0000 0.66118  0.81737  0.41583  Biso   1.000  H
  H100     1.0000 0.68453  0.90119  0.38720  Biso   1.000  H
  C50      1.0000 0.68613  0.92799  0.46770  Biso   1.000  C
  C51      1.0000 0.48616  0.90799  0.44320  Biso   1.000  C
  N25      1.0000 0.41636  0.03379  0.38913  Biso   1.000  N
  N26      1.0000 0.27752  0.68293  0.10293  Biso   1.000  N
  C52      1.0000 0.34518  0.79652  0.16399  Biso   1.000  C
  C53      1.0000 0.42872  0.75012  0.16169  Biso   1.000  C
  H101     1.0000 0.55772  0.83400  0.19750  Biso   1.000  H
  H102     1.0000 0.57187  0.75388  0.16249  Biso   1.000  H
  C54      1.0000 0.56850  0.95149  0.44090  Biso   1.000  C
  H103     1.0000 0.71243  0.89803  0.50740  Biso   1.000  H
  H104     1.0000 0.72882  0.98172  0.47610  Biso   1.000  H
  H105     1.0000 0.49105  0.85427  0.46253  Biso   1.000  H
  N27      1.0000 0.52409  0.02693  0.40823  Biso   1.000  N
  N28      1.0000 0.38683  0.68009  0.12400  Biso   1.000  N
  H106     1.0000 0.23500  0.65098  0.07101  Biso   1.000  H
  H107     1.0000 0.35342  0.84687  0.18741  Biso   1.000  H
  H108     1.0000 0.55300  0.07201  0.39500  Biso   1.000  H
  C55      1.0000 0.45235  0.27081  0.30892  Biso   1.000  C
  N29      1.0000 0.38089  0.22560  0.24758  Biso   1.000  N
  C56      1.0000 0.57133  0.25008  0.33830  Biso   1.000  C
  H109     1.0000 0.44233  0.33397  0.30249  Biso   1.000  H
  H110     1.0000 0.42810  0.25391  0.33750  Biso   1.000  H
  C57      1.0000 0.26166  0.23919  0.22392  Biso   1.000  C
  H111     1.0000 0.39804  0.24810  0.21702  Biso   1.000  H
  H112     1.0000 0.39706  0.16289  0.25250  Biso   1.000  H
  N30      1.0000 0.61326  0.18012  0.37603  Biso   1.000  N
  C58      1.0000 0.65480  0.29648  0.33600  Biso   1.000  C
  C59      1.0000 0.18786  0.18910  0.16366  Biso   1.000  C
  H113     1.0000 0.24495  0.30170  0.21660  Biso   1.000  H
  H114     1.0000 0.24575  0.22018  0.25560  Biso   1.000  H
  N31      1.0000 0.72253  0.18289  0.39706  Biso   1.000  N
  C60      1.0000 0.75063  0.25279  0.37491  Biso   1.000  C
  H115     1.0000 0.64666  0.34691  0.31263  Biso   1.000  H
  N32      1.0000 0.20064  0.21570  0.11100  Biso   1.000  N
  H116     1.0000 0.20382  0.12659  0.17140  Biso   1.000  H
  H117     1.0000 0.11141  0.19787  0.15178  Biso   1.000  H
  H118     1.0000 0.76502  0.15101  0.42902  Biso   1.000  H
  C61      1.0000 0.86641  0.26790  0.39429  Biso   1.000  C
  C62      1.0000 0.14892  0.14923  0.06031  Biso   1.000  C
  C63      1.0000 0.14600  0.30183  0.08641  Biso   1.000  C
  N33      1.0000 0.88142  0.27008  0.33886  Biso   1.000  N
  H119     1.0000 0.91181  0.22117  0.42259  Biso   1.000  H
  H120     1.0000 0.89104  0.32348  0.41673  Biso   1.000  H
  H121     1.0000 0.14354  0.17352  0.02281  Biso   1.000  H
  H122     1.0000 0.07441  0.13788  0.05111  Biso   1.000  H
  C64      1.0000 0.21019  0.06330  0.07552  Biso   1.000  C
  H123     1.0000 0.16600  0.34110  0.12151  Biso   1.000  H
  H124     1.0000 0.06659  0.29338  0.06449  Biso   1.000  H
  C65      1.0000 0.17548  0.34539  0.04262  Biso   1.000  C
  H125     1.0000 0.84220  0.22071  0.31159  Biso   1.000  H
  H126     1.0000 0.84883  0.32387  0.31530  Biso   1.000  H
  C66      1.0000 0.99913  0.26619  0.35679  Biso   1.000  C
  N34      1.0000 0.32089  0.07168  0.08260  Biso   1.000  N
  H127     1.0000 0.21890  0.04013  0.11410  Biso   1.000  H
  H128     1.0000 0.16662  0.02119  0.04229  Biso   1.000  H
  N35      1.0000 0.29403  0.37027  0.07401  Biso   1.000  N
  H129     1.0000 0.15811  0.30539  0.00821  Biso   1.000  H
  H130     1.0000 0.13060  0.39793  0.02502  Biso   1.000  H
  H131     1.0000 0.02597  0.20619  0.36871  Biso   1.000  H
  H132     1.0000 0.04254  0.30381  0.39302  Biso   1.000  H
  C67      1.0000 0.01485  0.29503  0.30432  Biso   1.000  C
  H133     1.0000 0.36700  0.11042  0.11762  Biso   1.000  H
  H134     1.0000 0.31349  0.09729  0.04492  Biso   1.000  H
  C68      1.0000 0.37331  0.98310  0.09391  Biso   1.000  C
  H135     1.0000 0.33891  0.31740  0.08420  Biso   1.000  H
  H136     1.0000 0.31551  0.40123  0.11278  Biso   1.000  H
  C69      1.0000 0.31392  0.42802  0.03229  Biso   1.000  C
  N36      1.0000 0.94640  0.24738  0.24457  Biso   1.000  N
  H137     1.0000 0.99814  0.35747  0.29700  Biso   1.000  H
  H138     1.0000 0.09205  0.28737  0.31741  Biso   1.000  H
  C70      1.0000 0.47568  0.98099  0.09138  Biso   1.000  C
  H139     1.0000 0.39019  0.96238  0.13479  Biso   1.000  H
  H140     1.0000 0.32030  0.94238  0.06270  Biso   1.000  H
  C71      1.0000 0.43147  0.45152  0.05909  Biso   1.000  C
  H141     1.0000 0.27123  0.48168  0.02389  Biso   1.000  H
  H142     1.0000 0.28776  0.39799  0.99258  Biso   1.000  H
  C72      1.0000 0.95367  0.29193  0.19402  Biso   1.000  C
  C73      1.0000 0.98725  0.15590  0.25180  Biso   1.000  C
  C74      1.0000 0.56902  0.03307  0.12053  Biso   1.000  C
  N37      1.0000 0.48743  0.91611  0.05909  Biso   1.000  N
  N38      1.0000 0.47600  0.52690  0.09180  Biso   1.000  N
  C75      1.0000 0.51388  0.40803  0.05679  Biso   1.000  C
  H143     1.0000 0.91899  0.25780  0.15920  Biso   1.000  H
  C76      1.0000 0.90528  0.38380  0.17671  Biso   1.000  C
  H144     1.0000 0.02603  0.29503  0.20562  Biso   1.000  H
  H145     1.0000 0.98356  0.12851  0.28602  Biso   1.000  H
  C77      1.0000 0.92642  0.09762  0.19459  Biso   1.000  C
  H146     1.0000 0.06450  0.15781  0.26410  Biso   1.000  H
  H147     1.0000 0.58085  0.08178  0.14601  Biso   1.000  H
  C78      1.0000 0.64033  0.99921  0.10452  Biso   1.000  C
  N39      1.0000 0.58850  0.92892  0.06852  Biso   1.000  N
  N40      1.0000 0.58373  0.53383  0.11090  Biso   1.000  N
  H148     1.0000 0.44697  0.57198  0.10499  Biso   1.000  H
  C79      1.0000 0.60581  0.46083  0.08922  Biso   1.000  C
  H149     1.0000 0.50903  0.35430  0.03750  Biso   1.000  H
  N41      1.0000 0.78663  0.38770  0.15728  Biso   1.000  N
  H150     1.0000 0.94703  0.42241  0.21252  Biso   1.000  H
  H151     1.0000 0.91338  0.40558  0.14259  Biso   1.000  H
  N42      1.0000 0.81042  0.07927  0.17628  Biso   1.000  N
  H152     1.0000 0.92696  0.12580  0.15972  Biso   1.000  H
  H153     1.0000 0.96575  0.04211  0.20280  Biso   1.000  H
  C80      1.0000 0.75149  0.02521  0.11790  Biso   1.000  C
  H154     1.0000 0.61752  0.89519  0.05299  Biso   1.000  H
  C81      1.0000 0.72101  0.44743  0.10250  Biso   1.000  C
  H155     1.0000 0.78075  0.40822  0.19243  Biso   1.000  H
  H156     1.0000 0.75555  0.32882  0.14653  Biso   1.000  H
  H157     1.0000 0.77151  0.13478  0.16971  Biso   1.000  H
  H158     1.0000 0.80973  0.04831  0.21022  Biso   1.000  H
  H159     1.0000 0.74439  0.05887  0.08279  Biso   1.000  H
  H160     1.0000 0.79443  0.97268  0.12259  Biso   1.000  H
  H161     1.0000 0.71790  0.42241  0.06580  Biso   1.000  H
  H162     1.0000 0.75789  0.50413  0.11090  Biso   1.000  H
  C82      1.0000 0.54778  0.72919  0.69110  Biso   1.000  C
  C83      1.0000 0.42880  0.74992  0.66172  Biso   1.000  C
  N43      1.0000 0.61917  0.77440  0.75244  Biso   1.000  N
  H163     1.0000 0.55781  0.66603  0.69753  Biso   1.000  H
  H164     1.0000 0.57196  0.74609  0.66252  Biso   1.000  H
  C84      1.0000 0.34526  0.70352  0.66402  Biso   1.000  C
  N44      1.0000 0.38687  0.81988  0.62399  Biso   1.000  N
  H165     1.0000 0.60214  0.75190  0.78305  Biso   1.000  H
  H166     1.0000 0.60308  0.83711  0.74752  Biso   1.000  H
  C85      1.0000 0.73851  0.76081  0.77615  Biso   1.000  C
  C86      1.0000 0.24943  0.74721  0.62511  Biso   1.000  C
  H167     1.0000 0.35351  0.65309  0.68744  Biso   1.000  H
  N45      1.0000 0.27754  0.81711  0.60296  Biso   1.000  N
  C87      1.0000 0.81232  0.81090  0.83641  Biso   1.000  C
  H168     1.0000 0.75518  0.69830  0.78342  Biso   1.000  H
  H169     1.0000 0.75438  0.77982  0.74442  Biso   1.000  H
  C88      1.0000 0.13365  0.73210  0.60573  Biso   1.000  C
  H170     1.0000 0.23504  0.84899  0.57100  Biso   1.000  H
  N46      1.0000 0.79949  0.78430  0.88902  Biso   1.000  N
  H171     1.0000 0.79632  0.87341  0.82862  Biso   1.000  H
  H172     1.0000 0.88872  0.80213  0.84824  Biso   1.000  H
  N47      1.0000 0.11868  0.72992  0.66120  Biso   1.000  N
  H173     1.0000 0.08825  0.77883  0.57743  Biso   1.000  H
  H174     1.0000 0.10906  0.67652  0.58334  Biso   1.000  H
  C89      1.0000 0.85121  0.85077  0.93971  Biso   1.000  C
  C90      1.0000 0.85406  0.69817  0.91362  Biso   1.000  C
  H175     1.0000 0.15786  0.77929  0.68843  Biso   1.000  H
  H176     1.0000 0.15131  0.67613  0.68472  Biso   1.000  H
  C91      1.0000 0.00100  0.73381  0.64323  Biso   1.000  C
  H177     1.0000 0.85659  0.82648  0.97721  Biso   1.000  H
  H178     1.0000 0.92565  0.86212  0.94891  Biso   1.000  H
  C92      1.0000 0.78991  0.93670  0.92455  Biso   1.000  C
  H179     1.0000 0.83406  0.65890  0.87851  Biso   1.000  H
  H180     1.0000 0.93354  0.70662  0.93553  Biso   1.000  H
  C93      1.0000 0.82462  0.65461  0.95745  Biso   1.000  C
  H181     1.0000 0.97416  0.79381  0.63131  Biso   1.000  H
  H182     1.0000 0.95753  0.69619  0.60700  Biso   1.000  H
  C94      1.0000 0.98528  0.70497  0.69570  Biso   1.000  C
  N48      1.0000 0.67917  0.92832  0.91742  Biso   1.000  N
  H183     1.0000 0.78117  0.95987  0.88592  Biso   1.000  H
  H184     1.0000 0.83352  0.97881  0.95773  Biso   1.000  H
  N49      1.0000 0.70610  0.62973  0.92601  Biso   1.000  N
  H185     1.0000 0.84199  0.69461  0.99185  Biso   1.000  H
  H186     1.0000 0.86951  0.60207  0.97505  Biso   1.000  H
  N50      1.0000 0.05366  0.75262  0.75545  Biso   1.000  N
  H187     1.0000 0.00199  0.64253  0.70302  Biso   1.000  H
  H188     1.0000 0.90808  0.71263  0.68261  Biso   1.000  H
  H189     1.0000 0.63310  0.88958  0.88245  Biso   1.000  H
  H190     1.0000 0.68661  0.90271  0.95515  Biso   1.000  H
  C95      1.0000 0.62676  0.01690  0.90611  Biso   1.000  C
  H191     1.0000 0.66122  0.68260  0.91582  Biso   1.000  H
  H192     1.0000 0.68462  0.59877  0.88724  Biso   1.000  H
  C96      1.0000 0.68621  0.57198  0.96773  Biso   1.000  C
  C97      1.0000 0.04650  0.70807  0.80604  Biso   1.000  C
  C98      1.0000 0.01288  0.84410  0.74822  Biso   1.000  C
  C99      1.0000 0.52438  0.01901  0.90864  Biso   1.000  C
  H193     1.0000 0.60987  0.03762  0.86523  Biso   1.000  H
  H194     1.0000 0.67976  0.05762  0.93732  Biso   1.000  H
  C100     1.0000 0.56859  0.54848  0.94093  Biso   1.000  C
  H195     1.0000 0.72891  0.51832  0.97613  Biso   1.000  H
  H196     1.0000 0.71237  0.60201  0.00744  Biso   1.000  H
  H197     1.0000 0.08108  0.74220  0.84082  Biso   1.000  H
  C101     1.0000 0.09478  0.61620  0.82331  Biso   1.000  C
  H198     1.0000 0.97410  0.70497  0.79440  Biso   1.000  H
  H199     1.0000 0.01657  0.87149  0.71401  Biso   1.000  H
  C102     1.0000 0.07371  0.90238  0.80543  Biso   1.000  C
  H200     1.0000 0.93556  0.84219  0.73592  Biso   1.000  H
  C103     1.0000 0.43108  0.96693  0.87954  Biso   1.000  C
  N51      1.0000 0.51270  0.08389  0.94093  Biso   1.000  N
  C104     1.0000 0.48618  0.59197  0.94323  Biso   1.000  C
  N52      1.0000 0.52406  0.47310  0.90822  Biso   1.000  N
  N53      1.0000 0.21350  0.61230  0.84274  Biso   1.000  N
  H201     1.0000 0.05303  0.57759  0.78750  Biso   1.000  H
  H202     1.0000 0.08668  0.59442  0.85744  Biso   1.000  H
  N54      1.0000 0.18971  0.92073  0.82374  Biso   1.000  N
  H203     1.0000 0.07317  0.87420  0.84030  Biso   1.000  H
  H204     1.0000 0.03438  0.95789  0.79722  Biso   1.000  H
  C105     1.0000 0.35978  0.00079  0.89555  Biso   1.000  C
  H205     1.0000 0.41928  0.91822  0.85401  Biso   1.000  H
  N55      1.0000 0.41161  0.07108  0.93154  Biso   1.000  N
  C106     1.0000 0.39429  0.53917  0.91085  Biso   1.000  C
  H206     1.0000 0.49110  0.64570  0.96252  Biso   1.000  H
  N56      1.0000 0.41640  0.46617  0.88912  Biso   1.000  N
  H207     1.0000 0.55309  0.42802  0.89503  Biso   1.000  H
  H208     1.0000 0.21942  0.59178  0.80764  Biso   1.000  H
  H209     1.0000 0.24463  0.67118  0.85354  Biso   1.000  H
  C107     1.0000 0.27906  0.55257  0.89752  Biso   1.000  C
  H210     1.0000 0.22855  0.86522  0.83031  Biso   1.000  H
  H211     1.0000 0.19033  0.95169  0.78980  Biso   1.000  H
  C108     1.0000 0.24857  0.97479  0.88212  Biso   1.000  C
  H212     1.0000 0.38262  0.10481  0.94703  Biso   1.000  H
  H213     1.0000 0.28216  0.57759  0.93422  Biso   1.000  H
  H214     1.0000 0.24217  0.49587  0.88912  Biso   1.000  H
  H215     1.0000 0.25567  0.94113  0.91723  Biso   1.000  H
  H216     1.0000 0.20570  0.02732  0.87743  Biso   1.000  H
