data_image0
_cell_length_a       12.232
_cell_length_b       21.262
_cell_length_c       12.63
_cell_angle_alpha    90
_cell_angle_beta     111.91
_cell_angle_gamma    90

_symmetry_space_group_name_H-M    "P 1"
_symmetry_int_tables_number       1

loop_
  _symmetry_equiv_pos_as_xyz
  'x, y, z'

loop_
  _atom_site_label
  _atom_site_occupancy
  _atom_site_fract_x
  _atom_site_fract_y
  _atom_site_fract_z
  _atom_site_thermal_displace_type
  _atom_site_B_iso_or_equiv
  _atom_site_type_symbol
  O1       1.0000 0.40977  0.80905  0.64722  Biso   1.000  O
  C1       1.0000 0.43479  0.79823  0.56427  Biso   1.000  C
  C2       1.0000 0.43479  0.79818  0.56427  Biso   1.000  C
  N1       1.0000 0.35697  0.79626  0.45248  Biso   1.000  N
  N2       1.0000 0.54449  0.78440  0.56530  Biso   1.000  N
  N3       1.0000 0.54449  0.78436  0.56530  Biso   1.000  N
  O2       1.0000 0.40977  0.80910  0.64722  Biso   1.000  O
  C3       1.0000 0.41101  0.77523  0.37567  Biso   1.000  C
  C4       1.0000 0.23282  0.80585  0.42073  Biso   1.000  C
  C5       1.0000 0.54259  0.76569  0.45469  Biso   1.000  C
  C6       1.0000 0.64688  0.77824  0.67001  Biso   1.000  C
  H1       1.0000 0.37560  0.73591  0.33786  Biso   1.000  H
  N4       1.0000 0.41797  0.82170  0.29357  Biso   1.000  N
  H2       1.0000 0.21372  0.80284  0.48849  Biso   1.000  H
  H3       1.0000 0.19085  0.77250  0.36910  Biso   1.000  H
  N5       1.0000 0.19142  0.86596  0.36611  Biso   1.000  N
  H4       1.0000 0.56626  0.72166  0.45504  Biso   1.000  H
  N6       1.0000 0.60553  0.80571  0.40503  Biso   1.000  N
  H5       1.0000 0.56626  0.72162  0.45504  Biso   1.000  H
  N7       1.0000 0.60553  0.80566  0.40503  Biso   1.000  N
  H6       1.0000 0.62074  0.77476  0.73350  Biso   1.000  H
  H7       1.0000 0.68788  0.73963  0.66694  Biso   1.000  H
  N8       1.0000 0.72809  0.83003  0.69109  Biso   1.000  N
  H8       1.0000 0.62074  0.77472  0.73350  Biso   1.000  H
  N9       1.0000 0.72809  0.83007  0.69109  Biso   1.000  N
  C7       1.0000 0.53168  0.83360  0.30501  Biso   1.000  C
  C8       1.0000 0.31912  0.83445  0.18852  Biso   1.000  C
  C9       1.0000 0.53168  0.83355  0.30501  Biso   1.000  C
  C10      1.0000 0.31912  0.83449  0.18852  Biso   1.000  C
  C11      1.0000 0.15151  0.87409  0.24279  Biso   1.000  C
  C12      1.0000 0.15151  0.87414  0.24279  Biso   1.000  C
  C13      1.0000 0.15009  0.91261  0.41544  Biso   1.000  C
  C14      1.0000 0.15009  0.91257  0.41544  Biso   1.000  C
  C15      1.0000 0.73076  0.80693  0.43831  Biso   1.000  C
  C16      1.0000 0.73076  0.80689  0.43831  Biso   1.000  C
  C17      1.0000 0.82418  0.83275  0.65021  Biso   1.000  C
  C18      1.0000 0.82418  0.83271  0.65021  Biso   1.000  C
  C19      1.0000 0.74028  0.87438  0.77302  Biso   1.000  C
  C20      1.0000 0.74028  0.87442  0.77302  Biso   1.000  C
  O3       1.0000 0.56318  0.86271  0.23887  Biso   1.000  O
  O4       1.0000 0.56318  0.86276  0.23887  Biso   1.000  O
  H9       1.0000 0.27257  0.79654  0.16402  Biso   1.000  H
  H10      1.0000 0.34865  0.84588  0.12980  Biso   1.000  H
  N10      1.0000 0.24400  0.88449  0.20021  Biso   1.000  N
  H11      1.0000 0.34865  0.84592  0.12980  Biso   1.000  H
  N11      1.0000 0.24400  0.88454  0.20021  Biso   1.000  N
  H12      1.0000 0.09902  0.84004  0.20183  Biso   1.000  H
  C21      1.0000 0.08639  0.93829  0.22231  Biso   1.000  C
  H13      1.0000 0.09902  0.84000  0.20183  Biso   1.000  H
  C22      1.0000 0.08639  0.93834  0.22231  Biso   1.000  C
  N12      1.0000 0.09914  0.95814  0.33624  Biso   1.000  N
  O5       1.0000 0.15666  0.91327  0.51503  Biso   1.000  O
  H14      1.0000 0.74925  0.81883  0.37277  Biso   1.000  H
  H15      1.0000 0.76094  0.76470  0.46041  Biso   1.000  H
  N13      1.0000 0.79051  0.84917  0.53099  Biso   1.000  N
  N14      1.0000 0.79051  0.84921  0.53099  Biso   1.000  N
  C23      1.0000 0.89604  0.89070  0.71259  Biso   1.000  C
  H16      1.0000 0.87164  0.79419  0.66899  Biso   1.000  H
  C24      1.0000 0.89604  0.89065  0.71259  Biso   1.000  C
  H17      1.0000 0.87164  0.79423  0.66899  Biso   1.000  H
  N15      1.0000 0.82872  0.91468  0.77762  Biso   1.000  N
  O6       1.0000 0.68040  0.87790  0.83233  Biso   1.000  O
  O7       1.0000 0.68040  0.87786  0.83233  Biso   1.000  O
  C25      1.0000 0.23999  0.94300  0.15481  Biso   1.000  C
  C26      1.0000 0.23999  0.94295  0.15481  Biso   1.000  C
  N16      1.0000 0.14942  0.97536  0.16821  Biso   1.000  N
  H18      1.0000 0.00331  0.93368  0.17281  Biso   1.000  H
  H19      1.0000 0.00331  0.93373  0.17281  Biso   1.000  H
  C27      1.0000 0.03710  0.01105  0.35920  Biso   1.000  C
  C28      1.0000 0.03710  0.01110  0.35920  Biso   1.000  C
  C29      1.0000 0.84285  0.90424  0.51682  Biso   1.000  C
  C30      1.0000 0.84285  0.90420  0.51682  Biso   1.000  C
  N17      1.0000 0.89796  0.93063  0.62188  Biso   1.000  N
  H20      1.0000 0.97597  0.87861  0.76303  Biso   1.000  H
  C31      1.0000 0.87779  0.95927  0.86808  Biso   1.000  C
  C32      1.0000 0.87779  0.95922  0.86808  Biso   1.000  C
  O8       1.0000 0.30520  0.96242  0.10847  Biso   1.000  O
  C33      1.0000 0.12220  0.04078  0.13194  Biso   1.000  C
  H21      1.0000 0.96298  0.01651  0.29519  Biso   1.000  H
  H22      1.0000 0.01903  0.00169  0.42602  Biso   1.000  H
  N18      1.0000 0.10204  0.06942  0.37814  Biso   1.000  N
  H23      1.0000 0.01903  0.00174  0.42602  Biso   1.000  H
  O9       1.0000 0.84099  0.92517  0.42628  Biso   1.000  O
  O10      1.0000 0.84099  0.92512  0.42628  Biso   1.000  O
  C34      1.0000 0.96289  0.98895  0.64082  Biso   1.000  C
  H24      1.0000 0.96266  0.95400  0.90034  Biso   1.000  H
  H25      1.0000 0.84816  0.95024  0.92782  Biso   1.000  H
  N19      1.0000 0.85058  0.02469  0.83182  Biso   1.000  N
  N20      1.0000 0.85058  0.02464  0.83182  Biso   1.000  N
  H26      1.0000 0.03726  0.04600  0.09968  Biso   1.000  H
  H27      1.0000 0.15175  0.04981  0.07220  Biso   1.000  H
  N21      1.0000 0.17128  0.08532  0.22240  Biso   1.000  N
  H28      1.0000 0.03726  0.04604  0.09968  Biso   1.000  H
  N22      1.0000 0.17128  0.08536  0.22240  Biso   1.000  N
  C35      1.0000 0.10388  0.10935  0.28743  Biso   1.000  C
  C36      1.0000 0.10388  0.10940  0.28743  Biso   1.000  C
  C37      1.0000 0.15707  0.09580  0.48320  Biso   1.000  C
  C38      1.0000 0.15707  0.09585  0.48320  Biso   1.000  C
  H29      1.0000 0.98097  0.99835  0.57400  Biso   1.000  H
  H30      1.0000 0.98097  0.99831  0.57400  Biso   1.000  H
  N23      1.0000 0.90086  0.04186  0.66378  Biso   1.000  N
  N24      1.0000 0.90086  0.04191  0.66378  Biso   1.000  N
  H31      1.0000 0.03702  0.98354  0.70483  Biso   1.000  H
  C39      1.0000 0.91361  0.06171  0.77771  Biso   1.000  C
  C40      1.0000 0.76001  0.05705  0.84521  Biso   1.000  C
  C41      1.0000 0.25972  0.12562  0.22701  Biso   1.000  C
  H32      1.0000 0.02403  0.12139  0.23699  Biso   1.000  H
  C42      1.0000 0.17582  0.16729  0.34981  Biso   1.000  C
  H33      1.0000 0.02403  0.12144  0.23699  Biso   1.000  H
  C43      1.0000 0.17582  0.16734  0.34981  Biso   1.000  C
  N25      1.0000 0.20949  0.15083  0.46903  Biso   1.000  N
  O11      1.0000 0.15901  0.07488  0.57374  Biso   1.000  O
  O12      1.0000 0.15901  0.07492  0.57374  Biso   1.000  O
  C44      1.0000 0.84983  0.08743  0.58458  Biso   1.000  C
  C45      1.0000 0.84983  0.08748  0.58458  Biso   1.000  C
  C46      1.0000 0.84849  0.12591  0.75723  Biso   1.000  C
  H34      1.0000 0.99669  0.06632  0.82721  Biso   1.000  H
  N26      1.0000 0.75600  0.11551  0.79981  Biso   1.000  N
  O13      1.0000 0.69480  0.03763  0.89155  Biso   1.000  O
  N27      1.0000 0.27191  0.16997  0.30893  Biso   1.000  N
  O14      1.0000 0.31960  0.12214  0.16769  Biso   1.000  O
  O15      1.0000 0.31960  0.12219  0.16769  Biso   1.000  O
  H35      1.0000 0.12828  0.20581  0.33104  Biso   1.000  H
  C47      1.0000 0.26915  0.19311  0.56171  Biso   1.000  C
  C48      1.0000 0.26915  0.19316  0.56171  Biso   1.000  C
  N28      1.0000 0.80858  0.13404  0.63391  Biso   1.000  N
  O16      1.0000 0.84326  0.08677  0.48499  Biso   1.000  O
  N29      1.0000 0.80858  0.13409  0.63391  Biso   1.000  N
  H36      1.0000 0.90098  0.16000  0.79819  Biso   1.000  H
  H37      1.0000 0.90098  0.16005  0.79819  Biso   1.000  H
  C49      1.0000 0.68088  0.16555  0.81150  Biso   1.000  C
  C50      1.0000 0.35312  0.22180  0.33001  Biso   1.000  C
  H38      1.0000 0.25064  0.18122  0.62717  Biso   1.000  H
  H39      1.0000 0.23897  0.23530  0.53961  Biso   1.000  H
  N30      1.0000 0.39447  0.19434  0.59499  Biso   1.000  N
  H40      1.0000 0.25064  0.18117  0.62717  Biso   1.000  H
  N31      1.0000 0.39447  0.19438  0.59499  Biso   1.000  N
  C51      1.0000 0.76718  0.19420  0.57929  Biso   1.000  C
  H41      1.0000 0.72735  0.20351  0.83600  Biso   1.000  H
  H42      1.0000 0.65126  0.15412  0.87022  Biso   1.000  H
  N32      1.0000 0.58203  0.17830  0.70645  Biso   1.000  N
  H43      1.0000 0.72735  0.20346  0.83600  Biso   1.000  H
  N33      1.0000 0.58203  0.17835  0.70645  Biso   1.000  N
  H44      1.0000 0.37918  0.22528  0.26652  Biso   1.000  H
  H45      1.0000 0.31211  0.26042  0.33308  Biso   1.000  H
  N34      1.0000 0.45551  0.21564  0.43473  Biso   1.000  N
  H46      1.0000 0.37918  0.22533  0.26652  Biso   1.000  H
  N35      1.0000 0.45551  0.21569  0.43473  Biso   1.000  N
  C52      1.0000 0.45741  0.23431  0.54533  Biso   1.000  C
  C53      1.0000 0.45741  0.23436  0.54533  Biso   1.000  C
  C54      1.0000 0.46824  0.16645  0.69501  Biso   1.000  C
  H47      1.0000 0.78628  0.19721  0.51153  Biso   1.000  H
  H48      1.0000 0.80906  0.22750  0.63092  Biso   1.000  H
  N36      1.0000 0.64303  0.20379  0.54755  Biso   1.000  N
  H49      1.0000 0.78628  0.19716  0.51153  Biso   1.000  H
  H50      1.0000 0.80906  0.22754  0.63092  Biso   1.000  H
  N37      1.0000 0.64303  0.20374  0.54755  Biso   1.000  N
  C55      1.0000 0.58899  0.22477  0.62435  Biso   1.000  C
  C56      1.0000 0.58899  0.22481  0.62435  Biso   1.000  C
  C57      1.0000 0.56521  0.20182  0.43575  Biso   1.000  C
  C58      1.0000 0.56521  0.20186  0.43575  Biso   1.000  C
  H51      1.0000 0.43365  0.27838  0.54499  Biso   1.000  H
  H52      1.0000 0.43365  0.27843  0.54499  Biso   1.000  H
  O17      1.0000 0.43682  0.13729  0.76115  Biso   1.000  O
  H53      1.0000 0.62437  0.26409  0.66207  Biso   1.000  H
  H54      1.0000 0.62437  0.26413  0.66207  Biso   1.000  H
  O18      1.0000 0.59015  0.19095  0.35280  Biso   1.000  O
  O19      1.0000 0.59015  0.19100  0.35280  Biso   1.000  O
  O20      1.0000 0.40977  0.80905  0.64722  Biso   1.000  O
  C59      1.0000 0.43479  0.79823  0.56427  Biso   1.000  C
  C60      1.0000 0.43479  0.79818  0.56427  Biso   1.000  C
  N38      1.0000 0.35697  0.79626  0.45248  Biso   1.000  N
  N39      1.0000 0.54449  0.78440  0.56530  Biso   1.000  N
  N40      1.0000 0.54449  0.78436  0.56530  Biso   1.000  N
  O21      1.0000 0.40977  0.80910  0.64722  Biso   1.000  O
  C61      1.0000 0.41101  0.77523  0.37567  Biso   1.000  C
  C62      1.0000 0.23282  0.80585  0.42073  Biso   1.000  C
  C63      1.0000 0.54259  0.76569  0.45469  Biso   1.000  C
  C64      1.0000 0.64688  0.77824  0.67001  Biso   1.000  C
  H55      1.0000 0.37560  0.73591  0.33786  Biso   1.000  H
  N41      1.0000 0.41797  0.82170  0.29357  Biso   1.000  N
  H56      1.0000 0.21372  0.80284  0.48849  Biso   1.000  H
  H57      1.0000 0.19085  0.77250  0.36910  Biso   1.000  H
  N42      1.0000 0.19142  0.86596  0.36611  Biso   1.000  N
  H58      1.0000 0.56626  0.72166  0.45504  Biso   1.000  H
  N43      1.0000 0.60553  0.80571  0.40503  Biso   1.000  N
  H59      1.0000 0.56626  0.72162  0.45504  Biso   1.000  H
  N44      1.0000 0.60553  0.80566  0.40503  Biso   1.000  N
  H60      1.0000 0.68788  0.73963  0.66694  Biso   1.000  H
  H61      1.0000 0.62074  0.77476  0.73350  Biso   1.000  H
  N45      1.0000 0.72809  0.83003  0.69109  Biso   1.000  N
  H62      1.0000 0.62074  0.77472  0.73350  Biso   1.000  H
  N46      1.0000 0.72809  0.83007  0.69109  Biso   1.000  N
  C65      1.0000 0.53168  0.83360  0.30501  Biso   1.000  C
  C66      1.0000 0.31912  0.83445  0.18852  Biso   1.000  C
  C67      1.0000 0.53168  0.83355  0.30501  Biso   1.000  C
  C68      1.0000 0.31912  0.83449  0.18852  Biso   1.000  C
  C69      1.0000 0.15151  0.87409  0.24279  Biso   1.000  C
  C70      1.0000 0.15151  0.87414  0.24279  Biso   1.000  C
  C71      1.0000 0.15009  0.91261  0.41544  Biso   1.000  C
  C72      1.0000 0.15009  0.91257  0.41544  Biso   1.000  C
  C73      1.0000 0.73076  0.80693  0.43831  Biso   1.000  C
  C74      1.0000 0.73076  0.80689  0.43831  Biso   1.000  C
  C75      1.0000 0.82418  0.83275  0.65021  Biso   1.000  C
  C76      1.0000 0.82418  0.83271  0.65021  Biso   1.000  C
  C77      1.0000 0.74028  0.87438  0.77302  Biso   1.000  C
  C78      1.0000 0.74028  0.87442  0.77302  Biso   1.000  C
  O22      1.0000 0.56318  0.86271  0.23887  Biso   1.000  O
  O23      1.0000 0.56318  0.86276  0.23887  Biso   1.000  O
  H63      1.0000 0.27257  0.79654  0.16402  Biso   1.000  H
  H64      1.0000 0.34865  0.84588  0.12980  Biso   1.000  H
  N47      1.0000 0.24400  0.88449  0.20021  Biso   1.000  N
  H65      1.0000 0.34865  0.84592  0.12980  Biso   1.000  H
  N48      1.0000 0.24400  0.88454  0.20021  Biso   1.000  N
  H66      1.0000 0.09902  0.84004  0.20183  Biso   1.000  H
  C79      1.0000 0.08639  0.93829  0.22231  Biso   1.000  C
  H67      1.0000 0.09902  0.84000  0.20183  Biso   1.000  H
  C80      1.0000 0.08639  0.93834  0.22231  Biso   1.000  C
  N49      1.0000 0.09914  0.95814  0.33624  Biso   1.000  N
  O24      1.0000 0.15666  0.91327  0.51503  Biso   1.000  O
  H68      1.0000 0.74925  0.81883  0.37277  Biso   1.000  H
  H69      1.0000 0.76094  0.76470  0.46041  Biso   1.000  H
  N50      1.0000 0.79051  0.84917  0.53099  Biso   1.000  N
  N51      1.0000 0.79051  0.84921  0.53099  Biso   1.000  N
  C81      1.0000 0.89604  0.89070  0.71259  Biso   1.000  C
  H70      1.0000 0.87164  0.79419  0.66899  Biso   1.000  H
  C82      1.0000 0.89604  0.89065  0.71259  Biso   1.000  C
  H71      1.0000 0.87164  0.79423  0.66899  Biso   1.000  H
  N52      1.0000 0.82872  0.91468  0.77762  Biso   1.000  N
  O25      1.0000 0.68040  0.87790  0.83233  Biso   1.000  O
  O26      1.0000 0.68040  0.87786  0.83233  Biso   1.000  O
  C83      1.0000 0.23999  0.94300  0.15481  Biso   1.000  C
  C84      1.0000 0.23999  0.94295  0.15481  Biso   1.000  C
  N53      1.0000 0.14942  0.97536  0.16821  Biso   1.000  N
  H72      1.0000 0.00331  0.93368  0.17281  Biso   1.000  H
  H73      1.0000 0.00331  0.93373  0.17281  Biso   1.000  H
  C85      1.0000 0.03710  0.01105  0.35920  Biso   1.000  C
  C86      1.0000 0.03710  0.01110  0.35920  Biso   1.000  C
  C87      1.0000 0.84285  0.90424  0.51682  Biso   1.000  C
  C88      1.0000 0.84285  0.90420  0.51682  Biso   1.000  C
  N54      1.0000 0.89796  0.93063  0.62188  Biso   1.000  N
  H74      1.0000 0.97597  0.87861  0.76303  Biso   1.000  H
  C89      1.0000 0.87779  0.95927  0.86808  Biso   1.000  C
  C90      1.0000 0.87779  0.95922  0.86808  Biso   1.000  C
  O27      1.0000 0.30520  0.96242  0.10847  Biso   1.000  O
  C91      1.0000 0.12220  0.04078  0.13194  Biso   1.000  C
  H75      1.0000 0.96298  0.01651  0.29519  Biso   1.000  H
  H76      1.0000 0.01903  0.00169  0.42602  Biso   1.000  H
  N55      1.0000 0.10204  0.06942  0.37814  Biso   1.000  N
  H77      1.0000 0.01903  0.00174  0.42602  Biso   1.000  H
  O28      1.0000 0.84099  0.92517  0.42628  Biso   1.000  O
  O29      1.0000 0.84099  0.92512  0.42628  Biso   1.000  O
  C92      1.0000 0.96289  0.98895  0.64082  Biso   1.000  C
  H78      1.0000 0.96266  0.95400  0.90034  Biso   1.000  H
  H79      1.0000 0.84816  0.95024  0.92782  Biso   1.000  H
  N56      1.0000 0.85058  0.02469  0.83182  Biso   1.000  N
  N57      1.0000 0.85058  0.02464  0.83182  Biso   1.000  N
  H80      1.0000 0.03726  0.04600  0.09968  Biso   1.000  H
  H81      1.0000 0.15175  0.04981  0.07220  Biso   1.000  H
  N58      1.0000 0.17128  0.08532  0.22240  Biso   1.000  N
  H82      1.0000 0.03726  0.04604  0.09968  Biso   1.000  H
  N59      1.0000 0.17128  0.08536  0.22240  Biso   1.000  N
  C93      1.0000 0.10388  0.10935  0.28743  Biso   1.000  C
  C94      1.0000 0.10388  0.10940  0.28743  Biso   1.000  C
  C95      1.0000 0.15707  0.09580  0.48320  Biso   1.000  C
  C96      1.0000 0.15707  0.09585  0.48320  Biso   1.000  C
  H83      1.0000 0.98097  0.99835  0.57400  Biso   1.000  H
  H84      1.0000 0.98097  0.99831  0.57400  Biso   1.000  H
  N60      1.0000 0.90086  0.04186  0.66378  Biso   1.000  N
  N61      1.0000 0.90086  0.04191  0.66378  Biso   1.000  N
  H85      1.0000 0.03702  0.98354  0.70483  Biso   1.000  H
  C97      1.0000 0.91361  0.06171  0.77771  Biso   1.000  C
  C98      1.0000 0.76001  0.05705  0.84521  Biso   1.000  C
  C99      1.0000 0.25972  0.12562  0.22701  Biso   1.000  C
  H86      1.0000 0.02403  0.12139  0.23699  Biso   1.000  H
  C100     1.0000 0.17582  0.16729  0.34981  Biso   1.000  C
  H87      1.0000 0.02403  0.12144  0.23699  Biso   1.000  H
  C101     1.0000 0.17582  0.16734  0.34981  Biso   1.000  C
  N62      1.0000 0.20949  0.15083  0.46903  Biso   1.000  N
  O30      1.0000 0.15901  0.07488  0.57374  Biso   1.000  O
  O31      1.0000 0.15901  0.07492  0.57374  Biso   1.000  O
  C102     1.0000 0.84983  0.08743  0.58458  Biso   1.000  C
  C103     1.0000 0.84983  0.08748  0.58458  Biso   1.000  C
  C104     1.0000 0.84849  0.12591  0.75723  Biso   1.000  C
  H88      1.0000 0.99669  0.06632  0.82721  Biso   1.000  H
  N63      1.0000 0.75600  0.11551  0.79981  Biso   1.000  N
  O32      1.0000 0.69480  0.03763  0.89155  Biso   1.000  O
  N64      1.0000 0.27191  0.16997  0.30893  Biso   1.000  N
  O33      1.0000 0.31960  0.12214  0.16769  Biso   1.000  O
  O34      1.0000 0.31960  0.12219  0.16769  Biso   1.000  O
  H89      1.0000 0.12828  0.20581  0.33104  Biso   1.000  H
  C105     1.0000 0.26915  0.19311  0.56171  Biso   1.000  C
  C106     1.0000 0.26915  0.19316  0.56171  Biso   1.000  C
  N65      1.0000 0.80858  0.13404  0.63391  Biso   1.000  N
  O35      1.0000 0.84326  0.08677  0.48499  Biso   1.000  O
  N66      1.0000 0.80858  0.13409  0.63391  Biso   1.000  N
  H90      1.0000 0.90098  0.16000  0.79819  Biso   1.000  H
  H91      1.0000 0.90098  0.16005  0.79819  Biso   1.000  H
  C107     1.0000 0.68088  0.16555  0.81150  Biso   1.000  C
  C108     1.0000 0.35312  0.22180  0.33001  Biso   1.000  C
  H92      1.0000 0.25064  0.18122  0.62717  Biso   1.000  H
  H93      1.0000 0.23897  0.23530  0.53961  Biso   1.000  H
  N67      1.0000 0.39447  0.19434  0.59499  Biso   1.000  N
  H94      1.0000 0.25064  0.18117  0.62717  Biso   1.000  H
  N68      1.0000 0.39447  0.19438  0.59499  Biso   1.000  N
  C109     1.0000 0.76718  0.19420  0.57929  Biso   1.000  C
  H95      1.0000 0.72735  0.20351  0.83600  Biso   1.000  H
  H96      1.0000 0.65126  0.15412  0.87022  Biso   1.000  H
  N69      1.0000 0.58203  0.17830  0.70645  Biso   1.000  N
  H97      1.0000 0.72735  0.20346  0.83600  Biso   1.000  H
  N70      1.0000 0.58203  0.17835  0.70645  Biso   1.000  N
  H98      1.0000 0.37918  0.22528  0.26652  Biso   1.000  H
  H99      1.0000 0.31211  0.26042  0.33308  Biso   1.000  H
  N71      1.0000 0.45551  0.21564  0.43473  Biso   1.000  N
  H100     1.0000 0.37918  0.22533  0.26652  Biso   1.000  H
  N72      1.0000 0.45551  0.21569  0.43473  Biso   1.000  N
  C110     1.0000 0.45741  0.23431  0.54533  Biso   1.000  C
  C111     1.0000 0.45741  0.23436  0.54533  Biso   1.000  C
  C112     1.0000 0.46824  0.16645  0.69501  Biso   1.000  C
  H101     1.0000 0.78628  0.19721  0.51153  Biso   1.000  H
  H102     1.0000 0.80906  0.22750  0.63092  Biso   1.000  H
  N73      1.0000 0.64303  0.20379  0.54755  Biso   1.000  N
  H103     1.0000 0.78628  0.19716  0.51153  Biso   1.000  H
  H104     1.0000 0.80906  0.22754  0.63092  Biso   1.000  H
  N74      1.0000 0.64303  0.20374  0.54755  Biso   1.000  N
  C113     1.0000 0.58899  0.22477  0.62435  Biso   1.000  C
  C114     1.0000 0.58899  0.22481  0.62435  Biso   1.000  C
  C115     1.0000 0.56521  0.20182  0.43575  Biso   1.000  C
  C116     1.0000 0.56521  0.20186  0.43575  Biso   1.000  C
  H105     1.0000 0.43365  0.27838  0.54499  Biso   1.000  H
  H106     1.0000 0.43365  0.27843  0.54499  Biso   1.000  H
  O36      1.0000 0.43682  0.13729  0.76115  Biso   1.000  O
  H107     1.0000 0.62437  0.26409  0.66207  Biso   1.000  H
  H108     1.0000 0.62437  0.26413  0.66207  Biso   1.000  H
  O37      1.0000 0.59015  0.19095  0.35280  Biso   1.000  O
  O38      1.0000 0.59015  0.19100  0.35280  Biso   1.000  O
  C117     1.0000 0.53172  0.66649  0.80502  Biso   1.000  C
  N75      1.0000 0.41801  0.67830  0.79358  Biso   1.000  N
  N76      1.0000 0.41793  0.67830  0.79358  Biso   1.000  N
  N77      1.0000 0.60549  0.69438  0.90504  Biso   1.000  N
  O39      1.0000 0.56313  0.63729  0.73888  Biso   1.000  O
  C118     1.0000 0.31908  0.66555  0.68853  Biso   1.000  C
  C119     1.0000 0.41097  0.72477  0.87568  Biso   1.000  C
  C120     1.0000 0.54255  0.73431  0.95471  Biso   1.000  C
  C121     1.0000 0.73080  0.69316  0.93832  Biso   1.000  C
  N78      1.0000 0.24404  0.61551  0.70022  Biso   1.000  N
  N79      1.0000 0.24395  0.61551  0.70022  Biso   1.000  N
  H109     1.0000 0.27261  0.70351  0.66404  Biso   1.000  H
  H110     1.0000 0.34870  0.65412  0.62981  Biso   1.000  H
  N80      1.0000 0.35701  0.70379  0.95249  Biso   1.000  N
  N81      1.0000 0.35693  0.70379  0.95249  Biso   1.000  N
  H111     1.0000 0.37559  0.76413  0.83796  Biso   1.000  H
  H112     1.0000 0.37556  0.76413  0.83787  Biso   1.000  H
  N82      1.0000 0.54445  0.71564  0.06531  Biso   1.000  N
  H113     1.0000 0.56630  0.77843  0.95505  Biso   1.000  H
  H114     1.0000 0.74929  0.68122  0.87278  Biso   1.000  H
  H115     1.0000 0.76098  0.73530  0.96042  Biso   1.000  H
  N83      1.0000 0.79047  0.65083  0.03100  Biso   1.000  N
  C122     1.0000 0.24003  0.55705  0.65482  Biso   1.000  C
  C123     1.0000 0.23995  0.55705  0.65482  Biso   1.000  C
  C124     1.0000 0.15147  0.62591  0.74280  Biso   1.000  C
  C125     1.0000 0.23278  0.69420  0.92074  Biso   1.000  C
  C126     1.0000 0.43475  0.70182  0.06428  Biso   1.000  C
  C127     1.0000 0.64692  0.72180  0.17002  Biso   1.000  C
  C128     1.0000 0.64684  0.72180  0.17002  Biso   1.000  C
  C129     1.0000 0.82422  0.66734  0.15022  Biso   1.000  C
  C130     1.0000 0.84289  0.59585  0.01683  Biso   1.000  C
  C131     1.0000 0.82414  0.66734  0.15022  Biso   1.000  C
  N84      1.0000 0.14938  0.52469  0.66822  Biso   1.000  N
  O40      1.0000 0.30524  0.53763  0.60848  Biso   1.000  O
  O41      1.0000 0.30516  0.53763  0.60848  Biso   1.000  O
  C132     1.0000 0.08643  0.56171  0.72232  Biso   1.000  C
  C133     1.0000 0.08635  0.56171  0.72232  Biso   1.000  C
  H116     1.0000 0.09898  0.66000  0.70184  Biso   1.000  H
  N85      1.0000 0.19138  0.63409  0.86612  Biso   1.000  N
  H117     1.0000 0.21368  0.69721  0.98850  Biso   1.000  H
  H118     1.0000 0.19089  0.72750  0.86911  Biso   1.000  H
  O42      1.0000 0.40981  0.69100  0.14723  Biso   1.000  O
  H119     1.0000 0.62078  0.72533  0.23351  Biso   1.000  H
  H120     1.0000 0.68792  0.76042  0.16695  Biso   1.000  H
  N86      1.0000 0.72805  0.66997  0.19110  Biso   1.000  N
  H121     1.0000 0.68784  0.76042  0.16695  Biso   1.000  H
  C134     1.0000 0.89608  0.60940  0.21260  Biso   1.000  C
  H122     1.0000 0.87168  0.70581  0.16900  Biso   1.000  H
  N87      1.0000 0.89800  0.56942  0.12189  Biso   1.000  N
  N88      1.0000 0.89792  0.56942  0.12189  Biso   1.000  N
  O43      1.0000 0.84103  0.57488  0.92629  Biso   1.000  O
  O44      1.0000 0.84095  0.57488  0.92629  Biso   1.000  O
  C135     1.0000 0.12224  0.45922  0.63195  Biso   1.000  C
  C136     1.0000 0.12216  0.45922  0.63195  Biso   1.000  C
  H123     1.0000 0.00335  0.56632  0.67283  Biso   1.000  H
  N89      1.0000 0.09910  0.54191  0.83625  Biso   1.000  N
  H124     1.0000 0.00327  0.56632  0.67283  Biso   1.000  H
  C137     1.0000 0.15013  0.58748  0.91545  Biso   1.000  C
  C138     1.0000 0.74024  0.62562  0.27303  Biso   1.000  C
  N90      1.0000 0.82867  0.58532  0.27763  Biso   1.000  N
  H125     1.0000 0.97601  0.62144  0.26304  Biso   1.000  H
  H126     1.0000 0.97593  0.62144  0.26304  Biso   1.000  H
  C139     1.0000 0.96285  0.51110  0.14083  Biso   1.000  C
  N91      1.0000 0.17132  0.41468  0.72241  Biso   1.000  N
  N92      1.0000 0.17124  0.41468  0.72241  Biso   1.000  N
  H127     1.0000 0.03730  0.45400  0.59969  Biso   1.000  H
  H128     1.0000 0.15179  0.45019  0.57221  Biso   1.000  H
  C140     1.0000 0.03706  0.48895  0.85921  Biso   1.000  C
  O45      1.0000 0.15670  0.58677  0.01504  Biso   1.000  O
  O46      1.0000 0.68036  0.62219  0.33234  Biso   1.000  O
  C141     1.0000 0.87775  0.54082  0.36810  Biso   1.000  C
  N93      1.0000 0.90090  0.45814  0.16379  Biso   1.000  N
  N94      1.0000 0.90082  0.45814  0.16379  Biso   1.000  N
  H129     1.0000 0.98101  0.50169  0.07401  Biso   1.000  H
  H130     1.0000 0.98093  0.50169  0.07401  Biso   1.000  H
  H131     1.0000 0.03697  0.51651  0.20484  Biso   1.000  H
  C142     1.0000 0.25967  0.37442  0.72702  Biso   1.000  C
  C143     1.0000 0.10392  0.39065  0.78744  Biso   1.000  C
  N95      1.0000 0.10200  0.43058  0.87815  Biso   1.000  N
  H132     1.0000 0.01899  0.49831  0.92603  Biso   1.000  H
  H133     1.0000 0.96302  0.48349  0.79520  Biso   1.000  H
  H134     1.0000 0.96294  0.48349  0.79520  Biso   1.000  H
  N96      1.0000 0.85062  0.47536  0.33183  Biso   1.000  N
  N97      1.0000 0.85053  0.47536  0.33183  Biso   1.000  N
  H135     1.0000 0.96270  0.54600  0.40035  Biso   1.000  H
  H136     1.0000 0.84820  0.54981  0.42783  Biso   1.000  H
  C144     1.0000 0.84987  0.41257  0.08459  Biso   1.000  C
  C145     1.0000 0.91357  0.43834  0.27772  Biso   1.000  C
  O47      1.0000 0.31956  0.37786  0.66771  Biso   1.000  O
  N98      1.0000 0.27195  0.33007  0.80894  Biso   1.000  N
  N99      1.0000 0.27187  0.33007  0.80894  Biso   1.000  N
  C146     1.0000 0.17578  0.33271  0.84982  Biso   1.000  C
  H137     1.0000 0.02399  0.37861  0.73700  Biso   1.000  H
  C147     1.0000 0.15711  0.40420  0.98321  Biso   1.000  C
  C148     1.0000 0.75996  0.44295  0.34522  Biso   1.000  C
  N100     1.0000 0.80862  0.36596  0.13392  Biso   1.000  N
  N101     1.0000 0.80854  0.36596  0.13392  Biso   1.000  N
  O48      1.0000 0.84330  0.41327  0.98500  Biso   1.000  O
  C149     1.0000 0.84845  0.37414  0.25724  Biso   1.000  C
  H138     1.0000 0.99665  0.43373  0.32722  Biso   1.000  H
  C150     1.0000 0.35307  0.27824  0.83002  Biso   1.000  C
  H139     1.0000 0.12832  0.29419  0.83105  Biso   1.000  H
  N102     1.0000 0.20953  0.34921  0.96904  Biso   1.000  N
  N103     1.0000 0.20945  0.34921  0.96904  Biso   1.000  N
  O49      1.0000 0.15897  0.42512  0.07376  Biso   1.000  O
  N104     1.0000 0.75596  0.38454  0.29982  Biso   1.000  N
  O50      1.0000 0.69476  0.46242  0.39156  Biso   1.000  O
  C151     1.0000 0.76714  0.30580  0.07930  Biso   1.000  C
  H140     1.0000 0.90094  0.34000  0.29820  Biso   1.000  H
  H141     1.0000 0.37922  0.27472  0.76653  Biso   1.000  H
  H142     1.0000 0.31207  0.23958  0.83310  Biso   1.000  H
  N105     1.0000 0.45547  0.28436  0.93474  Biso   1.000  N
  C152     1.0000 0.26919  0.30689  0.06172  Biso   1.000  C
  C153     1.0000 0.68084  0.33445  0.31151  Biso   1.000  C
  N106     1.0000 0.64299  0.29626  0.04756  Biso   1.000  N
  H143     1.0000 0.78632  0.30279  0.01154  Biso   1.000  H
  H144     1.0000 0.80910  0.27250  0.13093  Biso   1.000  H
  H145     1.0000 0.78624  0.30279  0.01154  Biso   1.000  H
  C154     1.0000 0.56517  0.29818  0.93576  Biso   1.000  C
  C155     1.0000 0.56513  0.29818  0.93567  Biso   1.000  C
  C156     1.0000 0.45737  0.26569  0.04534  Biso   1.000  C
  H146     1.0000 0.25071  0.31878  0.12726  Biso   1.000  H
  H147     1.0000 0.23901  0.26470  0.03962  Biso   1.000  H
  N107     1.0000 0.39451  0.30566  0.09501  Biso   1.000  N
  H148     1.0000 0.25068  0.31878  0.12718  Biso   1.000  H
  N108     1.0000 0.39443  0.30566  0.09501  Biso   1.000  N
  N109     1.0000 0.58199  0.32170  0.20646  Biso   1.000  N
  H149     1.0000 0.72739  0.29649  0.33601  Biso   1.000  H
  H150     1.0000 0.65130  0.34592  0.37023  Biso   1.000  H
  C157     1.0000 0.58903  0.27523  0.12436  Biso   1.000  C
  C158     1.0000 0.58891  0.27523  0.12428  Biso   1.000  C
  O51      1.0000 0.59019  0.30905  0.85281  Biso   1.000  O
  H151     1.0000 0.43369  0.22162  0.04500  Biso   1.000  H
  C159     1.0000 0.46828  0.33355  0.19502  Biso   1.000  C
  H152     1.0000 0.62441  0.23591  0.16208  Biso   1.000  H
  H153     1.0000 0.62433  0.23591  0.16208  Biso   1.000  H
  O52      1.0000 0.43686  0.36276  0.26116  Biso   1.000  O
  O53      1.0000 0.43678  0.36276  0.26116  Biso   1.000  O
  C160     1.0000 0.53172  0.66649  0.80502  Biso   1.000  C
  N110     1.0000 0.41801  0.67830  0.79358  Biso   1.000  N
  N111     1.0000 0.41793  0.67830  0.79358  Biso   1.000  N
  N112     1.0000 0.60549  0.69438  0.90504  Biso   1.000  N
  O54      1.0000 0.56313  0.63729  0.73888  Biso   1.000  O
  C161     1.0000 0.31908  0.66555  0.68853  Biso   1.000  C
  C162     1.0000 0.41097  0.72477  0.87568  Biso   1.000  C
  C163     1.0000 0.54255  0.73431  0.95471  Biso   1.000  C
  C164     1.0000 0.73080  0.69316  0.93832  Biso   1.000  C
  N113     1.0000 0.24404  0.61551  0.70022  Biso   1.000  N
  N114     1.0000 0.24395  0.61551  0.70022  Biso   1.000  N
  H154     1.0000 0.27261  0.70351  0.66404  Biso   1.000  H
  H155     1.0000 0.34870  0.65412  0.62981  Biso   1.000  H
  N115     1.0000 0.35701  0.70379  0.95249  Biso   1.000  N
  N116     1.0000 0.35693  0.70379  0.95249  Biso   1.000  N
  H156     1.0000 0.37559  0.76413  0.83796  Biso   1.000  H
  H157     1.0000 0.37556  0.76413  0.83787  Biso   1.000  H
  N117     1.0000 0.54445  0.71564  0.06531  Biso   1.000  N
  H158     1.0000 0.56630  0.77843  0.95505  Biso   1.000  H
  H159     1.0000 0.74929  0.68122  0.87278  Biso   1.000  H
  H160     1.0000 0.76098  0.73530  0.96042  Biso   1.000  H
  N118     1.0000 0.79047  0.65083  0.03100  Biso   1.000  N
  C165     1.0000 0.24003  0.55705  0.65482  Biso   1.000  C
  C166     1.0000 0.23995  0.55705  0.65482  Biso   1.000  C
  C167     1.0000 0.15147  0.62591  0.74280  Biso   1.000  C
  C168     1.0000 0.23278  0.69420  0.92074  Biso   1.000  C
  C169     1.0000 0.43475  0.70182  0.06428  Biso   1.000  C
  C170     1.0000 0.64692  0.72180  0.17002  Biso   1.000  C
  C171     1.0000 0.64684  0.72180  0.17002  Biso   1.000  C
  C172     1.0000 0.82422  0.66734  0.15022  Biso   1.000  C
  C173     1.0000 0.84289  0.59585  0.01683  Biso   1.000  C
  C174     1.0000 0.82414  0.66734  0.15022  Biso   1.000  C
  N119     1.0000 0.14938  0.52469  0.66822  Biso   1.000  N
  O55      1.0000 0.30524  0.53763  0.60848  Biso   1.000  O
  O56      1.0000 0.30516  0.53763  0.60848  Biso   1.000  O
  C175     1.0000 0.08643  0.56171  0.72232  Biso   1.000  C
  C176     1.0000 0.08635  0.56171  0.72232  Biso   1.000  C
  H161     1.0000 0.09898  0.66000  0.70184  Biso   1.000  H
  N120     1.0000 0.19138  0.63409  0.86612  Biso   1.000  N
  H162     1.0000 0.21368  0.69721  0.98850  Biso   1.000  H
  H163     1.0000 0.19089  0.72750  0.86911  Biso   1.000  H
  O57      1.0000 0.40981  0.69100  0.14723  Biso   1.000  O
  H164     1.0000 0.62078  0.72533  0.23351  Biso   1.000  H
  H165     1.0000 0.68792  0.76042  0.16695  Biso   1.000  H
  N121     1.0000 0.72805  0.66997  0.19110  Biso   1.000  N
  H166     1.0000 0.68784  0.76042  0.16695  Biso   1.000  H
  C177     1.0000 0.89608  0.60940  0.21260  Biso   1.000  C
  H167     1.0000 0.87168  0.70581  0.16900  Biso   1.000  H
  N122     1.0000 0.89800  0.56942  0.12189  Biso   1.000  N
  N123     1.0000 0.89792  0.56942  0.12189  Biso   1.000  N
  O58      1.0000 0.84103  0.57488  0.92629  Biso   1.000  O
  O59      1.0000 0.84095  0.57488  0.92629  Biso   1.000  O
  C178     1.0000 0.12224  0.45922  0.63195  Biso   1.000  C
  C179     1.0000 0.12216  0.45922  0.63195  Biso   1.000  C
  N124     1.0000 0.09910  0.54191  0.83625  Biso   1.000  N
  H168     1.0000 0.00335  0.56632  0.67283  Biso   1.000  H
  H169     1.0000 0.00327  0.56632  0.67283  Biso   1.000  H
  C180     1.0000 0.15013  0.58748  0.91545  Biso   1.000  C
  C181     1.0000 0.74024  0.62562  0.27303  Biso   1.000  C
  N125     1.0000 0.82867  0.58532  0.27763  Biso   1.000  N
  H170     1.0000 0.97601  0.62144  0.26304  Biso   1.000  H
  H171     1.0000 0.97593  0.62144  0.26304  Biso   1.000  H
  C182     1.0000 0.96285  0.51110  0.14083  Biso   1.000  C
  N126     1.0000 0.17132  0.41468  0.72241  Biso   1.000  N
  N127     1.0000 0.17124  0.41468  0.72241  Biso   1.000  N
  H172     1.0000 0.03730  0.45400  0.59969  Biso   1.000  H
  H173     1.0000 0.15179  0.45019  0.57221  Biso   1.000  H
  C183     1.0000 0.03706  0.48895  0.85921  Biso   1.000  C
  O60      1.0000 0.15670  0.58677  0.01504  Biso   1.000  O
  O61      1.0000 0.68036  0.62219  0.33234  Biso   1.000  O
  C184     1.0000 0.87775  0.54082  0.36810  Biso   1.000  C
  N128     1.0000 0.90090  0.45814  0.16379  Biso   1.000  N
  N129     1.0000 0.90082  0.45814  0.16379  Biso   1.000  N
  H174     1.0000 0.98101  0.50169  0.07401  Biso   1.000  H
  H175     1.0000 0.98093  0.50169  0.07401  Biso   1.000  H
  H176     1.0000 0.03697  0.51651  0.20484  Biso   1.000  H
  C185     1.0000 0.25967  0.37442  0.72702  Biso   1.000  C
  C186     1.0000 0.10392  0.39065  0.78744  Biso   1.000  C
  N130     1.0000 0.10200  0.43058  0.87815  Biso   1.000  N
  H177     1.0000 0.01899  0.49831  0.92603  Biso   1.000  H
  H178     1.0000 0.96302  0.48349  0.79520  Biso   1.000  H
  H179     1.0000 0.96294  0.48349  0.79520  Biso   1.000  H
  N131     1.0000 0.85062  0.47536  0.33183  Biso   1.000  N
  N132     1.0000 0.85053  0.47536  0.33183  Biso   1.000  N
  H180     1.0000 0.96270  0.54600  0.40035  Biso   1.000  H
  H181     1.0000 0.84820  0.54981  0.42783  Biso   1.000  H
  C187     1.0000 0.84987  0.41257  0.08459  Biso   1.000  C
  C188     1.0000 0.91357  0.43834  0.27772  Biso   1.000  C
  O62      1.0000 0.31956  0.37786  0.66771  Biso   1.000  O
  N133     1.0000 0.27195  0.33007  0.80894  Biso   1.000  N
  N134     1.0000 0.27187  0.33007  0.80894  Biso   1.000  N
  C189     1.0000 0.17578  0.33271  0.84982  Biso   1.000  C
  H182     1.0000 0.02399  0.37861  0.73700  Biso   1.000  H
  C190     1.0000 0.15711  0.40420  0.98321  Biso   1.000  C
  C191     1.0000 0.75996  0.44295  0.34522  Biso   1.000  C
  N135     1.0000 0.80862  0.36596  0.13392  Biso   1.000  N
  N136     1.0000 0.80854  0.36596  0.13392  Biso   1.000  N
  O63      1.0000 0.84330  0.41327  0.98500  Biso   1.000  O
  C192     1.0000 0.84845  0.37414  0.25724  Biso   1.000  C
  H183     1.0000 0.99665  0.43373  0.32722  Biso   1.000  H
  C193     1.0000 0.35307  0.27824  0.83002  Biso   1.000  C
  H184     1.0000 0.12832  0.29419  0.83105  Biso   1.000  H
  N137     1.0000 0.20953  0.34921  0.96904  Biso   1.000  N
  N138     1.0000 0.20945  0.34921  0.96904  Biso   1.000  N
  O64      1.0000 0.15897  0.42512  0.07376  Biso   1.000  O
  N139     1.0000 0.75596  0.38454  0.29982  Biso   1.000  N
  O65      1.0000 0.69476  0.46242  0.39156  Biso   1.000  O
  C194     1.0000 0.76714  0.30580  0.07930  Biso   1.000  C
  H185     1.0000 0.90094  0.34000  0.29820  Biso   1.000  H
  H186     1.0000 0.37922  0.27472  0.76653  Biso   1.000  H
  H187     1.0000 0.31207  0.23958  0.83310  Biso   1.000  H
  N140     1.0000 0.45547  0.28436  0.93474  Biso   1.000  N
  C195     1.0000 0.26919  0.30689  0.06172  Biso   1.000  C
  C196     1.0000 0.68084  0.33445  0.31151  Biso   1.000  C
  N141     1.0000 0.64299  0.29626  0.04756  Biso   1.000  N
  H188     1.0000 0.78632  0.30279  0.01154  Biso   1.000  H
  H189     1.0000 0.80910  0.27250  0.13093  Biso   1.000  H
  H190     1.0000 0.78624  0.30279  0.01154  Biso   1.000  H
  C197     1.0000 0.56517  0.29818  0.93576  Biso   1.000  C
  C198     1.0000 0.56513  0.29818  0.93567  Biso   1.000  C
  C199     1.0000 0.45737  0.26569  0.04534  Biso   1.000  C
  H191     1.0000 0.25071  0.31878  0.12726  Biso   1.000  H
  H192     1.0000 0.23901  0.26470  0.03962  Biso   1.000  H
  N142     1.0000 0.39451  0.30566  0.09501  Biso   1.000  N
  H193     1.0000 0.25068  0.31878  0.12718  Biso   1.000  H
  N143     1.0000 0.39443  0.30566  0.09501  Biso   1.000  N
  N144     1.0000 0.58199  0.32170  0.20646  Biso   1.000  N
  H194     1.0000 0.72739  0.29649  0.33601  Biso   1.000  H
  H195     1.0000 0.65130  0.34592  0.37023  Biso   1.000  H
  C200     1.0000 0.58903  0.27523  0.12436  Biso   1.000  C
  C201     1.0000 0.58891  0.27523  0.12428  Biso   1.000  C
  O66      1.0000 0.59019  0.30905  0.85281  Biso   1.000  O
  H196     1.0000 0.43369  0.22162  0.04500  Biso   1.000  H
  C202     1.0000 0.46828  0.33355  0.19502  Biso   1.000  C
  H197     1.0000 0.62441  0.23591  0.16208  Biso   1.000  H
  H198     1.0000 0.62433  0.23591  0.16208  Biso   1.000  H
  O67      1.0000 0.43686  0.36276  0.26116  Biso   1.000  O
  O68      1.0000 0.43678  0.36276  0.26116  Biso   1.000  O
