data_image0
_cell_length_a       12.917
_cell_length_b       18.901
_cell_length_c       22.59
_cell_angle_alpha    90
_cell_angle_beta     90.65
_cell_angle_gamma    90

_symmetry_space_group_name_H-M    "P 1"
_symmetry_int_tables_number       1

loop_
  _symmetry_equiv_pos_as_xyz
  'x, y, z'

loop_
  _atom_site_label
  _atom_site_occupancy
  _atom_site_fract_x
  _atom_site_fract_y
  _atom_site_fract_z
  _atom_site_thermal_displace_type
  _atom_site_B_iso_or_equiv
  _atom_site_type_symbol
  O1       1.0000 0.70930  0.52108  0.54235  Biso   1.000  O
  N1       1.0000 0.77146  0.55135  0.51097  Biso   1.000  N
  O2       1.0000 0.74989  0.57426  0.46152  Biso   1.000  O
  C1       1.0000 0.87781  0.56166  0.53341  Biso   1.000  C
  C2       1.0000 0.94987  0.59256  0.49742  Biso   1.000  C
  C3       1.0000 0.90156  0.54129  0.59096  Biso   1.000  C
  H1       1.0000 0.93261  0.60711  0.45877  Biso   1.000  H
  C4       1.0000 0.04810  0.60124  0.52013  Biso   1.000  C
  H2       1.0000 0.85047  0.52040  0.61460  Biso   1.000  H
  C5       1.0000 0.00127  0.55161  0.61398  Biso   1.000  C
  C6       1.0000 0.07587  0.58145  0.57733  Biso   1.000  C
  N2       1.0000 0.12648  0.63536  0.48290  Biso   1.000  N
  C7       1.0000 0.02639  0.53002  0.67844  Biso   1.000  C
  H3       1.0000 0.14411  0.58812  0.59118  Biso   1.000  H
  O3       1.0000 0.21030  0.65039  0.50534  Biso   1.000  O
  O4       1.0000 0.10280  0.64960  0.43270  Biso   1.000  O
  C8       1.0000 0.93299  0.54542  0.71598  Biso   1.000  C
  C9       1.0000 0.04698  0.44934  0.67818  Biso   1.000  C
  C10      1.0000 0.12337  0.56812  0.70089  Biso   1.000  C
  C11      1.0000 0.87620  0.50368  0.75286  Biso   1.000  C
  N3       1.0000 0.88411  0.61023  0.71448  Biso   1.000  N
  H4       1.0000 0.98599  0.42479  0.66339  Biso   1.000  H
  H5       1.0000 0.10516  0.43908  0.65281  Biso   1.000  H
  H6       1.0000 0.06256  0.43352  0.71820  Biso   1.000  H
  C12      1.0000 0.21546  0.54283  0.72240  Biso   1.000  C
  N4       1.0000 0.13163  0.64071  0.69947  Biso   1.000  N
  C13      1.0000 0.79278  0.54426  0.77393  Biso   1.000  C
  H7       1.0000 0.89025  0.45622  0.76247  Biso   1.000  H
  C14      1.0000 0.79817  0.61002  0.74927  Biso   1.000  C
  H8       1.0000 0.90516  0.64647  0.69420  Biso   1.000  H
  H9       1.0000 0.23239  0.49500  0.72860  Biso   1.000  H
  C15      1.0000 0.28056  0.60129  0.73373  Biso   1.000  C
  C16      1.0000 0.22817  0.66187  0.71913  Biso   1.000  C
  H10      1.0000 0.08270  0.66928  0.68778  Biso   1.000  H
  H11      1.0000 0.74206  0.52860  0.80049  Biso   1.000  H
  C17      1.0000 0.72291  0.67123  0.75224  Biso   1.000  C
  H12      1.0000 0.34860  0.59902  0.74888  Biso   1.000  H
  C18      1.0000 0.26289  0.73816  0.71691  Biso   1.000  C
  C19      1.0000 0.76850  0.73552  0.78341  Biso   1.000  C
  C20      1.0000 0.62689  0.64721  0.78637  Biso   1.000  C
  C21      1.0000 0.68859  0.69250  0.68858  Biso   1.000  C
  C22      1.0000 0.20011  0.78578  0.75636  Biso   1.000  C
  C23      1.0000 0.25487  0.76562  0.65219  Biso   1.000  C
  C24      1.0000 0.37754  0.74197  0.73639  Biso   1.000  C
  C25      1.0000 0.73469  0.77393  0.83104  Biso   1.000  C
  N5       1.0000 0.85339  0.77086  0.76198  Biso   1.000  N
  H13      1.0000 0.57769  0.68578  0.78836  Biso   1.000  H
  H14      1.0000 0.59506  0.60732  0.76618  Biso   1.000  H
  H15      1.0000 0.64727  0.63319  0.82617  Biso   1.000  H
  H16      1.0000 0.74838  0.70811  0.66649  Biso   1.000  H
  H17      1.0000 0.65738  0.65208  0.66888  Biso   1.000  H
  H18      1.0000 0.63846  0.73070  0.69057  Biso   1.000  H
  C26      1.0000 0.22696  0.82366  0.80621  Biso   1.000  C
  N6       1.0000 0.09921  0.80440  0.74321  Biso   1.000  N
  H19      1.0000 0.18330  0.76340  0.63878  Biso   1.000  H
  H20      1.0000 0.27907  0.81408  0.65060  Biso   1.000  H
  H21      1.0000 0.29718  0.73631  0.62691  Biso   1.000  H
  H22      1.0000 0.41920  0.71430  0.70947  Biso   1.000  H
  H23      1.0000 0.40045  0.79091  0.73590  Biso   1.000  H
  H24      1.0000 0.38507  0.72319  0.77619  Biso   1.000  H
  C27      1.0000 0.79861  0.83392  0.83764  Biso   1.000  C
  H25      1.0000 0.67850  0.76218  0.85517  Biso   1.000  H
  C28      1.0000 0.87177  0.83175  0.79456  Biso   1.000  C
  H26      1.0000 0.89027  0.75689  0.73219  Biso   1.000  H
  H27      1.0000 0.29145  0.82191  0.82577  Biso   1.000  H
  C29      1.0000 0.14152  0.86588  0.82320  Biso   1.000  C
  C30      1.0000 0.06307  0.85276  0.78327  Biso   1.000  C
  H28      1.0000 0.06332  0.78768  0.71350  Biso   1.000  H
  H29      1.0000 0.79191  0.86932  0.86659  Biso   1.000  H
  C31      1.0000 0.95496  0.88424  0.77743  Biso   1.000  C
  H30      1.0000 0.13906  0.89688  0.85570  Biso   1.000  H
  C32      1.0000 0.94710  0.95016  0.81825  Biso   1.000  C
  C33      1.0000 0.93689  0.91038  0.71319  Biso   1.000  C
  H31      1.0000 0.95465  0.93561  0.85920  Biso   1.000  H
  H32      1.0000 0.88010  0.97249  0.81240  Biso   1.000  H
  H33      1.0000 0.00141  0.98339  0.80851  Biso   1.000  H
  C34      1.0000 0.84371  0.90096  0.68362  Biso   1.000  C
  C35      1.0000 0.01545  0.94720  0.68490  Biso   1.000  C
  C36      1.0000 0.83035  0.92805  0.62700  Biso   1.000  C
  H34      1.0000 0.78949  0.87630  0.70190  Biso   1.000  H
  C37      1.0000 0.99806  0.97328  0.62819  Biso   1.000  C
  H35      1.0000 0.07969  0.95429  0.70399  Biso   1.000  H
  C38      1.0000 0.90618  0.96439  0.59765  Biso   1.000  C
  N7       1.0000 0.72819  0.91873  0.59707  Biso   1.000  N
  N8       1.0000 0.08225  0.01227  0.59884  Biso   1.000  N
  H36      1.0000 0.89597  0.98212  0.55909  Biso   1.000  H
  O5       1.0000 0.71051  0.95397  0.55258  Biso   1.000  O
  O6       1.0000 0.66668  0.87710  0.61832  Biso   1.000  O
  O7       1.0000 0.06882  0.03476  0.54992  Biso   1.000  O
  O8       1.0000 0.16321  0.01910  0.62492  Biso   1.000  O
  O9       1.0000 0.29072  0.47892  0.45762  Biso   1.000  O
  N9       1.0000 0.22848  0.44865  0.48901  Biso   1.000  N
  C39      1.0000 0.12221  0.43834  0.46656  Biso   1.000  C
  O10      1.0000 0.25013  0.42574  0.53846  Biso   1.000  O
  C40      1.0000 0.09838  0.45871  0.40901  Biso   1.000  C
  C41      1.0000 0.05007  0.40744  0.50260  Biso   1.000  C
  C42      1.0000 0.99868  0.44839  0.38599  Biso   1.000  C
  H37      1.0000 0.14947  0.47960  0.38537  Biso   1.000  H
  C43      1.0000 0.95192  0.39876  0.47984  Biso   1.000  C
  H38      1.0000 0.06741  0.39289  0.54120  Biso   1.000  H
  C44      1.0000 0.97363  0.46992  0.32153  Biso   1.000  C
  C45      1.0000 0.92408  0.41850  0.42269  Biso   1.000  C
  N10      1.0000 0.87354  0.36464  0.51708  Biso   1.000  N
  C46      1.0000 0.06703  0.45458  0.28399  Biso   1.000  C
  C47      1.0000 0.95297  0.55066  0.32180  Biso   1.000  C
  C48      1.0000 0.87657  0.43188  0.29909  Biso   1.000  C
  H39      1.0000 0.85591  0.41188  0.40879  Biso   1.000  H
  O11      1.0000 0.78972  0.34961  0.49463  Biso   1.000  O
  O12      1.0000 0.89722  0.35040  0.56728  Biso   1.000  O
  N11      1.0000 0.11591  0.38971  0.28550  Biso   1.000  N
  C49      1.0000 0.12382  0.49632  0.24712  Biso   1.000  C
  H40      1.0000 0.01403  0.57521  0.33659  Biso   1.000  H
  H41      1.0000 0.89479  0.56092  0.34721  Biso   1.000  H
  H42      1.0000 0.93739  0.56648  0.28178  Biso   1.000  H
  C50      1.0000 0.78448  0.45717  0.27757  Biso   1.000  C
  N12      1.0000 0.86839  0.35929  0.30051  Biso   1.000  N
  C51      1.0000 0.20177  0.38998  0.25070  Biso   1.000  C
  H43      1.0000 0.09479  0.35347  0.30577  Biso   1.000  H
  C52      1.0000 0.20716  0.45574  0.22604  Biso   1.000  C
  H44      1.0000 0.10969  0.54378  0.23751  Biso   1.000  H
  H45      1.0000 0.76764  0.50500  0.27138  Biso   1.000  H
  C53      1.0000 0.71938  0.39871  0.26624  Biso   1.000  C
  C54      1.0000 0.77177  0.33813  0.28085  Biso   1.000  C
  H46      1.0000 0.91732  0.33072  0.31219  Biso   1.000  H
  C55      1.0000 0.27711  0.32877  0.24774  Biso   1.000  C
  H47      1.0000 0.25789  0.47140  0.19948  Biso   1.000  H
  H48      1.0000 0.65142  0.40098  0.25110  Biso   1.000  H
  C56      1.0000 0.73713  0.26184  0.28306  Biso   1.000  C
  C57      1.0000 0.23152  0.26448  0.21661  Biso   1.000  C
  C58      1.0000 0.37313  0.35279  0.21360  Biso   1.000  C
  C59      1.0000 0.31136  0.30744  0.31140  Biso   1.000  C
  C60      1.0000 0.79991  0.21422  0.24362  Biso   1.000  C
  C61      1.0000 0.74507  0.23438  0.34779  Biso   1.000  C
  C62      1.0000 0.62240  0.25798  0.26358  Biso   1.000  C
  C63      1.0000 0.26533  0.22607  0.16894  Biso   1.000  C
  N13      1.0000 0.14655  0.22914  0.23800  Biso   1.000  N
  H49      1.0000 0.42233  0.31422  0.21161  Biso   1.000  H
  H50      1.0000 0.40489  0.39268  0.23379  Biso   1.000  H
  H51      1.0000 0.35268  0.36681  0.17380  Biso   1.000  H
  H52      1.0000 0.25156  0.29189  0.33349  Biso   1.000  H
  H53      1.0000 0.34256  0.34792  0.33110  Biso   1.000  H
  H54      1.0000 0.36148  0.26930  0.30940  Biso   1.000  H
  N14      1.0000 0.90074  0.19560  0.25677  Biso   1.000  N
  C64      1.0000 0.77299  0.17634  0.19382  Biso   1.000  C
  H55      1.0000 0.81672  0.23660  0.36120  Biso   1.000  H
  H56      1.0000 0.72087  0.18592  0.34938  Biso   1.000  H
  H57      1.0000 0.70284  0.26369  0.37311  Biso   1.000  H
  H58      1.0000 0.58082  0.28570  0.29050  Biso   1.000  H
  H59      1.0000 0.59950  0.20909  0.26412  Biso   1.000  H
  H60      1.0000 0.61488  0.27681  0.22379  Biso   1.000  H
  C65      1.0000 0.20141  0.16602  0.16234  Biso   1.000  C
  H61      1.0000 0.32152  0.23782  0.14481  Biso   1.000  H
  C66      1.0000 0.12818  0.16825  0.20541  Biso   1.000  C
  H62      1.0000 0.10967  0.24311  0.26779  Biso   1.000  H
  C67      1.0000 0.93687  0.14724  0.21670  Biso   1.000  C
  H63      1.0000 0.93671  0.21232  0.28652  Biso   1.000  H
  C68      1.0000 0.85850  0.13412  0.17677  Biso   1.000  C
  H64      1.0000 0.70850  0.17809  0.17420  Biso   1.000  H
  H65      1.0000 0.20811  0.13068  0.13339  Biso   1.000  H
  C69      1.0000 0.04498  0.11576  0.22255  Biso   1.000  C
  H66      1.0000 0.86088  0.10312  0.14428  Biso   1.000  H
  C70      1.0000 0.05292  0.04984  0.18177  Biso   1.000  C
  C71      1.0000 0.06313  0.08962  0.28678  Biso   1.000  C
  H67      1.0000 0.04530  0.06439  0.14078  Biso   1.000  H
  H68      1.0000 0.11993  0.02751  0.18762  Biso   1.000  H
  H69      1.0000 0.99861  0.01661  0.19151  Biso   1.000  H
  C72      1.0000 0.15631  0.09904  0.31636  Biso   1.000  C
  C73      1.0000 0.98450  0.05280  0.31507  Biso   1.000  C
  C74      1.0000 0.16959  0.07195  0.37302  Biso   1.000  C
  H70      1.0000 0.21053  0.12370  0.29812  Biso   1.000  H
  C75      1.0000 0.00188  0.02672  0.37178  Biso   1.000  C
  H71      1.0000 0.92033  0.04571  0.29599  Biso   1.000  H
  C76      1.0000 0.09376  0.03555  0.40237  Biso   1.000  C
  N15      1.0000 0.27183  0.08127  0.40290  Biso   1.000  N
  N16      1.0000 0.91769  0.98773  0.40113  Biso   1.000  N
  H72      1.0000 0.10397  0.01788  0.44089  Biso   1.000  H
  O13      1.0000 0.28951  0.04603  0.44739  Biso   1.000  O
  O14      1.0000 0.33327  0.12290  0.38165  Biso   1.000  O
  O15      1.0000 0.93120  0.96519  0.45005  Biso   1.000  O
  O16      1.0000 0.83681  0.98090  0.37510  Biso   1.000  O
  C77      1.0000 0.55289  0.45013  0.68176  Biso   1.000  C
  C78      1.0000 0.54495  0.38421  0.72253  Biso   1.000  C
  H73      1.0000 0.54527  0.43559  0.64077  Biso   1.000  H
  H74      1.0000 0.49858  0.48341  0.69150  Biso   1.000  H
  H75      1.0000 0.61990  0.47251  0.68761  Biso   1.000  H
  C79      1.0000 0.43692  0.35279  0.71669  Biso   1.000  C
  C80      1.0000 0.56310  0.41040  0.78677  Biso   1.000  C
  C81      1.0000 0.62822  0.33178  0.70540  Biso   1.000  C
  C82      1.0000 0.35848  0.36585  0.67676  Biso   1.000  C
  N17      1.0000 0.40078  0.30438  0.75676  Biso   1.000  N
  C83      1.0000 0.48447  0.44717  0.81506  Biso   1.000  C
  C84      1.0000 0.65628  0.40093  0.81634  Biso   1.000  C
  C85      1.0000 0.70138  0.33395  0.66233  Biso   1.000  C
  N18      1.0000 0.64660  0.27083  0.73798  Biso   1.000  N
  C86      1.0000 0.27296  0.32363  0.69380  Biso   1.000  C
  H76      1.0000 0.36093  0.39691  0.64431  Biso   1.000  H
  C87      1.0000 0.29988  0.28575  0.74361  Biso   1.000  C
  H77      1.0000 0.43668  0.28771  0.78650  Biso   1.000  H
  H78      1.0000 0.42030  0.45431  0.79598  Biso   1.000  H
  C88      1.0000 0.50193  0.47331  0.87177  Biso   1.000  C
  C89      1.0000 0.66956  0.42807  0.87301  Biso   1.000  C
  H79      1.0000 0.71050  0.37628  0.79810  Biso   1.000  H
  H80      1.0000 0.70808  0.36929  0.63337  Biso   1.000  H
  C90      1.0000 0.76530  0.27395  0.66892  Biso   1.000  C
  C91      1.0000 0.73149  0.23549  0.71660  Biso   1.000  C
  H81      1.0000 0.60972  0.25692  0.76778  Biso   1.000  H
  H82      1.0000 0.20847  0.32189  0.67419  Biso   1.000  H
  C92      1.0000 0.23710  0.23819  0.78305  Biso   1.000  C
  C93      1.0000 0.59381  0.46442  0.90236  Biso   1.000  C
  N19      1.0000 0.41766  0.51230  0.90112  Biso   1.000  N
  N20      1.0000 0.77180  0.41871  0.90289  Biso   1.000  N
  H83      1.0000 0.82149  0.26221  0.64480  Biso   1.000  H
  C94      1.0000 0.77709  0.17126  0.74772  Biso   1.000  C
  C95      1.0000 0.27182  0.16190  0.78084  Biso   1.000  C
  C96      1.0000 0.24512  0.26559  0.84777  Biso   1.000  C
  C97      1.0000 0.12237  0.24200  0.76357  Biso   1.000  C
  H84      1.0000 0.60402  0.48209  0.94088  Biso   1.000  H
  O17      1.0000 0.43117  0.53479  0.95008  Biso   1.000  O
  O18      1.0000 0.33679  0.51907  0.87509  Biso   1.000  O
  O19      1.0000 0.78949  0.45400  0.94738  Biso   1.000  O
  O20      1.0000 0.83332  0.37712  0.88164  Biso   1.000  O
  C98      1.0000 0.87310  0.14719  0.71359  Biso   1.000  C
  C99      1.0000 0.81141  0.19253  0.81138  Biso   1.000  C
  C100     1.0000 0.70182  0.10999  0.75069  Biso   1.000  C
  C101     1.0000 0.21943  0.10132  0.76623  Biso   1.000  C
  N21      1.0000 0.36836  0.14073  0.80049  Biso   1.000  N
  H85      1.0000 0.31669  0.26337  0.86119  Biso   1.000  H
  H86      1.0000 0.22092  0.31411  0.84937  Biso   1.000  H
  H87      1.0000 0.20281  0.23628  0.87310  Biso   1.000  H
  H88      1.0000 0.08079  0.21427  0.79049  Biso   1.000  H
  H89      1.0000 0.09947  0.29088  0.76410  Biso   1.000  H
  H90      1.0000 0.11492  0.22322  0.72377  Biso   1.000  H
  H91      1.0000 0.92230  0.18581  0.71160  Biso   1.000  H
  H92      1.0000 0.90486  0.10730  0.73378  Biso   1.000  H
  H93      1.0000 0.85265  0.13322  0.67379  Biso   1.000  H
  H94      1.0000 0.75161  0.20808  0.83348  Biso   1.000  H
  H95      1.0000 0.84261  0.15211  0.83108  Biso   1.000  H
  H96      1.0000 0.86146  0.23068  0.80939  Biso   1.000  H
  C102     1.0000 0.70721  0.04423  0.72603  Biso   1.000  C
  N22      1.0000 0.61588  0.11026  0.78549  Biso   1.000  N
  C103     1.0000 0.28453  0.04280  0.77756  Biso   1.000  C
  H97      1.0000 0.15139  0.09899  0.75109  Biso   1.000  H
  C104     1.0000 0.37662  0.06814  0.79908  Biso   1.000  C
  H98      1.0000 0.41729  0.16930  0.81218  Biso   1.000  H
  C105     1.0000 0.62379  0.00365  0.74715  Biso   1.000  C
  H99      1.0000 0.75786  0.02862  0.69947  Biso   1.000  H
  C106     1.0000 0.56700  0.04539  0.78398  Biso   1.000  C
  H100     1.0000 0.59476  0.14650  0.80581  Biso   1.000  H
  H101     1.0000 0.26761  0.99497  0.77136  Biso   1.000  H
  C107     1.0000 0.47360  0.03005  0.82152  Biso   1.000  C
  H102     1.0000 0.60966  0.95619  0.73750  Biso   1.000  H
  C108     1.0000 0.49873  0.05158  0.88598  Biso   1.000  C
  C109     1.0000 0.45302  0.94931  0.82179  Biso   1.000  C
  C110     1.0000 0.42413  0.08148  0.92268  Biso   1.000  C
  C111     1.0000 0.59835  0.04127  0.90900  Biso   1.000  C
  H103     1.0000 0.51400  0.92482  0.83657  Biso   1.000  H
  H104     1.0000 0.39476  0.93910  0.84720  Biso   1.000  H
  H105     1.0000 0.43736  0.93350  0.78177  Biso   1.000  H
  H106     1.0000 0.35588  0.08809  0.90878  Biso   1.000  H
  C112     1.0000 0.45189  0.10126  0.97983  Biso   1.000  C
  C113     1.0000 0.62218  0.06164  0.96655  Biso   1.000  C
  H107     1.0000 0.64952  0.02042  0.88540  Biso   1.000  H
  C114     1.0000 0.55012  0.09253  0.00263  Biso   1.000  C
  N23      1.0000 0.37351  0.13539  0.01711  Biso   1.000  N
  N24      1.0000 0.72845  0.05132  0.98900  Biso   1.000  N
  H108     1.0000 0.56738  0.10708  0.04124  Biso   1.000  H
  O21      1.0000 0.28969  0.15042  0.99462  Biso   1.000  O
  O22      1.0000 0.39719  0.14962  0.06731  Biso   1.000  O
  O23      1.0000 0.79069  0.02111  0.95761  Biso   1.000  O
  O24      1.0000 0.75011  0.07423  0.03849  Biso   1.000  O
  C115     1.0000 0.44713  0.54987  0.31821  Biso   1.000  C
  C116     1.0000 0.45499  0.61573  0.27744  Biso   1.000  C
  H109     1.0000 0.45468  0.56441  0.35921  Biso   1.000  H
  H110     1.0000 0.50136  0.51659  0.30847  Biso   1.000  H
  H111     1.0000 0.38012  0.52749  0.31241  Biso   1.000  H
  C117     1.0000 0.56310  0.64721  0.28329  Biso   1.000  C
  C118     1.0000 0.43692  0.58960  0.21321  Biso   1.000  C
  C119     1.0000 0.37180  0.66822  0.29457  Biso   1.000  C
  C120     1.0000 0.64147  0.63415  0.32322  Biso   1.000  C
  N25      1.0000 0.59924  0.69562  0.24322  Biso   1.000  N
  C121     1.0000 0.51547  0.55283  0.18492  Biso   1.000  C
  C122     1.0000 0.34366  0.59907  0.18363  Biso   1.000  C
  C123     1.0000 0.29856  0.66605  0.33765  Biso   1.000  C
  N26      1.0000 0.35342  0.72911  0.26199  Biso   1.000  N
  C124     1.0000 0.72698  0.67637  0.30617  Biso   1.000  C
  H112     1.0000 0.63909  0.60309  0.35571  Biso   1.000  H
  C125     1.0000 0.70006  0.71425  0.25637  Biso   1.000  C
  H113     1.0000 0.56327  0.71229  0.21352  Biso   1.000  H
  H114     1.0000 0.57972  0.54569  0.20400  Biso   1.000  H
  C126     1.0000 0.49809  0.52669  0.12821  Biso   1.000  C
  C127     1.0000 0.33038  0.57193  0.12697  Biso   1.000  C
  H115     1.0000 0.28952  0.62367  0.20192  Biso   1.000  H
  H116     1.0000 0.29186  0.63071  0.36660  Biso   1.000  H
  C128     1.0000 0.23472  0.72605  0.33105  Biso   1.000  C
  C129     1.0000 0.26853  0.76451  0.28337  Biso   1.000  C
  H117     1.0000 0.39030  0.74308  0.23220  Biso   1.000  H
  H118     1.0000 0.79148  0.67811  0.32578  Biso   1.000  H
  C130     1.0000 0.76292  0.76181  0.21692  Biso   1.000  C
  C131     1.0000 0.40621  0.53558  0.09766  Biso   1.000  C
  N27      1.0000 0.58228  0.48770  0.09886  Biso   1.000  N
  N28      1.0000 0.22822  0.58129  0.09708  Biso   1.000  N
  H119     1.0000 0.17853  0.73779  0.35518  Biso   1.000  H
  C132     1.0000 0.22293  0.82874  0.25225  Biso   1.000  C
  C133     1.0000 0.72820  0.83810  0.21914  Biso   1.000  C
  C134     1.0000 0.75490  0.73441  0.15220  Biso   1.000  C
  C135     1.0000 0.87757  0.75800  0.23640  Biso   1.000  C
  H120     1.0000 0.39600  0.51791  0.05910  Biso   1.000  H
  O25      1.0000 0.56877  0.46521  0.04994  Biso   1.000  O
  O26      1.0000 0.66316  0.48087  0.12489  Biso   1.000  O
  O27      1.0000 0.21053  0.54600  0.05259  Biso   1.000  O
  O28      1.0000 0.16670  0.62288  0.11833  Biso   1.000  O
  C136     1.0000 0.12692  0.85281  0.28638  Biso   1.000  C
  C137     1.0000 0.18861  0.80747  0.18859  Biso   1.000  C
  C138     1.0000 0.29820  0.89001  0.24929  Biso   1.000  C
  C139     1.0000 0.78059  0.89868  0.23375  Biso   1.000  C
  N29      1.0000 0.63158  0.85927  0.19948  Biso   1.000  N
  H121     1.0000 0.68325  0.73657  0.13879  Biso   1.000  H
  H122     1.0000 0.77910  0.68589  0.15061  Biso   1.000  H
  H123     1.0000 0.79721  0.76372  0.12688  Biso   1.000  H
  H124     1.0000 0.91915  0.78567  0.20949  Biso   1.000  H
  H125     1.0000 0.90048  0.70912  0.23592  Biso   1.000  H
  H126     1.0000 0.88510  0.77678  0.27620  Biso   1.000  H
  H127     1.0000 0.07772  0.81419  0.28838  Biso   1.000  H
  H128     1.0000 0.09509  0.89270  0.26620  Biso   1.000  H
  H129     1.0000 0.14729  0.86678  0.32618  Biso   1.000  H
  H130     1.0000 0.24841  0.79192  0.16650  Biso   1.000  H
  H131     1.0000 0.15741  0.84789  0.16889  Biso   1.000  H
  H132     1.0000 0.13849  0.76927  0.19058  Biso   1.000  H
  C140     1.0000 0.29281  0.95577  0.27394  Biso   1.000  C
  N30      1.0000 0.38414  0.88974  0.21449  Biso   1.000  N
  C141     1.0000 0.71549  0.95720  0.22241  Biso   1.000  C
  H133     1.0000 0.84855  0.90101  0.24889  Biso   1.000  H
  C142     1.0000 0.62340  0.93186  0.20090  Biso   1.000  C
  H134     1.0000 0.58265  0.83070  0.18779  Biso   1.000  H
  H135     1.0000 0.24208  0.97138  0.30051  Biso   1.000  H
  C143     1.0000 0.37623  0.99635  0.25287  Biso   1.000  C
  C144     1.0000 0.43302  0.95455  0.21599  Biso   1.000  C
  H136     1.0000 0.40518  0.85350  0.19421  Biso   1.000  H
  H137     1.0000 0.73241  0.00497  0.22861  Biso   1.000  H
  C145     1.0000 0.52642  0.96995  0.17845  Biso   1.000  C
  H138     1.0000 0.39028  0.04381  0.26248  Biso   1.000  H
  C146     1.0000 0.50129  0.94842  0.11400  Biso   1.000  C
  C147     1.0000 0.54701  0.05069  0.17819  Biso   1.000  C
  C148     1.0000 0.57589  0.91852  0.07734  Biso   1.000  C
  C149     1.0000 0.40159  0.95873  0.09098  Biso   1.000  C
  H139     1.0000 0.48602  0.07518  0.16340  Biso   1.000  H
  H140     1.0000 0.60518  0.06090  0.15278  Biso   1.000  H
  H141     1.0000 0.56259  0.06650  0.21821  Biso   1.000  H
  H142     1.0000 0.64406  0.91191  0.09120  Biso   1.000  H
  C150     1.0000 0.54813  0.89874  0.02014  Biso   1.000  C
  C151     1.0000 0.37776  0.93831  0.03342  Biso   1.000  C
  H143     1.0000 0.35050  0.97958  0.11462  Biso   1.000  H
  C152     1.0000 0.44990  0.90747  0.99734  Biso   1.000  C
  N31      1.0000 0.62651  0.86461  0.98287  Biso   1.000  N
  N32      1.0000 0.27149  0.94868  0.01098  Biso   1.000  N
  H144     1.0000 0.43256  0.89292  0.95874  Biso   1.000  H
  O29      1.0000 0.71026  0.84958  0.00536  Biso   1.000  O
  O30      1.0000 0.60275  0.85038  0.93266  Biso   1.000  O
  O31      1.0000 0.20933  0.97889  0.04237  Biso   1.000  O
  O32      1.0000 0.24991  0.92577  0.96148  Biso   1.000  O
