data_image0
_cell_length_a       15.704
_cell_length_b       15.704
_cell_length_c       8.604
_cell_angle_alpha    90
_cell_angle_beta     90
_cell_angle_gamma    90

_symmetry_space_group_name_H-M    "P 1"
_symmetry_int_tables_number       1

loop_
  _symmetry_equiv_pos_as_xyz
  'x, y, z'

loop_
  _atom_site_label
  _atom_site_occupancy
  _atom_site_fract_x
  _atom_site_fract_y
  _atom_site_fract_z
  _atom_site_thermal_displace_type
  _atom_site_B_iso_or_equiv
  _atom_site_type_symbol
  S1       1.0000 0.57482  0.57482  0.70793  Biso   1.000  S
  C1       1.0000 0.67352  0.54992  0.61646  Biso   1.000  C
  C2       1.0000 0.54992  0.67352  0.61646  Biso   1.000  C
  C3       1.0000 0.67480  0.50751  0.47501  Biso   1.000  C
  C4       1.0000 0.75000  0.57399  0.68898  Biso   1.000  C
  C5       1.0000 0.57399  0.75000  0.68898  Biso   1.000  C
  C6       1.0000 0.50751  0.67480  0.47501  Biso   1.000  C
  C7       1.0000 0.75000  0.48529  0.39795  Biso   1.000  C
  H1       1.0000 0.62201  0.49268  0.42875  Biso   1.000  H
  C8       1.0000 0.82648  0.54992  0.61646  Biso   1.000  C
  O1       1.0000 0.75000  0.62022  0.81915  Biso   1.000  O
  C9       1.0000 0.54992  0.82648  0.61646  Biso   1.000  C
  O2       1.0000 0.62022  0.75000  0.81915  Biso   1.000  O
  C10      1.0000 0.48529  0.75000  0.39795  Biso   1.000  C
  H2       1.0000 0.49268  0.62201  0.42875  Biso   1.000  H
  C11      1.0000 0.75000  0.44097  0.23605  Biso   1.000  C
  C12      1.0000 0.82520  0.50751  0.47501  Biso   1.000  C
  S2       1.0000 0.92518  0.57482  0.70793  Biso   1.000  S
  S3       1.0000 0.57482  0.92518  0.70793  Biso   1.000  S
  C13      1.0000 0.50751  0.82520  0.47501  Biso   1.000  C
  C14      1.0000 0.44097  0.75000  0.23605  Biso   1.000  C
  C15      1.0000 0.68600  0.36398  0.24605  Biso   1.000  C
  C16      1.0000 0.81400  0.36398  0.24605  Biso   1.000  C
  C17      1.0000 0.67601  0.48102  0.13703  Biso   1.000  C
  C18      1.0000 0.82399  0.48102  0.13703  Biso   1.000  C
  H3       1.0000 0.87799  0.49268  0.42875  Biso   1.000  H
  C19      1.0000 0.95008  0.67352  0.61646  Biso   1.000  C
  C20      1.0000 0.67352  0.95008  0.61646  Biso   1.000  C
  H4       1.0000 0.49268  0.87799  0.42875  Biso   1.000  H
  C21      1.0000 0.36398  0.68600  0.24605  Biso   1.000  C
  C22      1.0000 0.36398  0.81400  0.24605  Biso   1.000  C
  C23      1.0000 0.48102  0.82399  0.13703  Biso   1.000  C
  C24      1.0000 0.48102  0.67601  0.13703  Biso   1.000  C
  C25      1.0000 0.92601  0.75000  0.68898  Biso   1.000  C
  C26      1.0000 0.99249  0.67480  0.47501  Biso   1.000  C
  C27      1.0000 0.75000  0.92601  0.68898  Biso   1.000  C
  C28      1.0000 0.67480  0.99249  0.47501  Biso   1.000  C
  C29      1.0000 0.95008  0.82648  0.61646  Biso   1.000  C
  O3       1.0000 0.87978  0.75000  0.81915  Biso   1.000  O
  C30      1.0000 0.01471  0.75000  0.39795  Biso   1.000  C
  H5       1.0000 0.00732  0.62201  0.42875  Biso   1.000  H
  C31      1.0000 0.82648  0.95008  0.61646  Biso   1.000  C
  O4       1.0000 0.75000  0.87978  0.81915  Biso   1.000  O
  C32      1.0000 0.75000  0.01471  0.39795  Biso   1.000  C
  H6       1.0000 0.62201  0.00732  0.42875  Biso   1.000  H
  S4       1.0000 0.92518  0.92518  0.70793  Biso   1.000  S
  C33      1.0000 0.99249  0.82520  0.47501  Biso   1.000  C
  C34      1.0000 0.05903  0.75000  0.23605  Biso   1.000  C
  C35      1.0000 0.82520  0.99249  0.47501  Biso   1.000  C
  C36      1.0000 0.75000  0.05903  0.23605  Biso   1.000  C
  H7       1.0000 0.00732  0.87799  0.42875  Biso   1.000  H
  C37      1.0000 0.13602  0.81400  0.24605  Biso   1.000  C
  C38      1.0000 0.13602  0.68600  0.24605  Biso   1.000  C
  C39      1.0000 0.01898  0.67601  0.13703  Biso   1.000  C
  C40      1.0000 0.01898  0.82399  0.13703  Biso   1.000  C
  H8       1.0000 0.87799  0.00732  0.42875  Biso   1.000  H
  C41      1.0000 0.68600  0.13602  0.24605  Biso   1.000  C
  C42      1.0000 0.81400  0.13602  0.24605  Biso   1.000  C
  C43      1.0000 0.82399  0.01898  0.13703  Biso   1.000  C
  C44      1.0000 0.67601  0.01898  0.13703  Biso   1.000  C
  S5       1.0000 0.42518  0.42518  0.29207  Biso   1.000  S
  C45      1.0000 0.45008  0.32648  0.38354  Biso   1.000  C
  C46      1.0000 0.32648  0.45008  0.38354  Biso   1.000  C
  C47      1.0000 0.42601  0.25000  0.31102  Biso   1.000  C
  C48      1.0000 0.49249  0.32520  0.52499  Biso   1.000  C
  C49      1.0000 0.25000  0.42601  0.31102  Biso   1.000  C
  C50      1.0000 0.32520  0.49249  0.52499  Biso   1.000  C
  O5       1.0000 0.37978  0.25000  0.18085  Biso   1.000  O
  C51      1.0000 0.45008  0.17352  0.38354  Biso   1.000  C
  C52      1.0000 0.51471  0.25000  0.60205  Biso   1.000  C
  H9       1.0000 0.50732  0.37799  0.57125  Biso   1.000  H
  C53      1.0000 0.17352  0.45008  0.38354  Biso   1.000  C
  O6       1.0000 0.25000  0.37978  0.18085  Biso   1.000  O
  C54      1.0000 0.25000  0.51471  0.60205  Biso   1.000  C
  H10      1.0000 0.37799  0.50732  0.57125  Biso   1.000  H
  S6       1.0000 0.42518  0.07482  0.29207  Biso   1.000  S
  C55      1.0000 0.49249  0.17480  0.52499  Biso   1.000  C
  C56      1.0000 0.55903  0.25000  0.76395  Biso   1.000  C
  S7       1.0000 0.07482  0.42518  0.29207  Biso   1.000  S
  C57      1.0000 0.17480  0.49249  0.52499  Biso   1.000  C
  C58      1.0000 0.25000  0.55903  0.76395  Biso   1.000  C
  C59      1.0000 0.32648  0.04992  0.38354  Biso   1.000  C
  H11      1.0000 0.50732  0.12201  0.57125  Biso   1.000  H
  C60      1.0000 0.63602  0.18600  0.75395  Biso   1.000  C
  C61      1.0000 0.63602  0.31400  0.75395  Biso   1.000  C
  C62      1.0000 0.51898  0.32399  0.86297  Biso   1.000  C
  C63      1.0000 0.51898  0.17601  0.86297  Biso   1.000  C
  C64      1.0000 0.04992  0.32648  0.38354  Biso   1.000  C
  H12      1.0000 0.12201  0.50732  0.57125  Biso   1.000  H
  C65      1.0000 0.31400  0.63602  0.75395  Biso   1.000  C
  C66      1.0000 0.18600  0.63602  0.75395  Biso   1.000  C
  C67      1.0000 0.17601  0.51898  0.86297  Biso   1.000  C
  C68      1.0000 0.32399  0.51898  0.86297  Biso   1.000  C
  C69      1.0000 0.25000  0.07399  0.31102  Biso   1.000  C
  C70      1.0000 0.32520  0.00751  0.52499  Biso   1.000  C
  C71      1.0000 0.07399  0.25000  0.31102  Biso   1.000  C
  C72      1.0000 0.00751  0.32520  0.52499  Biso   1.000  C
  C73      1.0000 0.17352  0.04992  0.38354  Biso   1.000  C
  O7       1.0000 0.25000  0.12022  0.18085  Biso   1.000  O
  C74      1.0000 0.25000  0.98529  0.60205  Biso   1.000  C
  H13      1.0000 0.37799  0.99268  0.57125  Biso   1.000  H
  C75      1.0000 0.04992  0.17352  0.38354  Biso   1.000  C
  O8       1.0000 0.12022  0.25000  0.18085  Biso   1.000  O
  C76      1.0000 0.98529  0.25000  0.60205  Biso   1.000  C
  H14      1.0000 0.99268  0.37799  0.57125  Biso   1.000  H
  S8       1.0000 0.07482  0.07482  0.29207  Biso   1.000  S
  C77      1.0000 0.17480  0.00751  0.52499  Biso   1.000  C
  C78      1.0000 0.25000  0.94097  0.76395  Biso   1.000  C
  C79      1.0000 0.00751  0.17480  0.52499  Biso   1.000  C
  C80      1.0000 0.94097  0.25000  0.76395  Biso   1.000  C
  H15      1.0000 0.12201  0.99268  0.57125  Biso   1.000  H
  C81      1.0000 0.18600  0.86398  0.75395  Biso   1.000  C
  C82      1.0000 0.31400  0.86398  0.75395  Biso   1.000  C
  C83      1.0000 0.32399  0.98102  0.86297  Biso   1.000  C
  C84      1.0000 0.17601  0.98102  0.86297  Biso   1.000  C
  H16      1.0000 0.99268  0.12201  0.57125  Biso   1.000  H
  C85      1.0000 0.86398  0.31400  0.75395  Biso   1.000  C
  C86      1.0000 0.86398  0.18600  0.75395  Biso   1.000  C
  C87      1.0000 0.98102  0.17601  0.86297  Biso   1.000  C
  C88      1.0000 0.98102  0.32399  0.86297  Biso   1.000  C
