data_image0
_cell_length_a       14.908
_cell_length_b       14.908
_cell_length_c       18.268
_cell_angle_alpha    90
_cell_angle_beta     90
_cell_angle_gamma    120

_symmetry_space_group_name_H-M    "P 1"
_symmetry_int_tables_number       1

loop_
  _symmetry_equiv_pos_as_xyz
  'x, y, z'

loop_
  _atom_site_label
  _atom_site_occupancy
  _atom_site_fract_x
  _atom_site_fract_y
  _atom_site_fract_z
  _atom_site_thermal_displace_type
  _atom_site_B_iso_or_equiv
  _atom_site_type_symbol
  S1       1.0000 0.53051  0.50710  0.40108  Biso   1.000  S
  C1       1.0000 0.52821  0.44668  0.31629  Biso   1.000  C
  C2       1.0000 0.66158  0.56209  0.43021  Biso   1.000  C
  C3       1.0000 0.51003  0.34553  0.31498  Biso   1.000  C
  C4       1.0000 0.53733  0.49672  0.25000  Biso   1.000  C
  C5       1.0000 0.73832  0.65628  0.40180  Biso   1.000  C
  C6       1.0000 0.68622  0.51438  0.48538  Biso   1.000  C
  C7       1.0000 0.50299  0.29696  0.25000  Biso   1.000  C
  H1       1.0000 0.50248  0.30990  0.35970  Biso   1.000  H
  C8       1.0000 0.52821  0.44668  0.18371  Biso   1.000  C
  O1       1.0000 0.55610  0.59772  0.25000  Biso   1.000  O
  C9       1.0000 0.83847  0.70190  0.43048  Biso   1.000  C
  O2       1.0000 0.71512  0.70500  0.34831  Biso   1.000  O
  C10      1.0000 0.78651  0.56108  0.51243  Biso   1.000  C
  H2       1.0000 0.63447  0.44978  0.50471  Biso   1.000  H
  C11      1.0000 0.51003  0.34553  0.18502  Biso   1.000  C
  H3       1.0000 0.49296  0.22888  0.25000  Biso   1.000  H
  S2       1.0000 0.53051  0.50710  0.09892  Biso   1.000  S
  S3       1.0000 0.93609  0.82683  0.40048  Biso   1.000  S
  C12      1.0000 0.86111  0.65380  0.48478  Biso   1.000  C
  H4       1.0000 0.80337  0.52840  0.55031  Biso   1.000  H
  H5       1.0000 0.50248  0.30990  0.14030  Biso   1.000  H
  C13      1.0000 0.66158  0.56209  0.06979  Biso   1.000  C
  C14      1.0000 0.97582  0.79763  0.31722  Biso   1.000  C
  H6       1.0000 0.92951  0.68501  0.50378  Biso   1.000  H
  C15      1.0000 0.73832  0.65628  0.09820  Biso   1.000  C
  C16      1.0000 0.68622  0.51438  0.01462  Biso   1.000  C
  C17      1.0000 0.93902  0.81297  0.25000  Biso   1.000  C
  C18      1.0000 0.04812  0.76688  0.31580  Biso   1.000  C
  C19      1.0000 0.83847  0.70190  0.06952  Biso   1.000  C
  O3       1.0000 0.71512  0.70500  0.15169  Biso   1.000  O
  C20      1.0000 0.78651  0.56108  0.98757  Biso   1.000  C
  H7       1.0000 0.63447  0.44978  0.99529  Biso   1.000  H
  C21      1.0000 0.97582  0.79763  0.18278  Biso   1.000  C
  O4       1.0000 0.86509  0.84139  0.25000  Biso   1.000  O
  C22      1.0000 0.08200  0.75000  0.25000  Biso   1.000  C
  H8       1.0000 0.07475  0.75697  0.36030  Biso   1.000  H
  S4       1.0000 0.93609  0.82683  0.09952  Biso   1.000  S
  C23      1.0000 0.86111  0.65380  0.01522  Biso   1.000  C
  H9       1.0000 0.80337  0.52840  0.94969  Biso   1.000  H
  C24      1.0000 0.04812  0.76688  0.18420  Biso   1.000  C
  H10      1.0000 0.13098  0.72668  0.25000  Biso   1.000  H
  H11      1.0000 0.92951  0.68501  0.99622  Biso   1.000  H
  H12      1.0000 0.07475  0.75697  0.13970  Biso   1.000  H
  S5       1.0000 0.46950  0.49292  0.59892  Biso   1.000  S
  C25      1.0000 0.33843  0.43793  0.56979  Biso   1.000  C
  C26      1.0000 0.47176  0.55326  0.68371  Biso   1.000  C
  C27      1.0000 0.31375  0.48557  0.51462  Biso   1.000  C
  C28      1.0000 0.26165  0.34367  0.59820  Biso   1.000  C
  C29      1.0000 0.46268  0.50330  0.75000  Biso   1.000  C
  C30      1.0000 0.48998  0.65450  0.68502  Biso   1.000  C
  C31      1.0000 0.21350  0.43894  0.48757  Biso   1.000  C
  H13      1.0000 0.36550  0.55016  0.49529  Biso   1.000  H
  C32      1.0000 0.16154  0.29812  0.56952  Biso   1.000  C
  O5       1.0000 0.28489  0.29503  0.65169  Biso   1.000  O
  C33      1.0000 0.47176  0.55326  0.81629  Biso   1.000  C
  O6       1.0000 0.44391  0.40230  0.75000  Biso   1.000  O
  C34      1.0000 0.49698  0.70298  0.75000  Biso   1.000  C
  H14      1.0000 0.49753  0.69012  0.64030  Biso   1.000  H
  C35      1.0000 0.13890  0.34622  0.51522  Biso   1.000  C
  H15      1.0000 0.19664  0.47162  0.44969  Biso   1.000  H
  S6       1.0000 0.06392  0.17319  0.59952  Biso   1.000  S
  S7       1.0000 0.46950  0.49292  0.90108  Biso   1.000  S
  C36      1.0000 0.48998  0.65450  0.81498  Biso   1.000  C
  H16      1.0000 0.50701  0.77107  0.75000  Biso   1.000  H
  H17      1.0000 0.07050  0.31501  0.49622  Biso   1.000  H
  C37      1.0000 0.02419  0.20239  0.68278  Biso   1.000  C
  C38      1.0000 0.33843  0.43793  0.93021  Biso   1.000  C
  H18      1.0000 0.49753  0.69012  0.85970  Biso   1.000  H
  C39      1.0000 0.06096  0.18698  0.75000  Biso   1.000  C
  C40      1.0000 0.95185  0.23306  0.68420  Biso   1.000  C
  C41      1.0000 0.26165  0.34367  0.90180  Biso   1.000  C
  C42      1.0000 0.31375  0.48557  0.98538  Biso   1.000  C
  C43      1.0000 0.02419  0.20239  0.81722  Biso   1.000  C
  O7       1.0000 0.13492  0.15863  0.75000  Biso   1.000  O
  C44      1.0000 0.91801  0.25003  0.75000  Biso   1.000  C
  H19      1.0000 0.92522  0.24298  0.63970  Biso   1.000  H
  C45      1.0000 0.16154  0.29812  0.93048  Biso   1.000  C
  O8       1.0000 0.28489  0.29503  0.84831  Biso   1.000  O
  C46      1.0000 0.21350  0.43894  0.01243  Biso   1.000  C
  H20      1.0000 0.36550  0.55016  0.00471  Biso   1.000  H
  S8       1.0000 0.06392  0.17319  0.90048  Biso   1.000  S
  C47      1.0000 0.95185  0.23306  0.81580  Biso   1.000  C
  H21      1.0000 0.86899  0.27326  0.75000  Biso   1.000  H
  C48      1.0000 0.13890  0.34622  0.98478  Biso   1.000  C
  H22      1.0000 0.19664  0.47162  0.05031  Biso   1.000  H
  H23      1.0000 0.92522  0.24298  0.86030  Biso   1.000  H
  H24      1.0000 0.07050  0.31501  0.00378  Biso   1.000  H
  C49      1.0000 0.43890  0.22539  0.51243  Biso   1.000  C
  C50      1.0000 0.34619  0.20727  0.48478  Biso   1.000  C
  C51      1.0000 0.48562  0.17180  0.48538  Biso   1.000  C
  H25      1.0000 0.47160  0.27497  0.55031  Biso   1.000  H
  C52      1.0000 0.29812  0.13663  0.43048  Biso   1.000  C
  H26      1.0000 0.31505  0.24453  0.50378  Biso   1.000  H
  C53      1.0000 0.43795  0.09953  0.43021  Biso   1.000  C
  H27      1.0000 0.55024  0.18473  0.50471  Biso   1.000  H
  S9       1.0000 0.17317  0.10929  0.40048  Biso   1.000  S
  C54      1.0000 0.34374  0.08202  0.40180  Biso   1.000  C
  S10      1.0000 0.49291  0.02339  0.40108  Biso   1.000  S
  C55      1.0000 0.20241  0.17822  0.31722  Biso   1.000  C
  O9       1.0000 0.29501  0.01007  0.34831  Biso   1.000  O
  C56      1.0000 0.55328  0.08148  0.31629  Biso   1.000  C
  C57      1.0000 0.23308  0.28116  0.31580  Biso   1.000  C
  C58      1.0000 0.18704  0.12602  0.25000  Biso   1.000  C
  C59      1.0000 0.50332  0.04059  0.25000  Biso   1.000  C
  C60      1.0000 0.65450  0.16451  0.31498  Biso   1.000  C
  C61      1.0000 0.24997  0.33197  0.25000  Biso   1.000  C
  H28      1.0000 0.24302  0.31780  0.36030  Biso   1.000  H
  C62      1.0000 0.20241  0.17822  0.18278  Biso   1.000  C
  O10      1.0000 0.15862  0.02370  0.25000  Biso   1.000  O
  C63      1.0000 0.55328  0.08148  0.18371  Biso   1.000  C
  O11      1.0000 0.40233  0.95841  0.25000  Biso   1.000  O
  C64      1.0000 0.70303  0.20603  0.25000  Biso   1.000  C
  H29      1.0000 0.69009  0.19263  0.35970  Biso   1.000  H
  C65      1.0000 0.23308  0.28116  0.18420  Biso   1.000  C
  H30      1.0000 0.27333  0.40432  0.25000  Biso   1.000  H
  S11      1.0000 0.17317  0.10929  0.09952  Biso   1.000  S
  S12      1.0000 0.49291  0.02339  0.09892  Biso   1.000  S
  C66      1.0000 0.65450  0.16451  0.18502  Biso   1.000  C
  H31      1.0000 0.77111  0.26412  0.25000  Biso   1.000  H
  H32      1.0000 0.24302  0.31780  0.13970  Biso   1.000  H
  C67      1.0000 0.29812  0.13663  0.06952  Biso   1.000  C
  C68      1.0000 0.43795  0.09953  0.06979  Biso   1.000  C
  H33      1.0000 0.69009  0.19263  0.14030  Biso   1.000  H
  C69      1.0000 0.34374  0.08202  0.09820  Biso   1.000  C
  C70      1.0000 0.34619  0.20727  0.01522  Biso   1.000  C
  C71      1.0000 0.48562  0.17180  0.01462  Biso   1.000  C
  O12      1.0000 0.29501  0.01007  0.15169  Biso   1.000  O
  C72      1.0000 0.43890  0.22539  0.98757  Biso   1.000  C
  H34      1.0000 0.31505  0.24453  0.99622  Biso   1.000  H
  H35      1.0000 0.55024  0.18473  0.99529  Biso   1.000  H
  H36      1.0000 0.47160  0.27497  0.94969  Biso   1.000  H
  C73      1.0000 0.56111  0.77463  0.48757  Biso   1.000  C
  C74      1.0000 0.51440  0.82823  0.51462  Biso   1.000  C
  C75      1.0000 0.65378  0.79268  0.51522  Biso   1.000  C
  H37      1.0000 0.52837  0.72498  0.44969  Biso   1.000  H
  C76      1.0000 0.56207  0.90049  0.56979  Biso   1.000  C
  H38      1.0000 0.44977  0.81529  0.49529  Biso   1.000  H
  C77      1.0000 0.70189  0.86339  0.56952  Biso   1.000  C
  H39      1.0000 0.68497  0.75550  0.49622  Biso   1.000  H
  C78      1.0000 0.65628  0.91800  0.59820  Biso   1.000  C
  S13      1.0000 0.50710  0.97663  0.59892  Biso   1.000  S
  S14      1.0000 0.82684  0.89073  0.59952  Biso   1.000  S
  O13      1.0000 0.70496  0.98988  0.65169  Biso   1.000  O
  C79      1.0000 0.44669  0.91846  0.68371  Biso   1.000  C
  C80      1.0000 0.79760  0.82180  0.68278  Biso   1.000  C
  C81      1.0000 0.49669  0.95944  0.75000  Biso   1.000  C
  C82      1.0000 0.34551  0.83551  0.68502  Biso   1.000  C
  C83      1.0000 0.81297  0.87400  0.75000  Biso   1.000  C
  C84      1.0000 0.76689  0.71878  0.68420  Biso   1.000  C
  C85      1.0000 0.44669  0.91846  0.81629  Biso   1.000  C
  O14      1.0000 0.59768  0.04162  0.75000  Biso   1.000  O
  C86      1.0000 0.29698  0.79399  0.75000  Biso   1.000  C
  H40      1.0000 0.30992  0.80739  0.64030  Biso   1.000  H
  C87      1.0000 0.79760  0.82180  0.81722  Biso   1.000  C
  O15      1.0000 0.84139  0.97632  0.75000  Biso   1.000  O
  C88      1.0000 0.75000  0.66797  0.75000  Biso   1.000  C
  H41      1.0000 0.75700  0.68222  0.63970  Biso   1.000  H
  S15      1.0000 0.50710  0.97663  0.90108  Biso   1.000  S
  C89      1.0000 0.34551  0.83551  0.81498  Biso   1.000  C
  H42      1.0000 0.22890  0.73590  0.75000  Biso   1.000  H
  S16      1.0000 0.82684  0.89073  0.90048  Biso   1.000  S
  C90      1.0000 0.76689  0.71878  0.81580  Biso   1.000  C
  H43      1.0000 0.72668  0.59571  0.75000  Biso   1.000  H
  C91      1.0000 0.56207  0.90049  0.93021  Biso   1.000  C
  H44      1.0000 0.30992  0.80739  0.85970  Biso   1.000  H
  C92      1.0000 0.70189  0.86339  0.93048  Biso   1.000  C
  H45      1.0000 0.75700  0.68222  0.86030  Biso   1.000  H
  C93      1.0000 0.65628  0.91800  0.90180  Biso   1.000  C
  C94      1.0000 0.51440  0.82823  0.98538  Biso   1.000  C
  C95      1.0000 0.65378  0.79268  0.98478  Biso   1.000  C
  O16      1.0000 0.70496  0.98988  0.84831  Biso   1.000  O
  C96      1.0000 0.56111  0.77463  0.01243  Biso   1.000  C
  H46      1.0000 0.44977  0.81529  0.00471  Biso   1.000  H
  H47      1.0000 0.68497  0.75550  0.00378  Biso   1.000  H
  H48      1.0000 0.52837  0.72498  0.05031  Biso   1.000  H
  C97      1.0000 0.83548  0.48998  0.31498  Biso   1.000  C
  C98      1.0000 0.79399  0.49703  0.25000  Biso   1.000  C
  C99      1.0000 0.91848  0.47178  0.31629  Biso   1.000  C
  H49      1.0000 0.80737  0.49749  0.35970  Biso   1.000  H
  C100     1.0000 0.83548  0.48998  0.18502  Biso   1.000  C
  H50      1.0000 0.73594  0.50702  0.25000  Biso   1.000  H
  S17      1.0000 0.97658  0.46953  0.40108  Biso   1.000  S
  C101     1.0000 0.95942  0.46272  0.25000  Biso   1.000  C
  C102     1.0000 0.91848  0.47178  0.18371  Biso   1.000  C
  H51      1.0000 0.80737  0.49749  0.14030  Biso   1.000  H
  C103     1.0000 0.90049  0.33840  0.43021  Biso   1.000  C
  O17      1.0000 0.04157  0.44390  0.25000  Biso   1.000  O
  S18      1.0000 0.97658  0.46953  0.09892  Biso   1.000  S
  C104     1.0000 0.91802  0.26172  0.40180  Biso   1.000  C
  C105     1.0000 0.82820  0.31377  0.48538  Biso   1.000  C
  C106     1.0000 0.90049  0.33840  0.06979  Biso   1.000  C
  C107     1.0000 0.86341  0.16149  0.43048  Biso   1.000  C
  O18      1.0000 0.98990  0.28488  0.34831  Biso   1.000  O
  C108     1.0000 0.77456  0.21347  0.51243  Biso   1.000  C
  H52      1.0000 0.81530  0.36551  0.50471  Biso   1.000  H
  C109     1.0000 0.91802  0.26172  0.09820  Biso   1.000  C
  C110     1.0000 0.82820  0.31377  0.01462  Biso   1.000  C
  S19      1.0000 0.89068  0.06390  0.40048  Biso   1.000  S
  C111     1.0000 0.79267  0.13888  0.48478  Biso   1.000  C
  H53      1.0000 0.72500  0.19658  0.55031  Biso   1.000  H
  C112     1.0000 0.86341  0.16149  0.06952  Biso   1.000  C
  O19      1.0000 0.98990  0.28488  0.15169  Biso   1.000  O
  C113     1.0000 0.77456  0.21347  0.98757  Biso   1.000  C
  H54      1.0000 0.81530  0.36551  0.99529  Biso   1.000  H
  C114     1.0000 0.82178  0.02417  0.31722  Biso   1.000  C
  H55      1.0000 0.75546  0.07048  0.50378  Biso   1.000  H
  S20      1.0000 0.89068  0.06390  0.09952  Biso   1.000  S
  C115     1.0000 0.79267  0.13888  0.01522  Biso   1.000  C
  H56      1.0000 0.72500  0.19658  0.94969  Biso   1.000  H
  C116     1.0000 0.87402  0.06103  0.25000  Biso   1.000  C
  C117     1.0000 0.71877  0.95190  0.31580  Biso   1.000  C
  C118     1.0000 0.82178  0.02417  0.18278  Biso   1.000  C
  H57      1.0000 0.75546  0.07048  0.99622  Biso   1.000  H
  O20      1.0000 0.97630  0.13493  0.25000  Biso   1.000  O
  C119     1.0000 0.66800  0.91798  0.25000  Biso   1.000  C
  H58      1.0000 0.68220  0.92518  0.36030  Biso   1.000  H
  C120     1.0000 0.71877  0.95190  0.18420  Biso   1.000  C
  H59      1.0000 0.59566  0.86895  0.25000  Biso   1.000  H
  H60      1.0000 0.68220  0.92518  0.13970  Biso   1.000  H
  C121     1.0000 0.16449  0.50996  0.68502  Biso   1.000  C
  C122     1.0000 0.08150  0.52817  0.68371  Biso   1.000  C
  C123     1.0000 0.20602  0.50299  0.75000  Biso   1.000  C
  H61      1.0000 0.19264  0.50253  0.64030  Biso   1.000  H
  S21      1.0000 0.02343  0.53049  0.59892  Biso   1.000  S
  C124     1.0000 0.04059  0.53731  0.75000  Biso   1.000  C
  C125     1.0000 0.16449  0.50996  0.81498  Biso   1.000  C
  H62      1.0000 0.26408  0.49300  0.75000  Biso   1.000  H
  C126     1.0000 0.09953  0.66162  0.56979  Biso   1.000  C
  C127     1.0000 0.08150  0.52817  0.81629  Biso   1.000  C
  O21      1.0000 0.95844  0.55613  0.75000  Biso   1.000  O
  H63      1.0000 0.19264  0.50253  0.85970  Biso   1.000  H
  C128     1.0000 0.17177  0.68617  0.51462  Biso   1.000  C
  C129     1.0000 0.08199  0.73830  0.59820  Biso   1.000  C
  S22      1.0000 0.02343  0.53049  0.90108  Biso   1.000  S
  C130     1.0000 0.22541  0.78648  0.48757  Biso   1.000  C
  H64      1.0000 0.18471  0.63451  0.49529  Biso   1.000  H
  C131     1.0000 0.13660  0.83853  0.56952  Biso   1.000  C
  O22      1.0000 0.01007  0.71507  0.65169  Biso   1.000  O
  C132     1.0000 0.09953  0.66162  0.93021  Biso   1.000  C
  C133     1.0000 0.20730  0.86107  0.51522  Biso   1.000  C
  H65      1.0000 0.27497  0.80336  0.44969  Biso   1.000  H
  S23      1.0000 0.10933  0.93612  0.59952  Biso   1.000  S
  C134     1.0000 0.08199  0.73830  0.90180  Biso   1.000  C
  C135     1.0000 0.17177  0.68617  0.98538  Biso   1.000  C
  H66      1.0000 0.24455  0.92954  0.49622  Biso   1.000  H
  C136     1.0000 0.17819  0.97578  0.68278  Biso   1.000  C
  C137     1.0000 0.13660  0.83853  0.93048  Biso   1.000  C
  O23      1.0000 0.01007  0.71507  0.84831  Biso   1.000  O
  C138     1.0000 0.22541  0.78648  0.01243  Biso   1.000  C
  H67      1.0000 0.18471  0.63451  0.00471  Biso   1.000  H
  C139     1.0000 0.12599  0.93899  0.75000  Biso   1.000  C
  C140     1.0000 0.28124  0.04812  0.68420  Biso   1.000  C
  S24      1.0000 0.10933  0.93612  0.90048  Biso   1.000  S
  C141     1.0000 0.20730  0.86107  0.98478  Biso   1.000  C
  H68      1.0000 0.27497  0.80336  0.05031  Biso   1.000  H
  C142     1.0000 0.17819  0.97578  0.81722  Biso   1.000  C
  O24      1.0000 0.02371  0.86510  0.75000  Biso   1.000  O
  C143     1.0000 0.33201  0.08205  0.75000  Biso   1.000  C
  H69      1.0000 0.31781  0.07484  0.63970  Biso   1.000  H
  H70      1.0000 0.24455  0.92954  0.00378  Biso   1.000  H
  C144     1.0000 0.28124  0.04812  0.81580  Biso   1.000  C
  H71      1.0000 0.40431  0.13100  0.75000  Biso   1.000  H
  H72      1.0000 0.31781  0.07484  0.86030  Biso   1.000  H
