data_image0
_cell_length_a       10.109
_cell_length_b       17.685
_cell_length_c       16.924
_cell_angle_alpha    90
_cell_angle_beta     96.92
_cell_angle_gamma    90

_symmetry_space_group_name_H-M    "P 1"
_symmetry_int_tables_number       1

loop_
  _symmetry_equiv_pos_as_xyz
  'x, y, z'

loop_
  _atom_site_label
  _atom_site_occupancy
  _atom_site_fract_x
  _atom_site_fract_y
  _atom_site_fract_z
  _atom_site_thermal_displace_type
  _atom_site_B_iso_or_equiv
  _atom_site_type_symbol
  C1       1.0000 0.15053  0.44207  0.45004  Biso   1.000  C
  C2       1.0000 0.21866  0.40062  0.38766  Biso   1.000  C
  H1       1.0000 0.19973  0.43308  0.50272  Biso   1.000  H
  H2       1.0000 0.15166  0.49652  0.43951  Biso   1.000  H
  C3       1.0000 0.00840  0.41589  0.44968  Biso   1.000  C
  C4       1.0000 0.25327  0.43579  0.31993  Biso   1.000  C
  C5       1.0000 0.24525  0.32338  0.39540  Biso   1.000  C
  C6       1.0000 0.90889  0.43953  0.39034  Biso   1.000  C
  C7       1.0000 0.97156  0.36630  0.50736  Biso   1.000  C
  C8       1.0000 0.30376  0.39746  0.25880  Biso   1.000  C
  O1       1.0000 0.22944  0.51371  0.30915  Biso   1.000  O
  C9       1.0000 0.29978  0.28391  0.33766  Biso   1.000  C
  H3       1.0000 0.22533  0.29788  0.44129  Biso   1.000  H
  O2       1.0000 0.94385  0.49098  0.33564  Biso   1.000  O
  C10      1.0000 0.77835  0.41272  0.38611  Biso   1.000  C
  H4       1.0000 0.03591  0.35058  0.54879  Biso   1.000  H
  C11      1.0000 0.84265  0.33978  0.50480  Biso   1.000  C
  C12      1.0000 0.32703  0.31999  0.26921  Biso   1.000  C
  C13      1.0000 0.32677  0.43557  0.18160  Biso   1.000  C
  C14      1.0000 0.32722  0.56251  0.34374  Biso   1.000  C
  H5       1.0000 0.31881  0.23212  0.34469  Biso   1.000  H
  H6       1.0000 0.89203  0.49901  0.29302  Biso   1.000  H
  C15      1.0000 0.67319  0.43557  0.31844  Biso   1.000  C
  C16      1.0000 0.74813  0.36296  0.44474  Biso   1.000  C
  H7       1.0000 0.81987  0.30602  0.54391  Biso   1.000  H
  H8       1.0000 0.36175  0.29223  0.22898  Biso   1.000  H
  C17      1.0000 0.22170  0.41272  0.11386  Biso   1.000  C
  H9       1.0000 0.41524  0.42171  0.16803  Biso   1.000  H
  H10      1.0000 0.32480  0.49047  0.18850  Biso   1.000  H
  N1       1.0000 0.41283  0.53644  0.40129  Biso   1.000  N
  C18      1.0000 0.32218  0.63562  0.31481  Biso   1.000  C
  C19      1.0000 0.69629  0.39746  0.24118  Biso   1.000  C
  H11      1.0000 0.58482  0.42171  0.33201  Biso   1.000  H
  H12      1.0000 0.67525  0.49047  0.31147  Biso   1.000  H
  H13      1.0000 0.66050  0.34470  0.44331  Biso   1.000  H
  C20      1.0000 0.09106  0.43953  0.10964  Biso   1.000  C
  C21      1.0000 0.25192  0.36296  0.05524  Biso   1.000  C
  C22      1.0000 0.50336  0.58609  0.43474  Biso   1.000  C
  H14      1.0000 0.25806  0.65089  0.27302  Biso   1.000  H
  C23      1.0000 0.41614  0.68493  0.35052  Biso   1.000  C
  C24      1.0000 0.74667  0.43579  0.18005  Biso   1.000  C
  C25      1.0000 0.67303  0.31999  0.23082  Biso   1.000  C
  O3       1.0000 0.05610  0.49098  0.16434  Biso   1.000  O
  C26      1.0000 0.99156  0.41589  0.05036  Biso   1.000  C
  H15      1.0000 0.33947  0.34470  0.05672  Biso   1.000  H
  C27      1.0000 0.15740  0.33978  0.99518  Biso   1.000  C
  H16      1.0000 0.56663  0.56918  0.47623  Biso   1.000  H
  C28      1.0000 0.50817  0.66005  0.41153  Biso   1.000  C
  H17      1.0000 0.41751  0.73543  0.33332  Biso   1.000  H
  C29      1.0000 0.78140  0.40062  0.11238  Biso   1.000  C
  O4       1.0000 0.77061  0.51371  0.19083  Biso   1.000  O
  C30      1.0000 0.70018  0.28391  0.16237  Biso   1.000  C
  H18      1.0000 0.63830  0.29223  0.27100  Biso   1.000  H
  H19      1.0000 0.10803  0.49901  0.20702  Biso   1.000  H
  C31      1.0000 0.84952  0.44207  0.04994  Biso   1.000  C
  C32      1.0000 0.02858  0.36630  0.99262  Biso   1.000  C
  H20      1.0000 0.18028  0.30602  0.95607  Biso   1.000  H
  H21      1.0000 0.57268  0.69307  0.43659  Biso   1.000  H
  C33      1.0000 0.75480  0.32338  0.10458  Biso   1.000  C
  C34      1.0000 0.67284  0.56251  0.15630  Biso   1.000  C
  H22      1.0000 0.68124  0.23212  0.15529  Biso   1.000  H
  H23      1.0000 0.80032  0.43308  0.99726  Biso   1.000  H
  H24      1.0000 0.84838  0.49652  0.06047  Biso   1.000  H
  H25      1.0000 0.96414  0.35058  0.95119  Biso   1.000  H
  H26      1.0000 0.77472  0.29788  0.05869  Biso   1.000  H
  N2       1.0000 0.58723  0.53644  0.09875  Biso   1.000  N
  C35      1.0000 0.67777  0.63562  0.18517  Biso   1.000  C
  C36      1.0000 0.49670  0.58609  0.06529  Biso   1.000  C
  H27      1.0000 0.74200  0.65089  0.22701  Biso   1.000  H
  C37      1.0000 0.58392  0.68493  0.14952  Biso   1.000  C
  H28      1.0000 0.43343  0.56918  0.02381  Biso   1.000  H
  C38      1.0000 0.49189  0.66005  0.08851  Biso   1.000  C
  H29      1.0000 0.58255  0.73543  0.16672  Biso   1.000  H
  H30      1.0000 0.42727  0.69307  0.06339  Biso   1.000  H
  C39      1.0000 0.22176  0.58728  0.61390  Biso   1.000  C
  C40      1.0000 0.25197  0.63704  0.55521  Biso   1.000  C
  C41      1.0000 0.09112  0.56047  0.60968  Biso   1.000  C
  C42      1.0000 0.32682  0.56443  0.68158  Biso   1.000  C
  C43      1.0000 0.15746  0.66022  0.49522  Biso   1.000  C
  H31      1.0000 0.33951  0.65530  0.55670  Biso   1.000  H
  C44      1.0000 0.99161  0.58411  0.55033  Biso   1.000  C
  O5       1.0000 0.05616  0.50902  0.66438  Biso   1.000  O
  C45      1.0000 0.30371  0.60254  0.75878  Biso   1.000  C
  H32      1.0000 0.41528  0.57829  0.66801  Biso   1.000  H
  H33      1.0000 0.32484  0.50953  0.68848  Biso   1.000  H
  C46      1.0000 0.02854  0.63370  0.49266  Biso   1.000  C
  H34      1.0000 0.18024  0.69398  0.45611  Biso   1.000  H
  C47      1.0000 0.84958  0.55793  0.54998  Biso   1.000  C
  H35      1.0000 0.10808  0.50099  0.70699  Biso   1.000  H
  C48      1.0000 0.25333  0.56421  0.81997  Biso   1.000  C
  C49      1.0000 0.32708  0.68001  0.76919  Biso   1.000  C
  H36      1.0000 0.96410  0.64942  0.45123  Biso   1.000  H
  C50      1.0000 0.78145  0.59938  0.61235  Biso   1.000  C
  H37      1.0000 0.80028  0.56692  0.49730  Biso   1.000  H
  H38      1.0000 0.84844  0.50348  0.56051  Biso   1.000  H
  O6       1.0000 0.22950  0.48629  0.80919  Biso   1.000  O
  C51      1.0000 0.21861  0.59938  0.88764  Biso   1.000  C
  H39      1.0000 0.36171  0.70777  0.72902  Biso   1.000  H
  C52      1.0000 0.29983  0.71609  0.83764  Biso   1.000  C
  C53      1.0000 0.74672  0.56421  0.68003  Biso   1.000  C
  C54      1.0000 0.75485  0.67662  0.60456  Biso   1.000  C
  C55      1.0000 0.32727  0.43749  0.84371  Biso   1.000  C
  C56      1.0000 0.15057  0.55793  0.95002  Biso   1.000  C
  C57      1.0000 0.24521  0.67662  0.89544  Biso   1.000  C
  H40      1.0000 0.31887  0.76788  0.84473  Biso   1.000  H
  O7       1.0000 0.77066  0.48629  0.69080  Biso   1.000  O
  C58      1.0000 0.69635  0.60254  0.74122  Biso   1.000  C
  H41      1.0000 0.77478  0.70212  0.55873  Biso   1.000  H
  C59      1.0000 0.70023  0.71609  0.66235  Biso   1.000  C
  N3       1.0000 0.41287  0.46356  0.90127  Biso   1.000  N
  C60      1.0000 0.32224  0.36438  0.81485  Biso   1.000  C
  H42      1.0000 0.15161  0.50348  0.93948  Biso   1.000  H
  C61      1.0000 0.00845  0.58411  0.94966  Biso   1.000  C
  H43      1.0000 0.19968  0.56692  0.00270  Biso   1.000  H
  H44      1.0000 0.22539  0.70212  0.94133  Biso   1.000  H
  C62      1.0000 0.67289  0.43749  0.65628  Biso   1.000  C
  C63      1.0000 0.67308  0.68001  0.73080  Biso   1.000  C
  C64      1.0000 0.67324  0.56443  0.81842  Biso   1.000  C
  H45      1.0000 0.68120  0.76788  0.65533  Biso   1.000  H
  C65      1.0000 0.50331  0.41391  0.93472  Biso   1.000  C
  H46      1.0000 0.25801  0.34911  0.77300  Biso   1.000  H
  C66      1.0000 0.41619  0.31507  0.85050  Biso   1.000  C
  C67      1.0000 0.90895  0.56047  0.89038  Biso   1.000  C
  C68      1.0000 0.97151  0.63370  0.00734  Biso   1.000  C
  N4       1.0000 0.58728  0.46356  0.59872  Biso   1.000  N
  C69      1.0000 0.67782  0.36438  0.68515  Biso   1.000  C
  H47      1.0000 0.63835  0.70777  0.77098  Biso   1.000  H
  C70      1.0000 0.77840  0.58728  0.88609  Biso   1.000  C
  H48      1.0000 0.58487  0.57829  0.83199  Biso   1.000  H
  H49      1.0000 0.67521  0.50953  0.81151  Biso   1.000  H
  H50      1.0000 0.56668  0.43082  0.97621  Biso   1.000  H
  C71      1.0000 0.50812  0.33995  0.91151  Biso   1.000  C
  H51      1.0000 0.41756  0.26457  0.83330  Biso   1.000  H
  O8       1.0000 0.94391  0.50902  0.83568  Biso   1.000  O
  C72      1.0000 0.84260  0.66022  0.00478  Biso   1.000  C
  H52      1.0000 0.03587  0.64942  0.04882  Biso   1.000  H
  C73      1.0000 0.49675  0.41391  0.56527  Biso   1.000  C
  H53      1.0000 0.74205  0.34911  0.72699  Biso   1.000  H
  C74      1.0000 0.58397  0.31507  0.64950  Biso   1.000  C
  C75      1.0000 0.74819  0.63704  0.94478  Biso   1.000  C
  H54      1.0000 0.57274  0.30693  0.93663  Biso   1.000  H
  H55      1.0000 0.89207  0.50099  0.79300  Biso   1.000  H
  H56      1.0000 0.81983  0.69398  0.04394  Biso   1.000  H
  H57      1.0000 0.43338  0.43082  0.52379  Biso   1.000  H
  C76      1.0000 0.49193  0.33995  0.58849  Biso   1.000  C
  H58      1.0000 0.58249  0.26457  0.66670  Biso   1.000  H
  H59      1.0000 0.66054  0.65530  0.94329  Biso   1.000  H
  H60      1.0000 0.42733  0.30693  0.56343  Biso   1.000  H
  C77      1.0000 0.20027  0.21612  0.66235  Biso   1.000  C
  C78      1.0000 0.25480  0.17665  0.60456  Biso   1.000  C
  C79      1.0000 0.17303  0.17998  0.73080  Biso   1.000  C
  H61      1.0000 0.18125  0.26791  0.65533  Biso   1.000  H
  C80      1.0000 0.28140  0.09935  0.61235  Biso   1.000  C
  H62      1.0000 0.27473  0.20209  0.55873  Biso   1.000  H
  C81      1.0000 0.19630  0.10257  0.74122  Biso   1.000  C
  H63      1.0000 0.13830  0.20780  0.77098  Biso   1.000  H
  C82      1.0000 0.34953  0.05796  0.54998  Biso   1.000  C
  C83      1.0000 0.24677  0.06424  0.68003  Biso   1.000  C
  C84      1.0000 0.17329  0.06446  0.81842  Biso   1.000  C
  C85      1.0000 0.49166  0.08408  0.55033  Biso   1.000  C
  H64      1.0000 0.30033  0.06689  0.49730  Biso   1.000  H
  H65      1.0000 0.34839  0.00351  0.56051  Biso   1.000  H
  O9       1.0000 0.27061  0.98632  0.69080  Biso   1.000  O
  C86      1.0000 0.27835  0.08731  0.88609  Biso   1.000  C
  H66      1.0000 0.08482  0.07831  0.83199  Biso   1.000  H
  H67      1.0000 0.17526  0.00950  0.81151  Biso   1.000  H
  C87      1.0000 0.52850  0.13367  0.49266  Biso   1.000  C
  C88      1.0000 0.59117  0.06050  0.60968  Biso   1.000  C
  C89      1.0000 0.17284  0.93752  0.65628  Biso   1.000  C
  C90      1.0000 0.40900  0.06050  0.89038  Biso   1.000  C
  C91      1.0000 0.24814  0.13707  0.94478  Biso   1.000  C
  H68      1.0000 0.46415  0.14939  0.45123  Biso   1.000  H
  C92      1.0000 0.65741  0.16025  0.49522  Biso   1.000  C
  O10      1.0000 0.55621  0.00899  0.66438  Biso   1.000  O
  C93      1.0000 0.72171  0.08731  0.61390  Biso   1.000  C
  N5       1.0000 0.08723  0.96353  0.59872  Biso   1.000  N
  C94      1.0000 0.17787  0.86435  0.68515  Biso   1.000  C
  C95      1.0000 0.50850  0.08408  0.94966  Biso   1.000  C
  O11      1.0000 0.44396  0.00899  0.83568  Biso   1.000  O
  H69      1.0000 0.16059  0.15527  0.94329  Biso   1.000  H
  C96      1.0000 0.34265  0.16025  0.00478  Biso   1.000  C
  H70      1.0000 0.68019  0.19401  0.45611  Biso   1.000  H
  C97      1.0000 0.75192  0.13707  0.55521  Biso   1.000  C
  H71      1.0000 0.60803  0.00102  0.70699  Biso   1.000  H
  C98      1.0000 0.82687  0.06446  0.68158  Biso   1.000  C
  C99      1.0000 0.99670  0.91388  0.56527  Biso   1.000  C
  H72      1.0000 0.24200  0.84908  0.72699  Biso   1.000  H
  C100     1.0000 0.08392  0.81504  0.64950  Biso   1.000  C
  C101     1.0000 0.65052  0.05796  0.95002  Biso   1.000  C
  C102     1.0000 0.47146  0.13367  0.00734  Biso   1.000  C
  H73      1.0000 0.39202  0.00102  0.79300  Biso   1.000  H
  H74      1.0000 0.31978  0.19401  0.04394  Biso   1.000  H
  H75      1.0000 0.83956  0.15527  0.55670  Biso   1.000  H
  C103     1.0000 0.80376  0.10257  0.75878  Biso   1.000  C
  H76      1.0000 0.91523  0.07831  0.66801  Biso   1.000  H
  H77      1.0000 0.82480  0.00950  0.68848  Biso   1.000  H
  H78      1.0000 0.93343  0.93079  0.52379  Biso   1.000  H
  C104     1.0000 0.99188  0.83998  0.58849  Biso   1.000  C
  H79      1.0000 0.08254  0.76460  0.66670  Biso   1.000  H
  C105     1.0000 0.71866  0.09935  0.88764  Biso   1.000  C
  H80      1.0000 0.65166  0.00351  0.93948  Biso   1.000  H
  H81      1.0000 0.69973  0.06689  0.00270  Biso   1.000  H
  H82      1.0000 0.53592  0.14939  0.04882  Biso   1.000  H
  C106     1.0000 0.75338  0.06424  0.81997  Biso   1.000  C
  C107     1.0000 0.82703  0.17998  0.76919  Biso   1.000  C
  H83      1.0000 0.92738  0.80690  0.56343  Biso   1.000  H
  C108     1.0000 0.74526  0.17665  0.89544  Biso   1.000  C
  O12      1.0000 0.72945  0.98632  0.80919  Biso   1.000  O
  H84      1.0000 0.86176  0.20780  0.72902  Biso   1.000  H
  C109     1.0000 0.79988  0.21612  0.83764  Biso   1.000  C
  H85      1.0000 0.72534  0.20209  0.94133  Biso   1.000  H
  C110     1.0000 0.82722  0.93752  0.84371  Biso   1.000  C
  H86      1.0000 0.81882  0.26791  0.84473  Biso   1.000  H
  N6       1.0000 0.91282  0.96353  0.90127  Biso   1.000  N
  C111     1.0000 0.82229  0.86435  0.81485  Biso   1.000  C
  C112     1.0000 0.00336  0.91388  0.93472  Biso   1.000  C
  H87      1.0000 0.75806  0.84908  0.77300  Biso   1.000  H
  C113     1.0000 0.91614  0.81504  0.85050  Biso   1.000  C
  H88      1.0000 0.06663  0.93079  0.97621  Biso   1.000  H
  C114     1.0000 0.00817  0.83998  0.91151  Biso   1.000  C
  H89      1.0000 0.91751  0.76460  0.83330  Biso   1.000  H
  H90      1.0000 0.07279  0.80690  0.93663  Biso   1.000  H
  C115     1.0000 0.34260  0.83975  0.50480  Biso   1.000  C
  C116     1.0000 0.24808  0.86293  0.44474  Biso   1.000  C
  C117     1.0000 0.47151  0.86633  0.50736  Biso   1.000  C
  H91      1.0000 0.31982  0.80599  0.54391  Biso   1.000  H
  C118     1.0000 0.27830  0.91269  0.38611  Biso   1.000  C
  H92      1.0000 0.16054  0.84473  0.44331  Biso   1.000  H
  C119     1.0000 0.50845  0.91592  0.44968  Biso   1.000  C
  H93      1.0000 0.53596  0.85061  0.54879  Biso   1.000  H
  C120     1.0000 0.17324  0.93554  0.31844  Biso   1.000  C
  C121     1.0000 0.40894  0.93950  0.39034  Biso   1.000  C
  C122     1.0000 0.65057  0.94204  0.45004  Biso   1.000  C
  C123     1.0000 0.19634  0.89743  0.24118  Biso   1.000  C
  H94      1.0000 0.08477  0.92169  0.33201  Biso   1.000  H
  H95      1.0000 0.17520  0.99050  0.31147  Biso   1.000  H
  O13      1.0000 0.44390  0.99101  0.33564  Biso   1.000  O
  C124     1.0000 0.71861  0.90065  0.38766  Biso   1.000  C
  H96      1.0000 0.69978  0.93311  0.50272  Biso   1.000  H
  H97      1.0000 0.65162  0.99649  0.43951  Biso   1.000  H
  C125     1.0000 0.17298  0.82002  0.23082  Biso   1.000  C
  C126     1.0000 0.24672  0.93576  0.18005  Biso   1.000  C
  H98      1.0000 0.39198  0.99898  0.29302  Biso   1.000  H
  C127     1.0000 0.75332  0.93576  0.31993  Biso   1.000  C
  C128     1.0000 0.74520  0.82335  0.39540  Biso   1.000  C
  C129     1.0000 0.20023  0.78388  0.16237  Biso   1.000  C
  H99      1.0000 0.13835  0.79220  0.27100  Biso   1.000  H
  C130     1.0000 0.28145  0.90065  0.11238  Biso   1.000  C
  O14      1.0000 0.27056  0.01368  0.19083  Biso   1.000  O
  C131     1.0000 0.80371  0.89743  0.25880  Biso   1.000  C
  O15      1.0000 0.72939  0.01368  0.30915  Biso   1.000  O
  H100     1.0000 0.72528  0.79791  0.44129  Biso   1.000  H
  C132     1.0000 0.79983  0.78388  0.33766  Biso   1.000  C
  C133     1.0000 0.25485  0.82335  0.10458  Biso   1.000  C
  H101     1.0000 0.18119  0.73209  0.15529  Biso   1.000  H
  C134     1.0000 0.34947  0.94204  0.04994  Biso   1.000  C
  C135     1.0000 0.17279  0.06248  0.15630  Biso   1.000  C
  C136     1.0000 0.82682  0.93554  0.18160  Biso   1.000  C
  C137     1.0000 0.82698  0.82002  0.26921  Biso   1.000  C
  C138     1.0000 0.82727  0.06248  0.34374  Biso   1.000  C
  H102     1.0000 0.81886  0.73209  0.34469  Biso   1.000  H
  H103     1.0000 0.27467  0.79791  0.05869  Biso   1.000  H
  H104     1.0000 0.34843  0.99649  0.06047  Biso   1.000  H
  C139     1.0000 0.49161  0.91592  0.05036  Biso   1.000  C
  H105     1.0000 0.30037  0.93311  0.99726  Biso   1.000  H
  N7       1.0000 0.08718  0.03647  0.09875  Biso   1.000  N
  C140     1.0000 0.17782  0.13565  0.18517  Biso   1.000  C
  C141     1.0000 0.72175  0.91269  0.11386  Biso   1.000  C
  H106     1.0000 0.91519  0.92169  0.16803  Biso   1.000  H
  H107     1.0000 0.82485  0.99050  0.18850  Biso   1.000  H
  H108     1.0000 0.86170  0.79220  0.22898  Biso   1.000  H
  N8       1.0000 0.91288  0.03647  0.40129  Biso   1.000  N
  C142     1.0000 0.82223  0.13565  0.31481  Biso   1.000  C
  C143     1.0000 0.59111  0.93950  0.10964  Biso   1.000  C
  C144     1.0000 0.52853  0.86633  0.99262  Biso   1.000  C
  C145     1.0000 0.99675  0.08612  0.06529  Biso   1.000  C
  H109     1.0000 0.24205  0.15092  0.22701  Biso   1.000  H
  C146     1.0000 0.08387  0.18496  0.14952  Biso   1.000  C
  C147     1.0000 0.75187  0.86293  0.05524  Biso   1.000  C
  C148     1.0000 0.00331  0.08612  0.43474  Biso   1.000  C
  H110     1.0000 0.75801  0.15092  0.27302  Biso   1.000  H
  C149     1.0000 0.91609  0.18496  0.35052  Biso   1.000  C
  O16      1.0000 0.55615  0.99101  0.16434  Biso   1.000  O
  H111     1.0000 0.46419  0.85061  0.95119  Biso   1.000  H
  C150     1.0000 0.65745  0.83975  0.99518  Biso   1.000  C
  H112     1.0000 0.93338  0.06921  0.02381  Biso   1.000  H
  C151     1.0000 0.99194  0.16002  0.08851  Biso   1.000  C
  H113     1.0000 0.08250  0.23540  0.16672  Biso   1.000  H
  H114     1.0000 0.83952  0.84473  0.05672  Biso   1.000  H
  H115     1.0000 0.06668  0.06921  0.47623  Biso   1.000  H
  C152     1.0000 0.00812  0.16002  0.41153  Biso   1.000  C
  H116     1.0000 0.91756  0.23540  0.33332  Biso   1.000  H
  H117     1.0000 0.60798  0.99898  0.20702  Biso   1.000  H
  H118     1.0000 0.68023  0.80599  0.95607  Biso   1.000  H
  H119     1.0000 0.92732  0.19310  0.06339  Biso   1.000  H
  H120     1.0000 0.07273  0.19310  0.43659  Biso   1.000  H
