data_image0
_cell_length_a       11.841
_cell_length_b       17.39
_cell_length_c       11.551
_cell_angle_alpha    95.46
_cell_angle_beta     107.65
_cell_angle_gamma    91.3

_symmetry_space_group_name_H-M    "P 1"
_symmetry_int_tables_number       1

loop_
  _symmetry_equiv_pos_as_xyz
  'x, y, z'

loop_
  _atom_site_label
  _atom_site_occupancy
  _atom_site_fract_x
  _atom_site_fract_y
  _atom_site_fract_z
  _atom_site_thermal_displace_type
  _atom_site_B_iso_or_equiv
  _atom_site_type_symbol
  C1       1.0000 0.51854  0.38011  0.50512  Biso   1.000  C
  O1       1.0000 0.41647  0.33327  0.41658  Biso   1.000  O
  C2       1.0000 0.46709  0.38968  0.61477  Biso   1.000  C
  C3       1.0000 0.43312  0.31653  0.30199  Biso   1.000  C
  O2       1.0000 0.56848  0.42377  0.71217  Biso   1.000  O
  C4       1.0000 0.53393  0.25752  0.31314  Biso   1.000  C
  C5       1.0000 0.54748  0.44308  0.82886  Biso   1.000  C
  C6       1.0000 0.51482  0.18968  0.37381  Biso   1.000  C
  C7       1.0000 0.61811  0.26947  0.26289  Biso   1.000  C
  C8       1.0000 0.67044  0.44390  0.92754  Biso   1.000  C
  O3       1.0000 0.61175  0.19591  0.48867  Biso   1.000  O
  C9       1.0000 0.62340  0.33529  0.18513  Biso   1.000  C
  C10      1.0000 0.70398  0.20212  0.25101  Biso   1.000  C
  O4       1.0000 0.70164  0.37139  0.95240  Biso   1.000  O
  C11      1.0000 0.59672  0.13393  0.56534  Biso   1.000  C
  O5       1.0000 0.66873  0.40520  0.27284  Biso   1.000  O
  O6       1.0000 0.82226  0.23440  0.31405  Biso   1.000  O
  C12      1.0000 0.75994  0.32851  0.87482  Biso   1.000  C
  C13      1.0000 0.69958  0.14732  0.67544  Biso   1.000  C
  C14      1.0000 0.78810  0.42600  0.29377  Biso   1.000  C
  C15      1.0000 0.85860  0.24732  0.44774  Biso   1.000  C
  C16      1.0000 0.88897  0.35733  0.92663  Biso   1.000  C
  O7       1.0000 0.80200  0.11510  0.64218  Biso   1.000  O
  C17      1.0000 0.81957  0.50140  0.37253  Biso   1.000  C
  C18      1.0000 0.99052  0.27041  0.48200  Biso   1.000  C
  C19      1.0000 0.94431  0.39452  0.86514  Biso   1.000  C
  C20      1.0000 0.95500  0.33667  0.06397  Biso   1.000  C
  C21      1.0000 0.90974  0.13392  0.74763  Biso   1.000  C
  O8       1.0000 0.81041  0.49108  0.49004  Biso   1.000  O
  O9       1.0000 0.05081  0.20031  0.46957  Biso   1.000  O
  C22      1.0000 0.88556  0.42111  0.73145  Biso   1.000  C
  C23      1.0000 0.07449  0.42129  0.91393  Biso   1.000  C
  O10      1.0000 0.99641  0.26089  0.03464  Biso   1.000  O
  C24      1.0000 0.00750  0.09969  0.70596  Biso   1.000  C
  C25      1.0000 0.83852  0.56131  0.56890  Biso   1.000  C
  C26      1.0000 0.17742  0.21708  0.49032  Biso   1.000  C
  O11      1.0000 0.88219  0.50338  0.76563  Biso   1.000  O
  O12      1.0000 0.13932  0.37512  0.84878  Biso   1.000  O
  C27      1.0000 0.03886  0.22442  0.15086  Biso   1.000  C
  O13      1.0000 0.99664  0.01589  0.70011  Biso   1.000  O
  C28      1.0000 0.79469  0.54282  0.67206  Biso   1.000  C
  C29      1.0000 0.23077  0.13838  0.48511  Biso   1.000  C
  C30      1.0000 0.12689  0.32118  0.87537  Biso   1.000  C
  C31      1.0000 0.08315  0.97949  0.65178  Biso   1.000  C
  O14      1.0000 0.24165  0.11378  0.60746  Biso   1.000  O
  C32      1.0000 0.20459  0.99031  0.76133  Biso   1.000  C
  C33      1.0000 0.29789  0.03938  0.61468  Biso   1.000  C
  C34      1.0000 0.20352  0.96383  0.88231  Biso   1.000  C
  C35      1.0000 0.29890  0.01468  0.73566  Biso   1.000  C
  O15      1.0000 0.22569  0.03158  0.96364  Biso   1.000  O
  C36      1.0000 0.42062  0.01441  0.83343  Biso   1.000  C
  C37      1.0000 0.21132  0.01268  0.07594  Biso   1.000  C
  O16      1.0000 0.47677  0.09498  0.84257  Biso   1.000  O
  C38      1.0000 0.42784  0.14760  0.92133  Biso   1.000  C
  C39      1.0000 0.44767  0.21688  0.86066  Biso   1.000  C
  O17      1.0000 0.39222  0.27819  0.92754  Biso   1.000  O
  C40      1.0000 0.26957  0.26162  0.93933  Biso   1.000  C
  C41      1.0000 0.48153  0.61991  0.49489  Biso   1.000  C
  C42      1.0000 0.53289  0.61029  0.38524  Biso   1.000  C
  O18      1.0000 0.58351  0.66669  0.58343  Biso   1.000  O
  O19      1.0000 0.43150  0.57619  0.28783  Biso   1.000  O
  C43      1.0000 0.56687  0.68349  0.69801  Biso   1.000  C
  C44      1.0000 0.45250  0.55689  0.17114  Biso   1.000  C
  C45      1.0000 0.46605  0.74250  0.68686  Biso   1.000  C
  C46      1.0000 0.32955  0.55612  0.07246  Biso   1.000  C
  C47      1.0000 0.38188  0.73049  0.73712  Biso   1.000  C
  C48      1.0000 0.48516  0.81028  0.62619  Biso   1.000  C
  O20      1.0000 0.29843  0.62858  0.04761  Biso   1.000  O
  C49      1.0000 0.37659  0.66473  0.81488  Biso   1.000  C
  C50      1.0000 0.29601  0.79790  0.74900  Biso   1.000  C
  O21      1.0000 0.38823  0.80410  0.51133  Biso   1.000  O
  C51      1.0000 0.24013  0.67151  0.12518  Biso   1.000  C
  O22      1.0000 0.33126  0.59482  0.72716  Biso   1.000  O
  O23      1.0000 0.17770  0.76561  0.68586  Biso   1.000  O
  C52      1.0000 0.40326  0.86609  0.43467  Biso   1.000  C
  C53      1.0000 0.11102  0.64269  0.07337  Biso   1.000  C
  C54      1.0000 0.21188  0.57401  0.70624  Biso   1.000  C
  C55      1.0000 0.14139  0.75270  0.55227  Biso   1.000  C
  C56      1.0000 0.30041  0.85270  0.32456  Biso   1.000  C
  C57      1.0000 0.05567  0.60550  0.13487  Biso   1.000  C
  C58      1.0000 0.04499  0.66329  0.93604  Biso   1.000  C
  C59      1.0000 0.18042  0.49862  0.62747  Biso   1.000  C
  C60      1.0000 0.00946  0.72961  0.51800  Biso   1.000  C
  O24      1.0000 0.19798  0.88492  0.35782  Biso   1.000  O
  C61      1.0000 0.11440  0.57890  0.26846  Biso   1.000  C
  C62      1.0000 0.92549  0.57873  0.08607  Biso   1.000  C
  O25      1.0000 0.00357  0.73907  0.96537  Biso   1.000  O
  O26      1.0000 0.18958  0.50888  0.50996  Biso   1.000  O
  O27      1.0000 0.94918  0.79971  0.53043  Biso   1.000  O
  C63      1.0000 0.09033  0.86609  0.25238  Biso   1.000  C
  O28      1.0000 0.11779  0.49658  0.23438  Biso   1.000  O
  O29      1.0000 0.86067  0.62490  0.15123  Biso   1.000  O
  C64      1.0000 0.96112  0.77560  0.84914  Biso   1.000  C
  C65      1.0000 0.16147  0.43871  0.43111  Biso   1.000  C
  C66      1.0000 0.82256  0.78288  0.50969  Biso   1.000  C
  C67      1.0000 0.99249  0.90033  0.29404  Biso   1.000  C
  C68      1.0000 0.20530  0.45720  0.32794  Biso   1.000  C
  C69      1.0000 0.87309  0.67878  0.12464  Biso   1.000  C
  C70      1.0000 0.76921  0.86158  0.51490  Biso   1.000  C
  O30      1.0000 0.00343  0.98412  0.29989  Biso   1.000  O
  O31      1.0000 0.75831  0.88618  0.39245  Biso   1.000  O
  C71      1.0000 0.91683  0.02048  0.34823  Biso   1.000  C
  C72      1.0000 0.70209  0.96058  0.38533  Biso   1.000  C
  C73      1.0000 0.79539  0.00971  0.23867  Biso   1.000  C
  C74      1.0000 0.70106  0.98527  0.26426  Biso   1.000  C
  C75      1.0000 0.79647  0.03619  0.11769  Biso   1.000  C
  C76      1.0000 0.57936  0.98561  0.16658  Biso   1.000  C
  O32      1.0000 0.77430  0.96838  0.03637  Biso   1.000  O
  O33      1.0000 0.52322  0.90498  0.15744  Biso   1.000  O
  C77      1.0000 0.78866  0.98729  0.92407  Biso   1.000  C
  C78      1.0000 0.57215  0.85242  0.07867  Biso   1.000  C
  C79      1.0000 0.55229  0.78307  0.13926  Biso   1.000  C
  O34      1.0000 0.60776  0.72177  0.07246  Biso   1.000  O
  C80      1.0000 0.73041  0.73840  0.06067  Biso   1.000  C
