data_image0
_cell_length_a       11.841
_cell_length_b       17.39
_cell_length_c       11.551
_cell_angle_alpha    95.46
_cell_angle_beta     107.65
_cell_angle_gamma    91.3

_symmetry_space_group_name_H-M    "P 1"
_symmetry_int_tables_number       1

loop_
  _symmetry_equiv_pos_as_xyz
  'x, y, z'

loop_
  _atom_site_label
  _atom_site_occupancy
  _atom_site_fract_x
  _atom_site_fract_y
  _atom_site_fract_z
  _atom_site_thermal_displace_type
  _atom_site_B_iso_or_equiv
  _atom_site_type_symbol
  C1       1.0000 0.48153  0.61991  0.49489  Biso   1.000  C
  C2       1.0000 0.53289  0.61029  0.38524  Biso   1.000  C
  O1       1.0000 0.58351  0.66669  0.58343  Biso   1.000  O
  O2       1.0000 0.43150  0.57619  0.28783  Biso   1.000  O
  C3       1.0000 0.56687  0.68349  0.69801  Biso   1.000  C
  C4       1.0000 0.45250  0.55689  0.17114  Biso   1.000  C
  C5       1.0000 0.46605  0.74250  0.68686  Biso   1.000  C
  C6       1.0000 0.32955  0.55612  0.07246  Biso   1.000  C
  C7       1.0000 0.38188  0.73049  0.73712  Biso   1.000  C
  C8       1.0000 0.48516  0.81028  0.62619  Biso   1.000  C
  O3       1.0000 0.29843  0.62858  0.04761  Biso   1.000  O
  C9       1.0000 0.37659  0.66473  0.81488  Biso   1.000  C
  C10      1.0000 0.29601  0.79790  0.74900  Biso   1.000  C
  O4       1.0000 0.38823  0.80410  0.51133  Biso   1.000  O
  C11      1.0000 0.24013  0.67151  0.12518  Biso   1.000  C
  O5       1.0000 0.33126  0.59482  0.72716  Biso   1.000  O
  O6       1.0000 0.17770  0.76561  0.68586  Biso   1.000  O
  C12      1.0000 0.40326  0.86609  0.43467  Biso   1.000  C
  C13      1.0000 0.11102  0.64269  0.07337  Biso   1.000  C
  C14      1.0000 0.21188  0.57401  0.70624  Biso   1.000  C
  C15      1.0000 0.14139  0.75270  0.55227  Biso   1.000  C
  C16      1.0000 0.30041  0.85270  0.32456  Biso   1.000  C
  C17      1.0000 0.05567  0.60550  0.13487  Biso   1.000  C
  C18      1.0000 0.04499  0.66329  0.93604  Biso   1.000  C
  C19      1.0000 0.18042  0.49862  0.62747  Biso   1.000  C
  C20      1.0000 0.00946  0.72961  0.51800  Biso   1.000  C
  O7       1.0000 0.19798  0.88492  0.35782  Biso   1.000  O
  C21      1.0000 0.11440  0.57890  0.26846  Biso   1.000  C
  C22      1.0000 0.92549  0.57873  0.08607  Biso   1.000  C
  O8       1.0000 0.00357  0.73913  0.96537  Biso   1.000  O
  O9       1.0000 0.18958  0.50888  0.50996  Biso   1.000  O
  O10      1.0000 0.94918  0.79971  0.53043  Biso   1.000  O
  C23      1.0000 0.09033  0.86609  0.25238  Biso   1.000  C
  O11      1.0000 0.11779  0.49658  0.23438  Biso   1.000  O
  O12      1.0000 0.86067  0.62490  0.15123  Biso   1.000  O
  C24      1.0000 0.96112  0.77560  0.84914  Biso   1.000  C
  C25      1.0000 0.16147  0.43871  0.43111  Biso   1.000  C
  C26      1.0000 0.82256  0.78288  0.50969  Biso   1.000  C
  C27      1.0000 0.99249  0.90033  0.29404  Biso   1.000  C
  C28      1.0000 0.20530  0.45720  0.32794  Biso   1.000  C
  C29      1.0000 0.87309  0.67880  0.12491  Biso   1.000  C
  C30      1.0000 0.75151  0.65458  0.07319  Biso   1.000  C
  C31      1.0000 0.93099  0.85353  0.86011  Biso   1.000  C
  C32      1.0000 0.76921  0.86158  0.51490  Biso   1.000  C
  O13      1.0000 0.00343  0.98412  0.29989  Biso   1.000  O
  C33      1.0000 0.73041  0.73840  0.06067  Biso   1.000  C
  C34      1.0000 0.73501  0.71002  0.15278  Biso   1.000  C
  O14      1.0000 0.82894  0.88358  0.81296  Biso   1.000  O
  O15      1.0000 0.83367  0.83982  0.88012  Biso   1.000  O
  O16      1.0000 0.75831  0.88618  0.39245  Biso   1.000  O
  C35      1.0000 0.91675  0.02053  0.34823  Biso   1.000  C
  O17      1.0000 0.60776  0.72177  0.07246  Biso   1.000  O
  C36      1.0000 0.74448  0.92613  0.84238  Biso   1.000  C
  C37      1.0000 0.91240  0.87254  0.91219  Biso   1.000  C
  C38      1.0000 0.73116  0.87478  0.85197  Biso   1.000  C
  C39      1.0000 0.70209  0.96058  0.38533  Biso   1.000  C
  C40      1.0000 0.79539  0.00971  0.23867  Biso   1.000  C
  C41      1.0000 0.55229  0.78307  0.13926  Biso   1.000  C
  C42      1.0000 0.78866  0.98729  0.92407  Biso   1.000  C
  C43      1.0000 0.70106  0.98527  0.26426  Biso   1.000  C
  C44      1.0000 0.79647  0.03625  0.11769  Biso   1.000  C
  C45      1.0000 0.57215  0.85242  0.07867  Biso   1.000  C
  O18      1.0000 0.77430  0.96838  0.03637  Biso   1.000  O
  C46      1.0000 0.57936  0.98561  0.16658  Biso   1.000  C
  O19      1.0000 0.52322  0.90498  0.15744  Biso   1.000  O
