data_image0
_cell_length_a       17.16
_cell_length_b       4.877
_cell_length_c       21.453
_cell_angle_alpha    90
_cell_angle_beta     112.64
_cell_angle_gamma    90

_symmetry_space_group_name_H-M    "P 1"
_symmetry_int_tables_number       1

loop_
  _symmetry_equiv_pos_as_xyz
  'x, y, z'

loop_
  _atom_site_label
  _atom_site_occupancy
  _atom_site_fract_x
  _atom_site_fract_y
  _atom_site_fract_z
  _atom_site_thermal_displace_type
  _atom_site_B_iso_or_equiv
  _atom_site_type_symbol
  C1       1.0000 0.61128  0.04819  0.47051  Biso   1.000  C
  C2       1.0000 0.63559  0.86570  0.43081  Biso   1.000  C
  C3       1.0000 0.54419  0.22493  0.43960  Biso   1.000  C
  O1       1.0000 0.65840  0.03486  0.53839  Biso   1.000  O
  C4       1.0000 0.59209  0.86529  0.36101  Biso   1.000  C
  O2       1.0000 0.70222  0.69859  0.46561  Biso   1.000  O
  C5       1.0000 0.50073  0.22145  0.37000  Biso   1.000  C
  H1       1.0000 0.52713  0.34981  0.46652  Biso   1.000  H
  C6       1.0000 0.64572  0.24072  0.58071  Biso   1.000  C
  H2       1.0000 0.60856  0.74144  0.33349  Biso   1.000  H
  C7       1.0000 0.52542  0.04696  0.33121  Biso   1.000  C
  C8       1.0000 0.73452  0.52840  0.42702  Biso   1.000  C
  H3       1.0000 0.45361  0.34181  0.34899  Biso   1.000  H
  H4       1.0000 0.65732  0.41829  0.56702  Biso   1.000  H
  H5       1.0000 0.58881  0.23621  0.57859  Biso   1.000  H
  C9       1.0000 0.70838  0.17880  0.65218  Biso   1.000  C
  H6       1.0000 0.49608  0.04819  0.28308  Biso   1.000  H
  C10      1.0000 0.80908  0.36846  0.47490  Biso   1.000  C
  H7       1.0000 0.69153  0.40394  0.39980  Biso   1.000  H
  H8       1.0000 0.75257  0.64056  0.39829  Biso   1.000  H
  H9       1.0000 0.70752  0.98647  0.66142  Biso   1.000  H
  O3       1.0000 0.68373  0.35329  0.69480  Biso   1.000  O
  C11      1.0000 0.79991  0.25446  0.66329  Biso   1.000  C
  C12      1.0000 0.88779  0.53270  0.51288  Biso   1.000  C
  H10      1.0000 0.82358  0.23149  0.44909  Biso   1.000  H
  H11      1.0000 0.79199  0.28091  0.50768  Biso   1.000  H
  C13      1.0000 0.69967  0.22288  0.75869  Biso   1.000  C
  H12      1.0000 0.83341  0.27537  0.71061  Biso   1.000  H
  H13      1.0000 0.80069  0.42239  0.64021  Biso   1.000  H
  O4       1.0000 0.83183  0.03506  0.63601  Biso   1.000  O
  O5       1.0000 0.87230  0.70535  0.56051  Biso   1.000  O
  H14      1.0000 0.90090  0.64507  0.48152  Biso   1.000  H
  H15      1.0000 0.93443  0.41255  0.53581  Biso   1.000  H
  H16      1.0000 0.67880  0.34406  0.78410  Biso   1.000  H
  H17      1.0000 0.75911  0.19500  0.78278  Biso   1.000  H
  H18      1.0000 0.67081  0.05003  0.75248  Biso   1.000  H
  C14      1.0000 0.91352  0.05680  0.64071  Biso   1.000  C
  C15      1.0000 0.93601  0.87554  0.59940  Biso   1.000  C
  C16      1.0000 0.97260  0.23642  0.68172  Biso   1.000  C
  C17      1.0000 0.01728  0.87820  0.60081  Biso   1.000  C
  H19      1.0000 0.95752  0.36231  0.70960  Biso   1.000  H
  C18      1.0000 0.05497  0.23826  0.68349  Biso   1.000  C
  H20      1.0000 0.03317  0.75251  0.57329  Biso   1.000  H
  C19      1.0000 0.07647  0.06090  0.64278  Biso   1.000  C
  H21      1.0000 0.09647  0.36067  0.71329  Biso   1.000  H
  H22      1.0000 0.13250  0.06561  0.64309  Biso   1.000  H
  C20      1.0000 0.38867  0.95181  0.52950  Biso   1.000  C
  C21      1.0000 0.36442  0.13430  0.56920  Biso   1.000  C
  C22      1.0000 0.45582  0.77507  0.56041  Biso   1.000  C
  O6       1.0000 0.34161  0.96514  0.46162  Biso   1.000  O
  O7       1.0000 0.29779  0.30141  0.53440  Biso   1.000  O
  C23      1.0000 0.40792  0.13471  0.63899  Biso   1.000  C
  C24      1.0000 0.49928  0.77855  0.63000  Biso   1.000  C
  H23      1.0000 0.47288  0.65019  0.53349  Biso   1.000  H
  C25      1.0000 0.35429  0.75928  0.41930  Biso   1.000  C
  C26      1.0000 0.26549  0.47160  0.57298  Biso   1.000  C
  H24      1.0000 0.39139  0.25856  0.66652  Biso   1.000  H
  C27      1.0000 0.47459  0.95304  0.66879  Biso   1.000  C
  H25      1.0000 0.54640  0.65819  0.65101  Biso   1.000  H
  C28      1.0000 0.29161  0.82120  0.34778  Biso   1.000  C
  H26      1.0000 0.34269  0.58171  0.43298  Biso   1.000  H
  H27      1.0000 0.41120  0.76379  0.42142  Biso   1.000  H
  C29      1.0000 0.19093  0.63154  0.52510  Biso   1.000  C
  H28      1.0000 0.30848  0.59606  0.60021  Biso   1.000  H
  H29      1.0000 0.24738  0.35944  0.60172  Biso   1.000  H
  H30      1.0000 0.50393  0.95181  0.71692  Biso   1.000  H
  C30      1.0000 0.20010  0.74554  0.33672  Biso   1.000  C
  H31      1.0000 0.29249  0.01353  0.33859  Biso   1.000  H
  O8       1.0000 0.31628  0.64671  0.30520  Biso   1.000  O
  C31      1.0000 0.11222  0.46730  0.48712  Biso   1.000  C
  H32      1.0000 0.17643  0.76851  0.55091  Biso   1.000  H
  H33      1.0000 0.20800  0.71909  0.49228  Biso   1.000  H
  O9       1.0000 0.16818  0.96494  0.36399  Biso   1.000  O
  H34      1.0000 0.16660  0.72463  0.28940  Biso   1.000  H
  H35      1.0000 0.19932  0.57761  0.35980  Biso   1.000  H
  C32      1.0000 0.30028  0.77712  0.24131  Biso   1.000  C
  O10      1.0000 0.12771  0.29465  0.43950  Biso   1.000  O
  H36      1.0000 0.09911  0.35493  0.51849  Biso   1.000  H
  H37      1.0000 0.06558  0.58745  0.46420  Biso   1.000  H
  C33      1.0000 0.08649  0.94320  0.35930  Biso   1.000  C
  H38      1.0000 0.32121  0.65594  0.21591  Biso   1.000  H
  H39      1.0000 0.24090  0.80500  0.21722  Biso   1.000  H
  H40      1.0000 0.32918  0.94997  0.24748  Biso   1.000  H
  C34      1.0000 0.06400  0.12446  0.40061  Biso   1.000  C
  C35      1.0000 0.02741  0.76358  0.31828  Biso   1.000  C
  C36      1.0000 0.98267  0.12180  0.39919  Biso   1.000  C
  C37      1.0000 0.94504  0.76174  0.31652  Biso   1.000  C
  H41      1.0000 0.04249  0.63769  0.29041  Biso   1.000  H
  C38      1.0000 0.92348  0.93910  0.35722  Biso   1.000  C
  H42      1.0000 0.96684  0.24749  0.42672  Biso   1.000  H
  H43      1.0000 0.90348  0.63933  0.28672  Biso   1.000  H
  H44      1.0000 0.86751  0.93439  0.35692  Biso   1.000  H
  C39      1.0000 0.69967  0.27722  0.25869  Biso   1.000  C
  O11      1.0000 0.68372  0.14661  0.19480  Biso   1.000  O
  H45      1.0000 0.67879  0.15604  0.28409  Biso   1.000  H
  H46      1.0000 0.75910  0.30490  0.28278  Biso   1.000  H
  H47      1.0000 0.67080  0.45007  0.25248  Biso   1.000  H
  C40      1.0000 0.70840  0.32130  0.15222  Biso   1.000  C
  C41      1.0000 0.64572  0.25938  0.08071  Biso   1.000  C
  H48      1.0000 0.70752  0.51364  0.16142  Biso   1.000  H
  C42      1.0000 0.79991  0.24564  0.16328  Biso   1.000  C
  O12      1.0000 0.65839  0.46504  0.03838  Biso   1.000  O
  H49      1.0000 0.65731  0.08161  0.06702  Biso   1.000  H
  H50      1.0000 0.58881  0.26369  0.07859  Biso   1.000  H
  H51      1.0000 0.83340  0.22473  0.21061  Biso   1.000  H
  H52      1.0000 0.80069  0.07771  0.14020  Biso   1.000  H
  O13      1.0000 0.83183  0.46483  0.13601  Biso   1.000  O
  C43      1.0000 0.61133  0.45192  0.97050  Biso   1.000  C
  C44      1.0000 0.91352  0.44331  0.14071  Biso   1.000  C
  C45      1.0000 0.63558  0.63441  0.93081  Biso   1.000  C
  C46      1.0000 0.54418  0.27517  0.93960  Biso   1.000  C
  C47      1.0000 0.97259  0.26348  0.18172  Biso   1.000  C
  C48      1.0000 0.93600  0.62456  0.09939  Biso   1.000  C
  O14      1.0000 0.70221  0.80131  0.96561  Biso   1.000  O
  C49      1.0000 0.59209  0.63461  0.86101  Biso   1.000  C
  C50      1.0000 0.50072  0.27865  0.87000  Biso   1.000  C
  H53      1.0000 0.52713  0.15009  0.96651  Biso   1.000  H
  H54      1.0000 0.95751  0.13779  0.20960  Biso   1.000  H
  C51      1.0000 0.05497  0.26164  0.18349  Biso   1.000  C
  O15      1.0000 0.87230  0.79455  0.06051  Biso   1.000  O
  C52      1.0000 0.01728  0.62190  0.10081  Biso   1.000  C
  C53      1.0000 0.73452  0.97170  0.92702  Biso   1.000  C
  H55      1.0000 0.60862  0.75846  0.83348  Biso   1.000  H
  C54      1.0000 0.52542  0.45294  0.83121  Biso   1.000  C
  H56      1.0000 0.45361  0.15809  0.84899  Biso   1.000  H
  H57      1.0000 0.09646  0.13943  0.21328  Biso   1.000  H
  C55      1.0000 0.07646  0.43900  0.14278  Biso   1.000  C
  C56      1.0000 0.88778  0.96740  0.01288  Biso   1.000  C
  H58      1.0000 0.03317  0.74739  0.07328  Biso   1.000  H
  H59      1.0000 0.75256  0.85954  0.89828  Biso   1.000  H
  C57      1.0000 0.80907  0.13143  0.97490  Biso   1.000  C
  H60      1.0000 0.69152  0.09596  0.89980  Biso   1.000  H
  H61      1.0000 0.49607  0.45192  0.78308  Biso   1.000  H
  H62      1.0000 0.13249  0.43449  0.14308  Biso   1.000  H
  H63      1.0000 0.90089  0.85503  0.98152  Biso   1.000  H
  H64      1.0000 0.93442  0.08735  0.03581  Biso   1.000  H
  H65      1.0000 0.82358  0.26861  0.94909  Biso   1.000  H
  H66      1.0000 0.79198  0.21899  0.00768  Biso   1.000  H
  C58      1.0000 0.30028  0.72278  0.74132  Biso   1.000  C
  O16      1.0000 0.31629  0.85339  0.80521  Biso   1.000  O
  H67      1.0000 0.32122  0.84396  0.71591  Biso   1.000  H
  H68      1.0000 0.24088  0.69510  0.71718  Biso   1.000  H
  H69      1.0000 0.32918  0.54993  0.74748  Biso   1.000  H
  C59      1.0000 0.29161  0.67870  0.84778  Biso   1.000  C
  C60      1.0000 0.35429  0.74062  0.91930  Biso   1.000  C
  H70      1.0000 0.29249  0.48636  0.83859  Biso   1.000  H
  C61      1.0000 0.20010  0.75436  0.83672  Biso   1.000  C
  O17      1.0000 0.34162  0.53496  0.96162  Biso   1.000  O
  H71      1.0000 0.34270  0.91839  0.93299  Biso   1.000  H
  H72      1.0000 0.41120  0.73631  0.92142  Biso   1.000  H
  H73      1.0000 0.16661  0.77527  0.78940  Biso   1.000  H
  H74      1.0000 0.19932  0.92229  0.85980  Biso   1.000  H
  O18      1.0000 0.16818  0.53517  0.86400  Biso   1.000  O
  C62      1.0000 0.38868  0.54808  0.02950  Biso   1.000  C
  C63      1.0000 0.08649  0.55669  0.85930  Biso   1.000  C
  C64      1.0000 0.36443  0.36559  0.06920  Biso   1.000  C
  C65      1.0000 0.45583  0.72483  0.06041  Biso   1.000  C
  C66      1.0000 0.02742  0.73652  0.81829  Biso   1.000  C
  C67      1.0000 0.06401  0.37544  0.90061  Biso   1.000  C
  O19      1.0000 0.29780  0.19869  0.03440  Biso   1.000  O
  C68      1.0000 0.40792  0.36539  0.13900  Biso   1.000  C
  C69      1.0000 0.49928  0.72135  0.13001  Biso   1.000  C
  H75      1.0000 0.47288  0.84991  0.03349  Biso   1.000  H
  H76      1.0000 0.04250  0.86221  0.79041  Biso   1.000  H
  C70      1.0000 0.94498  0.73836  0.81652  Biso   1.000  C
  O20      1.0000 0.12771  0.20545  0.93950  Biso   1.000  O
  C71      1.0000 0.98267  0.37810  0.89920  Biso   1.000  C
  C72      1.0000 0.26549  0.02830  0.07299  Biso   1.000  C
  H77      1.0000 0.39139  0.24154  0.16652  Biso   1.000  H
  C73      1.0000 0.47459  0.54706  0.16880  Biso   1.000  C
  H78      1.0000 0.54640  0.84191  0.15102  Biso   1.000  H
  H79      1.0000 0.90349  0.86057  0.78672  Biso   1.000  H
  C74      1.0000 0.92347  0.56100  0.85718  Biso   1.000  C
  C75      1.0000 0.11220  0.03260  0.98708  Biso   1.000  C
  H80      1.0000 0.96678  0.25261  0.92672  Biso   1.000  H
  C76      1.0000 0.19088  0.86857  0.02511  Biso   1.000  C
  H81      1.0000 0.30849  0.90404  0.10021  Biso   1.000  H
  H82      1.0000 0.24739  0.14046  0.10172  Biso   1.000  H
  H83      1.0000 0.50391  0.54808  0.21688  Biso   1.000  H
  H84      1.0000 0.86752  0.56551  0.85692  Biso   1.000  H
  H85      1.0000 0.06559  0.91265  0.96420  Biso   1.000  H
  H86      1.0000 0.09912  0.14497  0.01849  Biso   1.000  H
  H87      1.0000 0.20800  0.78101  0.99228  Biso   1.000  H
  H88      1.0000 0.17643  0.73139  0.05092  Biso   1.000  H
