data_image0
_cell_length_a       8.293
_cell_length_b       12.026
_cell_length_c       15.361
_cell_angle_alpha    90
_cell_angle_beta     90
_cell_angle_gamma    90

_symmetry_space_group_name_H-M    "P 1"
_symmetry_int_tables_number       1

loop_
  _symmetry_equiv_pos_as_xyz
  'x, y, z'

loop_
  _atom_site_label
  _atom_site_occupancy
  _atom_site_fract_x
  _atom_site_fract_y
  _atom_site_fract_z
  _atom_site_thermal_displace_type
  _atom_site_B_iso_or_equiv
  _atom_site_type_symbol
  O1       1.0000 0.48414  0.40188  0.48161  Biso   1.000  O
  C1       1.0000 0.34198  0.42774  0.48291  Biso   1.000  C
  N1       1.0000 0.29326  0.53002  0.49092  Biso   1.000  N
  S1       1.0000 0.17063  0.34218  0.48259  Biso   1.000  S
  C2       1.0000 0.39467  0.62814  0.49847  Biso   1.000  C
  N2       1.0000 0.12637  0.55222  0.49242  Biso   1.000  N
  C3       1.0000 0.04896  0.46000  0.48760  Biso   1.000  C
  C4       1.0000 0.37345  0.70921  0.42237  Biso   1.000  C
  H1       1.0000 0.36935  0.66622  0.55237  Biso   1.000  H
  H2       1.0000 0.50669  0.60502  0.50127  Biso   1.000  H
  S2       1.0000 0.84131  0.45152  0.48929  Biso   1.000  S
  O2       1.0000 0.41770  0.65051  0.34470  Biso   1.000  O
  H3       1.0000 0.44206  0.77374  0.43031  Biso   1.000  H
  H4       1.0000 0.26239  0.73391  0.41892  Biso   1.000  H
  C5       1.0000 0.81105  0.39739  0.37543  Biso   1.000  C
  C6       1.0000 0.37755  0.70680  0.26899  Biso   1.000  C
  H5       1.0000 0.70951  0.35822  0.36860  Biso   1.000  H
  H6       1.0000 0.89955  0.35082  0.35610  Biso   1.000  H
  C7       1.0000 0.81044  0.49751  0.33650  Biso   1.000  C
  C8       1.0000 0.39539  0.63371  0.19432  Biso   1.000  C
  H7       1.0000 0.26685  0.73266  0.27270  Biso   1.000  H
  H8       1.0000 0.44700  0.77108  0.26222  Biso   1.000  H
  H9       1.0000 0.70963  0.53650  0.34581  Biso   1.000  H
  H10      1.0000 0.89943  0.54357  0.35610  Biso   1.000  H
  N3       1.0000 0.28614  0.53767  0.19868  Biso   1.000  N
  H11      1.0000 0.37345  0.67529  0.14153  Biso   1.000  H
  H12      1.0000 0.50585  0.60743  0.19152  Biso   1.000  H
  C9       1.0000 0.34644  0.42907  0.20728  Biso   1.000  C
  N4       1.0000 0.12492  0.55172  0.19823  Biso   1.000  N
  S3       1.0000 0.17159  0.34151  0.21040  Biso   1.000  S
  O3       1.0000 0.48161  0.39664  0.21281  Biso   1.000  O
  C10      1.0000 0.05306  0.45817  0.20331  Biso   1.000  C
  S4       1.0000 0.83914  0.44811  0.20357  Biso   1.000  S
  O4       1.0000 0.51839  0.60336  0.71278  Biso   1.000  O
  C11      1.0000 0.65356  0.57093  0.70731  Biso   1.000  C
  N5       1.0000 0.71386  0.46233  0.69872  Biso   1.000  N
  S5       1.0000 0.82841  0.65849  0.71037  Biso   1.000  S
  C12      1.0000 0.60461  0.36629  0.69429  Biso   1.000  C
  N6       1.0000 0.87508  0.44828  0.69820  Biso   1.000  N
  C13      1.0000 0.94694  0.54183  0.70327  Biso   1.000  C
  H13      1.0000 0.62655  0.32471  0.64149  Biso   1.000  H
  H14      1.0000 0.49415  0.39257  0.69149  Biso   1.000  H
  C14      1.0000 0.62245  0.29320  0.76903  Biso   1.000  C
  S6       1.0000 0.16086  0.55189  0.70353  Biso   1.000  S
  H15      1.0000 0.73315  0.26734  0.77267  Biso   1.000  H
  H16      1.0000 0.55300  0.22892  0.76219  Biso   1.000  H
  O5       1.0000 0.58230  0.34949  0.84467  Biso   1.000  O
  C15      1.0000 0.62655  0.29079  0.92240  Biso   1.000  C
  H17      1.0000 0.55794  0.22626  0.93028  Biso   1.000  H
  H18      1.0000 0.73761  0.26609  0.91889  Biso   1.000  H
  C16      1.0000 0.60533  0.37186  0.99850  Biso   1.000  C
  N7       1.0000 0.70674  0.46998  0.99089  Biso   1.000  N
  H19      1.0000 0.63065  0.33378  0.05241  Biso   1.000  H
  H20      1.0000 0.49331  0.39498  0.00130  Biso   1.000  H
  N8       1.0000 0.87363  0.44778  0.99238  Biso   1.000  N
  C17      1.0000 0.65802  0.57226  0.98288  Biso   1.000  C
  C18      1.0000 0.95104  0.54000  0.98763  Biso   1.000  C
  S7       1.0000 0.82937  0.65782  0.98262  Biso   1.000  S
  O6       1.0000 0.51586  0.59812  0.98158  Biso   1.000  O
  S8       1.0000 0.15869  0.54848  0.98932  Biso   1.000  S
  C19      1.0000 0.18895  0.60261  0.87540  Biso   1.000  C
  H21      1.0000 0.29049  0.64178  0.86863  Biso   1.000  H
  H22      1.0000 0.10045  0.64918  0.85613  Biso   1.000  H
  C20      1.0000 0.18956  0.50249  0.83647  Biso   1.000  C
  H23      1.0000 0.29037  0.46350  0.84578  Biso   1.000  H
  H24      1.0000 0.10057  0.45643  0.85613  Biso   1.000  H
  S9       1.0000 0.32835  0.84151  0.71037  Biso   1.000  S
  C21      1.0000 0.44700  0.95817  0.70327  Biso   1.000  C
  C22      1.0000 0.15362  0.92907  0.70731  Biso   1.000  C
  S10      1.0000 0.66092  0.94811  0.70353  Biso   1.000  S
  N9       1.0000 0.37514  0.05172  0.69820  Biso   1.000  N
  O7       1.0000 0.01845  0.89664  0.71278  Biso   1.000  O
  N10      1.0000 0.21392  0.03767  0.69872  Biso   1.000  N
  C23      1.0000 0.10455  0.13371  0.69429  Biso   1.000  C
  H25      1.0000 0.99421  0.10743  0.69149  Biso   1.000  H
  H26      1.0000 0.12649  0.17529  0.64149  Biso   1.000  H
  C24      1.0000 0.12251  0.20680  0.76903  Biso   1.000  C
  H27      1.0000 0.23309  0.23266  0.77267  Biso   1.000  H
  H28      1.0000 0.05306  0.27108  0.76219  Biso   1.000  H
  O8       1.0000 0.08236  0.15051  0.84467  Biso   1.000  O
  C25      1.0000 0.12649  0.20921  0.92240  Biso   1.000  C
  H29      1.0000 0.05788  0.27374  0.93028  Biso   1.000  H
  H30      1.0000 0.23755  0.23391  0.91889  Biso   1.000  H
  C26      1.0000 0.10527  0.12814  0.99850  Biso   1.000  C
  H31      1.0000 0.99325  0.10502  0.00130  Biso   1.000  H
  N11      1.0000 0.20680  0.03002  0.99089  Biso   1.000  N
  H32      1.0000 0.13071  0.16622  0.05241  Biso   1.000  H
  C27      1.0000 0.15796  0.92774  0.98288  Biso   1.000  C
  N12      1.0000 0.37357  0.05222  0.99238  Biso   1.000  N
  S11      1.0000 0.32943  0.84218  0.98262  Biso   1.000  S
  O9       1.0000 0.01592  0.90188  0.98158  Biso   1.000  O
  C28      1.0000 0.45110  0.96000  0.98763  Biso   1.000  C
  S12      1.0000 0.65875  0.95152  0.98932  Biso   1.000  S
  C29      1.0000 0.68901  0.89739  0.87540  Biso   1.000  C
  H33      1.0000 0.79055  0.85822  0.86863  Biso   1.000  H
  H34      1.0000 0.60051  0.85082  0.85613  Biso   1.000  H
  C30      1.0000 0.68950  0.99751  0.83647  Biso   1.000  C
  H35      1.0000 0.79043  0.03650  0.84578  Biso   1.000  H
  H36      1.0000 0.60063  0.04357  0.85613  Biso   1.000  H
  S13      1.0000 0.67057  0.15782  0.48259  Biso   1.000  S
  C31      1.0000 0.84204  0.07226  0.48291  Biso   1.000  C
  C32      1.0000 0.54890  0.04000  0.48760  Biso   1.000  C
  N13      1.0000 0.79320  0.96998  0.49092  Biso   1.000  N
  O10      1.0000 0.98408  0.09812  0.48161  Biso   1.000  O
  N14      1.0000 0.62643  0.94778  0.49242  Biso   1.000  N
  S14      1.0000 0.34125  0.04848  0.48929  Biso   1.000  S
  C33      1.0000 0.89473  0.87186  0.49847  Biso   1.000  C
  C34      1.0000 0.31099  0.10261  0.37543  Biso   1.000  C
  C35      1.0000 0.87351  0.79079  0.42237  Biso   1.000  C
  H37      1.0000 0.86929  0.83378  0.55237  Biso   1.000  H
  H38      1.0000 0.00675  0.89498  0.50127  Biso   1.000  H
  H39      1.0000 0.20945  0.14178  0.36860  Biso   1.000  H
  H40      1.0000 0.39949  0.14918  0.35610  Biso   1.000  H
  C36      1.0000 0.31050  0.00249  0.33650  Biso   1.000  C
  O11      1.0000 0.91764  0.84949  0.34470  Biso   1.000  O
  H41      1.0000 0.94212  0.72626  0.43031  Biso   1.000  H
  H42      1.0000 0.76245  0.76609  0.41892  Biso   1.000  H
  H43      1.0000 0.20957  0.96350  0.34581  Biso   1.000  H
  H44      1.0000 0.39937  0.95643  0.35610  Biso   1.000  H
  C37      1.0000 0.87749  0.79320  0.26899  Biso   1.000  C
  C38      1.0000 0.89545  0.86629  0.19432  Biso   1.000  C
  H45      1.0000 0.76691  0.76734  0.27270  Biso   1.000  H
  H46      1.0000 0.94694  0.72892  0.26222  Biso   1.000  H
  N15      1.0000 0.78608  0.96233  0.19868  Biso   1.000  N
  H47      1.0000 0.87351  0.82471  0.14153  Biso   1.000  H
  H48      1.0000 0.00579  0.89257  0.19152  Biso   1.000  H
  N16      1.0000 0.62486  0.94828  0.19823  Biso   1.000  N
  C39      1.0000 0.84638  0.07093  0.20728  Biso   1.000  C
  C40      1.0000 0.55300  0.04183  0.20331  Biso   1.000  C
  S15      1.0000 0.67165  0.15849  0.21040  Biso   1.000  S
  O12      1.0000 0.98155  0.10336  0.21281  Biso   1.000  O
  S16      1.0000 0.33908  0.05189  0.20357  Biso   1.000  S
