data_image0
_cell_length_a       12.601
_cell_length_b       12.896
_cell_length_c       23.503
_cell_angle_alpha    85.95
_cell_angle_beta     86.29
_cell_angle_gamma    86.75

_symmetry_space_group_name_H-M    "P 1"
_symmetry_int_tables_number       1

loop_
  _symmetry_equiv_pos_as_xyz
  'x, y, z'

loop_
  _atom_site_label
  _atom_site_occupancy
  _atom_site_fract_x
  _atom_site_fract_y
  _atom_site_fract_z
  _atom_site_thermal_displace_type
  _atom_site_B_iso_or_equiv
  _atom_site_type_symbol
  C1       1.0000 0.56377  0.35049  0.48114  Biso   1.000  C
  C2       1.0000 0.59374  0.31796  0.42071  Biso   1.000  C
  C3       1.0000 0.61554  0.27957  0.52746  Biso   1.000  C
  H1       1.0000 0.58489  0.42105  0.48396  Biso   1.000  H
  H2       1.0000 0.48708  0.35051  0.48789  Biso   1.000  H
  C4       1.0000 0.53213  0.38056  0.37503  Biso   1.000  C
  H3       1.0000 0.66928  0.32607  0.41225  Biso   1.000  H
  H4       1.0000 0.58071  0.24484  0.41913  Biso   1.000  H
  H5       1.0000 0.59234  0.20956  0.52520  Biso   1.000  H
  H6       1.0000 0.69210  0.27736  0.51951  Biso   1.000  H
  C5       1.0000 0.59096  0.31168  0.58814  Biso   1.000  C
  C6       1.0000 0.55532  0.34280  0.31486  Biso   1.000  C
  H7       1.0000 0.54958  0.45293  0.37456  Biso   1.000  H
  H8       1.0000 0.45652  0.37707  0.38516  Biso   1.000  H
  H9       1.0000 0.63123  0.26458  0.61374  Biso   1.000  H
  H10      1.0000 0.61626  0.38081  0.59058  Biso   1.000  H
  C7       1.0000 0.47720  0.31278  0.60896  Biso   1.000  C
  C8       1.0000 0.53228  0.22842  0.31149  Biso   1.000  C
  C9       1.0000 0.49666  0.40929  0.26914  Biso   1.000  C
  H11      1.0000 0.63165  0.34893  0.30542  Biso   1.000  H
  H12      1.0000 0.43634  0.36042  0.58464  Biso   1.000  H
  H13      1.0000 0.47004  0.33457  0.64729  Biso   1.000  H
  H14      1.0000 0.45157  0.24419  0.60840  Biso   1.000  H
  C10      1.0000 0.43980  0.18858  0.33879  Biso   1.000  C
  C11      1.0000 0.60013  0.15905  0.28179  Biso   1.000  C
  C12      1.0000 0.39778  0.46095  0.27986  Biso   1.000  C
  C13      1.0000 0.54238  0.41935  0.21363  Biso   1.000  C
  C14      1.0000 0.41474  0.08451  0.33935  Biso   1.000  C
  H15      1.0000 0.39226  0.23419  0.35768  Biso   1.000  H
  C15      1.0000 0.57801  0.05500  0.28093  Biso   1.000  C
  O1       1.0000 0.69674  0.19149  0.25538  Biso   1.000  O
  C16      1.0000 0.34401  0.51989  0.23743  Biso   1.000  C
  H16      1.0000 0.36631  0.45588  0.31683  Biso   1.000  H
  C17      1.0000 0.49286  0.47802  0.17029  Biso   1.000  C
  O2       1.0000 0.64594  0.37731  0.20431  Biso   1.000  O
  C18      1.0000 0.31221  0.04797  0.37072  Biso   1.000  C
  C19      1.0000 0.48602  0.01821  0.30926  Biso   1.000  C
  H17      1.0000 0.62491  0.00979  0.26132  Biso   1.000  H
  C20      1.0000 0.69952  0.19859  0.19606  Biso   1.000  C
  C21      1.0000 0.23648  0.57864  0.24794  Biso   1.000  C
  C22      1.0000 0.39329  0.52468  0.18247  Biso   1.000  C
  H18      1.0000 0.52578  0.48575  0.13380  Biso   1.000  H
  C23      1.0000 0.66560  0.29725  0.16867  Biso   1.000  C
  C24      1.0000 0.22023  0.07072  0.33149  Biso   1.000  C
  C25      1.0000 0.29115  0.09181  0.42943  Biso   1.000  C
  H19      1.0000 0.32083  0.97215  0.37717  Biso   1.000  H
  O3       1.0000 0.46917  0.91130  0.31029  Biso   1.000  O
  C26      1.0000 0.73691  0.11681  0.16559  Biso   1.000  C
  C27      1.0000 0.14770  0.51237  0.23226  Biso   1.000  C
  H20      1.0000 0.23593  0.64070  0.22132  Biso   1.000  H
  C28      1.0000 0.21947  0.61672  0.30807  Biso   1.000  C
  O4       1.0000 0.34345  0.59000  0.14123  Biso   1.000  O
  C29      1.0000 0.66376  0.31117  0.11081  Biso   1.000  C
  C30      1.0000 0.15339  0.16044  0.33328  Biso   1.000  C
  C31      1.0000 0.20109  0.00048  0.29174  Biso   1.000  C
  C32      1.0000 0.38014  0.06111  0.46960  Biso   1.000  C
  H21      1.0000 0.28348  0.16713  0.42456  Biso   1.000  H
  H22      1.0000 0.22464  0.06685  0.44678  Biso   1.000  H
  C33      1.0000 0.44283  0.87861  0.25815  Biso   1.000  C
  C34      1.0000 0.73860  0.13054  0.10487  Biso   1.000  C
  H23      1.0000 0.76064  0.05416  0.18380  Biso   1.000  H
  C35      1.0000 0.11100  0.43122  0.26961  Biso   1.000  C
  C36      1.0000 0.10096  0.52694  0.17987  Biso   1.000  C
  H24      1.0000 0.28035  0.65523  0.31580  Biso   1.000  H
  H25      1.0000 0.21656  0.55675  0.33537  Biso   1.000  H
  C37      1.0000 0.11833  0.68597  0.31717  Biso   1.000  C
  C38      1.0000 0.30211  0.55118  0.09478  Biso   1.000  C
  H26      1.0000 0.64020  0.37459  0.09333  Biso   1.000  H
  C39      1.0000 0.69883  0.22650  0.07790  Biso   1.000  C
  C40      1.0000 0.07061  0.18225  0.29657  Biso   1.000  C
  H27      1.0000 0.16414  0.20795  0.36007  Biso   1.000  H
  C41      1.0000 0.11920  0.01778  0.25512  Biso   1.000  C
  O5       1.0000 0.26174  0.90612  0.29294  Biso   1.000  O
  H28      1.0000 0.44503  0.09244  0.45413  Biso   1.000  H
  C42      1.0000 0.35499  0.09427  0.52986  Biso   1.000  C
  H29      1.0000 0.39304  0.98614  0.47105  Biso   1.000  H
  C43      1.0000 0.33104  0.88363  0.24700  Biso   1.000  C
  C44      1.0000 0.51869  0.84015  0.22021  Biso   1.000  C
  N1       1.0000 0.77628  0.06127  0.06731  Biso   1.000  N
  C45      1.0000 0.03248  0.36586  0.25726  Biso   1.000  C
  H30      1.0000 0.14072  0.42014  0.30486  Biso   1.000  H
  C46      1.0000 0.02205  0.46464  0.16602  Biso   1.000  C
  O6       1.0000 0.13311  0.60742  0.13978  Biso   1.000  O
  H31      1.0000 0.11769  0.74291  0.28790  Biso   1.000  H
  H32      1.0000 0.05668  0.64581  0.31341  Biso   1.000  H
  C47      1.0000 0.11110  0.72983  0.37576  Biso   1.000  C
  C48      1.0000 0.18811  0.56836  0.09209  Biso   1.000  C
  C49      1.0000 0.36281  0.50789  0.05192  Biso   1.000  C
  N2       1.0000 0.70486  0.22799  0.02064  Biso   1.000  N
  C50      1.0000 0.05672  0.10972  0.25713  Biso   1.000  C
  C51      1.0000 0.99503  0.27928  0.30016  Biso   1.000  C
  H33      1.0000 0.10624  0.96862  0.22965  Biso   1.000  H
  C52      1.0000 0.26723  0.06668  0.56870  Biso   1.000  C
  H34      1.0000 0.32035  0.16339  0.52990  Biso   1.000  H
  H35      1.0000 0.41855  0.09236  0.55122  Biso   1.000  H
  C53      1.0000 0.27153  0.00179  0.55571  Biso   1.000  C
  C54      1.0000 0.29788  0.85975  0.19589  Biso   1.000  C
  C55      1.0000 0.48580  0.81286  0.16653  Biso   1.000  C
  H36      1.0000 0.58968  0.83201  0.22897  Biso   1.000  H
  S1       1.0000 0.75903  0.11646  0.00415  Biso   1.000  S
  C56      1.0000 0.98976  0.38394  0.20405  Biso   1.000  C
  H37      1.0000 0.99069  0.47689  0.13128  Biso   1.000  H
  H38      1.0000 0.18079  0.75212  0.38332  Biso   1.000  H
  H39      1.0000 0.09335  0.67431  0.40418  Biso   1.000  H
  C57      1.0000 0.02753  0.82406  0.38379  Biso   1.000  C
  H40      1.0000 0.12428  0.67379  0.40460  Biso   1.000  H
  H41      1.0000 0.16567  0.77953  0.37708  Biso   1.000  H
  C58      1.0000 0.00272  0.78315  0.38939  Biso   1.000  C
  C59      1.0000 0.13639  0.54677  0.04577  Biso   1.000  C
  C60      1.0000 0.31036  0.47797  0.00444  Biso   1.000  C
  H42      1.0000 0.43626  0.49812  0.05363  Biso   1.000  H
  O7       1.0000 0.97079  0.12505  0.22204  Biso   1.000  O
  H43      1.0000 0.92532  0.26028  0.28918  Biso   1.000  H
  C61      1.0000 0.97935  0.31585  0.36119  Biso   1.000  C
  H44      1.0000 0.20033  0.08505  0.55131  Biso   1.000  H
  H45      1.0000 0.26823  0.10338  0.60327  Biso   1.000  H
  C62      1.0000 0.23507  0.02008  0.61695  Biso   1.000  C
  C63      1.0000 0.27839  0.95114  0.58242  Biso   1.000  C
  H46      1.0000 0.21032  0.00393  0.53255  Biso   1.000  H
  H47      1.0000 0.27432  0.91596  0.54755  Biso   1.000  H
  H48      1.0000 0.30768  0.93358  0.55396  Biso   1.000  H
  C64      1.0000 0.37610  0.82730  0.15388  Biso   1.000  C
  H49      1.0000 0.22602  0.86451  0.18871  Biso   1.000  H
  N3       1.0000 0.54840  0.77550  0.12342  Biso   1.000  N
  O8       1.0000 0.91165  0.32009  0.18760  Biso   1.000  O
  H50      1.0000 0.02849  0.86813  0.34866  Biso   1.000  H
  C65      1.0000 0.04468  0.89179  0.43332  Biso   1.000  C
  H51      1.0000 0.95711  0.79684  0.38982  Biso   1.000  H
  H52      1.0000 0.99279  0.84427  0.36336  Biso   1.000  H
  C66      1.0000 0.99236  0.81518  0.44999  Biso   1.000  C
  H53      1.0000 0.94739  0.73613  0.38388  Biso   1.000  H
  C67      1.0000 0.19774  0.49931  0.00081  Biso   1.000  C
  H54      1.0000 0.06378  0.56235  0.04355  Biso   1.000  H
  N4       1.0000 0.35531  0.42963  0.95966  Biso   1.000  N
  C68      1.0000 0.99113  0.15275  0.16448  Biso   1.000  C
  H55      1.0000 0.04750  0.33530  0.37302  Biso   1.000  H
  H56      1.0000 0.95628  0.25804  0.38678  Biso   1.000  H
  C69      1.0000 0.89883  0.40766  0.36747  Biso   1.000  C
  H57      1.0000 0.29716  0.01795  0.63938  Biso   1.000  H
  H58      1.0000 0.20130  0.08953  0.61806  Biso   1.000  H
  C70      1.0000 0.19260  0.91043  0.62699  Biso   1.000  C
  C71      1.0000 0.15806  0.94326  0.64489  Biso   1.000  C
  H59      1.0000 0.34806  0.93370  0.59678  Biso   1.000  H
  N5       1.0000 0.35753  0.80367  0.10077  Biso   1.000  N
  S2       1.0000 0.47101  0.76394  0.07192  Biso   1.000  S
  C72      1.0000 0.95189  0.25549  0.14559  Biso   1.000  C
  H60      1.0000 0.11415  0.92075  0.42704  Biso   1.000  H
  C73      1.0000 0.03755  0.83356  0.49212  Biso   1.000  C
  H61      1.0000 0.06950  0.95145  0.43768  Biso   1.000  H
  H62      1.0000 0.99164  0.94940  0.43281  Biso   1.000  H
  C74      1.0000 0.07462  0.89036  0.46340  Biso   1.000  C
  H63      1.0000 0.96838  0.80614  0.49909  Biso   1.000  H
  H64      1.0000 0.99902  0.75331  0.47580  Biso   1.000  H
  H65      1.0000 0.92183  0.84737  0.45734  Biso   1.000  H
  N6       1.0000 0.15975  0.46678  0.95312  Biso   1.000  N
  S3       1.0000 0.26076  0.41307  0.91795  Biso   1.000  S
  C75      1.0000 0.03731  0.08565  0.12705  Biso   1.000  C
  H66      1.0000 0.82904  0.38378  0.36144  Biso   1.000  H
  H67      1.0000 0.91529  0.45980  0.33687  Biso   1.000  H
  C76      1.0000 0.89072  0.46149  0.42392  Biso   1.000  C
  H68      1.0000 0.83171  0.39392  0.35221  Biso   1.000  H
  H69      1.0000 0.92558  0.47076  0.34819  Biso   1.000  H
  C77      1.0000 0.88609  0.41630  0.43332  Biso   1.000  C
  H70      1.0000 0.12322  0.92825  0.61336  Biso   1.000  H
  H71      1.0000 0.19889  0.94166  0.66242  Biso   1.000  H
  H72      1.0000 0.20215  0.83615  0.63289  Biso   1.000  H
  H73      1.0000 0.09562  0.94518  0.62349  Biso   1.000  H
  H74      1.0000 0.19156  0.87443  0.64571  Biso   1.000  H
  H75      1.0000 0.13843  0.96117  0.68323  Biso   1.000  H
  C78      1.0000 0.95403  0.28819  0.08914  Biso   1.000  C
  H76      1.0000 0.09098  0.77741  0.49332  Biso   1.000  H
  H77      1.0000 0.04907  0.88046  0.52075  Biso   1.000  H
  H78      1.0000 0.06146  0.90971  0.50199  Biso   1.000  H
  H79      1.0000 0.14461  0.85743  0.45887  Biso   1.000  H
  C79      1.0000 0.04665  0.11981  0.06812  Biso   1.000  C
  H80      1.0000 0.06204  0.01918  0.13957  Biso   1.000  H
  H81      1.0000 0.86456  0.41215  0.45392  Biso   1.000  H
  H82      1.0000 0.96192  0.47736  0.43259  Biso   1.000  H
  C80      1.0000 0.82009  0.56096  0.42601  Biso   1.000  C
  C81      1.0000 0.82321  0.51666  0.44781  Biso   1.000  C
  H83      1.0000 0.95591  0.41514  0.44853  Biso   1.000  H
  H84      1.0000 0.84940  0.35699  0.45088  Biso   1.000  H
  C82      1.0000 0.00311  0.22022  0.04923  Biso   1.000  C
  H85      1.0000 0.92425  0.35311  0.07718  Biso   1.000  H
  N7       1.0000 0.09376  0.06620  0.02577  Biso   1.000  N
  H86      1.0000 0.74686  0.54444  0.42204  Biso   1.000  H
  H87      1.0000 0.84098  0.60839  0.39388  Biso   1.000  H
  C83      1.0000 0.82615  0.61541  0.48114  Biso   1.000  C
  H88      1.0000 0.75339  0.51798  0.43259  Biso   1.000  H
  H89      1.0000 0.85996  0.57612  0.43033  Biso   1.000  H
  C84      1.0000 0.81106  0.52401  0.51340  Biso   1.000  C
  N8       1.0000 0.01762  0.24122  0.99252  Biso   1.000  N
  S4       1.0000 0.08171  0.14002  0.96778  Biso   1.000  S
  C85      1.0000 0.78010  0.55759  0.53541  Biso   1.000  C
  H90      1.0000 0.78886  0.68312  0.47682  Biso   1.000  H
  H91      1.0000 0.90026  0.62699  0.48618  Biso   1.000  H
  C86      1.0000 0.76015  0.62649  0.53020  Biso   1.000  C
  H92      1.0000 0.80384  0.68186  0.51507  Biso   1.000  H
  H93      1.0000 0.81940  0.49227  0.54174  Biso   1.000  H
  H94      1.0000 0.76816  0.46822  0.53007  Biso   1.000  H
  H95      1.0000 0.88079  0.51444  0.52874  Biso   1.000  H
  H96      1.0000 0.70675  0.54530  0.53105  Biso   1.000  H
  H97      1.0000 0.78527  0.59895  0.56738  Biso   1.000  H
  H98      1.0000 0.75314  0.62670  0.57105  Biso   1.000  H
  H99      1.0000 0.69109  0.63642  0.51507  Biso   1.000  H
  C87      1.0000 0.43599  0.64970  0.51887  Biso   1.000  C
  C88      1.0000 0.38429  0.72062  0.47255  Biso   1.000  C
  C89      1.0000 0.40610  0.68223  0.57930  Biso   1.000  C
  H100     1.0000 0.41495  0.57914  0.51601  Biso   1.000  H
  H101     1.0000 0.51275  0.64968  0.51212  Biso   1.000  H
  C90      1.0000 0.40881  0.68844  0.41182  Biso   1.000  C
  H102     1.0000 0.40742  0.79055  0.47481  Biso   1.000  H
  H103     1.0000 0.30766  0.72283  0.48050  Biso   1.000  H
  C91      1.0000 0.46771  0.61955  0.62498  Biso   1.000  C
  H104     1.0000 0.33056  0.67413  0.58772  Biso   1.000  H
  H105     1.0000 0.41912  0.75535  0.58088  Biso   1.000  H
  H106     1.0000 0.36861  0.73561  0.38623  Biso   1.000  H
  H107     1.0000 0.38350  0.61938  0.40943  Biso   1.000  H
  C92      1.0000 0.52256  0.68733  0.39106  Biso   1.000  C
  C93      1.0000 0.44452  0.65739  0.68515  Biso   1.000  C
  H108     1.0000 0.45018  0.54718  0.62545  Biso   1.000  H
  H109     1.0000 0.54332  0.62312  0.61485  Biso   1.000  H
  H110     1.0000 0.56349  0.63977  0.41537  Biso   1.000  H
  H111     1.0000 0.52972  0.66555  0.35268  Biso   1.000  H
  H112     1.0000 0.54819  0.75592  0.39161  Biso   1.000  H
  C94      1.0000 0.46748  0.77169  0.68853  Biso   1.000  C
  C95      1.0000 0.50318  0.59082  0.73088  Biso   1.000  C
  H113     1.0000 0.36811  0.65126  0.69459  Biso   1.000  H
  C96      1.0000 0.55996  0.81161  0.66122  Biso   1.000  C
  C97      1.0000 0.39964  0.84107  0.71818  Biso   1.000  C
  C98      1.0000 0.45738  0.58084  0.78639  Biso   1.000  C
  C99      1.0000 0.60206  0.53925  0.72011  Biso   1.000  C
  H114     1.0000 0.60750  0.76601  0.64233  Biso   1.000  H
  C100     1.0000 0.58510  0.91569  0.66062  Biso   1.000  C
  O9       1.0000 0.30302  0.80863  0.74464  Biso   1.000  O
  C101     1.0000 0.42175  0.94511  0.71908  Biso   1.000  C
  O10      1.0000 0.35382  0.62288  0.79570  Biso   1.000  O
  C102     1.0000 0.50698  0.52218  0.82968  Biso   1.000  C
  H115     1.0000 0.63345  0.54431  0.68318  Biso   1.000  H
  C103     1.0000 0.65575  0.48030  0.76258  Biso   1.000  C
  C104     1.0000 0.51382  0.98198  0.69071  Biso   1.000  C
  C105     1.0000 0.68755  0.95222  0.62930  Biso   1.000  C
  C106     1.0000 0.30032  0.80160  0.80391  Biso   1.000  C
  H116     1.0000 0.37486  0.99032  0.73865  Biso   1.000  H
  C107     1.0000 0.33424  0.70294  0.83134  Biso   1.000  C
  H117     1.0000 0.47398  0.51437  0.86617  Biso   1.000  H
  C108     1.0000 0.60655  0.47543  0.81754  Biso   1.000  C
  C109     1.0000 0.76336  0.42155  0.75207  Biso   1.000  C
  O11      1.0000 0.53059  0.08890  0.68972  Biso   1.000  O
  C110     1.0000 0.77953  0.92940  0.66853  Biso   1.000  C
  C111     1.0000 0.70861  0.90830  0.57058  Biso   1.000  C
  H118     1.0000 0.67901  0.02804  0.62284  Biso   1.000  H
  C112     1.0000 0.26285  0.88330  0.83442  Biso   1.000  C
  C113     1.0000 0.33601  0.68895  0.88920  Biso   1.000  C
  O12      1.0000 0.65630  0.41019  0.85878  Biso   1.000  O
  C114     1.0000 0.85214  0.48774  0.76775  Biso   1.000  C
  H119     1.0000 0.76390  0.35949  0.77869  Biso   1.000  H
  C115     1.0000 0.78028  0.38347  0.69194  Biso   1.000  C
  C116     1.0000 0.55700  0.12158  0.74186  Biso   1.000  C
  C117     1.0000 0.79867  0.99964  0.70827  Biso   1.000  C
  C118     1.0000 0.84646  0.83968  0.66669  Biso   1.000  C
  C119     1.0000 0.61962  0.93908  0.53041  Biso   1.000  C
  H120     1.0000 0.71636  0.83299  0.57541  Biso   1.000  H
  H121     1.0000 0.77512  0.93326  0.55323  Biso   1.000  H
  C120     1.0000 0.26124  0.86965  0.89514  Biso   1.000  C
  H122     1.0000 0.23920  0.94596  0.81621  Biso   1.000  H
  H123     1.0000 0.35956  0.62561  0.90664  Biso   1.000  H
  C121     1.0000 0.30093  0.77369  0.92211  Biso   1.000  C
  C122     1.0000 0.69765  0.44893  0.90523  Biso   1.000  C
  C123     1.0000 0.88884  0.56898  0.73036  Biso   1.000  C
  C124     1.0000 0.89888  0.47317  0.82015  Biso   1.000  C
  H124     1.0000 0.71949  0.34497  0.68417  Biso   1.000  H
  H125     1.0000 0.78319  0.44344  0.66464  Biso   1.000  H
  C125     1.0000 0.88142  0.31422  0.68284  Biso   1.000  C
  C126     1.0000 0.66872  0.11656  0.75301  Biso   1.000  C
  C127     1.0000 0.48107  0.15996  0.77981  Biso   1.000  C
  C128     1.0000 0.88056  0.98242  0.74489  Biso   1.000  C
  O13      1.0000 0.73803  0.09399  0.70707  Biso   1.000  O
  C129     1.0000 0.92923  0.81794  0.70344  Biso   1.000  C
  H126     1.0000 0.83562  0.79224  0.63989  Biso   1.000  H
  H127     1.0000 0.55481  0.90775  0.54588  Biso   1.000  H
  C130     1.0000 0.64477  0.90584  0.47016  Biso   1.000  C
  H128     1.0000 0.60671  0.01406  0.52896  Biso   1.000  H
  N9       1.0000 0.22357  0.93892  0.93266  Biso   1.000  N
  N10      1.0000 0.29498  0.77220  0.97937  Biso   1.000  N
  C131     1.0000 0.81164  0.43183  0.90792  Biso   1.000  C
  C132     1.0000 0.63696  0.49231  0.94805  Biso   1.000  C
  H129     1.0000 0.85904  0.57997  0.69515  Biso   1.000  H
  C133     1.0000 0.96736  0.63433  0.74276  Biso   1.000  C
  O14      1.0000 0.86665  0.39270  0.86023  Biso   1.000  O
  C134     1.0000 0.97771  0.53556  0.83399  Biso   1.000  C
  H130     1.0000 0.88215  0.25728  0.71211  Biso   1.000  H
  H131     1.0000 0.94308  0.35438  0.68660  Biso   1.000  H
  C135     1.0000 0.88874  0.27029  0.62425  Biso   1.000  C
  C136     1.0000 0.70187  0.14044  0.80412  Biso   1.000  C
  C137     1.0000 0.51404  0.18733  0.83348  Biso   1.000  C
  H132     1.0000 0.41008  0.16810  0.77104  Biso   1.000  H
  C138     1.0000 0.94304  0.89047  0.74288  Biso   1.000  C
  H133     1.0000 0.89352  0.03157  0.77036  Biso   1.000  H
  C139     1.0000 0.00481  0.72091  0.69981  Biso   1.000  C
  C140     1.0000 0.73253  0.93351  0.43131  Biso   1.000  C
  H134     1.0000 0.67941  0.83680  0.47011  Biso   1.000  H
  H135     1.0000 0.58128  0.90783  0.44879  Biso   1.000  H
  C141     1.0000 0.72823  0.99840  0.44430  Biso   1.000  C
  S5       1.0000 0.24073  0.88373  0.99587  Biso   1.000  S
  C142     1.0000 0.86337  0.45342  0.95420  Biso   1.000  C
  C143     1.0000 0.68940  0.52222  0.99557  Biso   1.000  C
  H136     1.0000 0.56350  0.50207  0.94638  Biso   1.000  H
  C144     1.0000 0.01000  0.61625  0.79596  Biso   1.000  C
  H137     1.0000 0.00915  0.52330  0.86873  Biso   1.000  H
  H138     1.0000 0.81904  0.24807  0.61669  Biso   1.000  H
  H139     1.0000 0.90641  0.32589  0.59579  Biso   1.000  H
  C145     1.0000 0.97231  0.17613  0.61622  Biso   1.000  C
  H140     1.0000 0.87548  0.32632  0.59541  Biso   1.000  H
  H141     1.0000 0.83409  0.22066  0.62293  Biso   1.000  H
  C146     1.0000 0.99713  0.21697  0.61058  Biso   1.000  C
  C147     1.0000 0.62374  0.17289  0.84613  Biso   1.000  C
  H142     1.0000 0.77374  0.13568  0.81130  Biso   1.000  H
  N11      1.0000 0.45144  0.22470  0.87655  Biso   1.000  N
  O15      1.0000 0.02898  0.87507  0.77792  Biso   1.000  O
  H143     1.0000 0.07444  0.73991  0.71083  Biso   1.000  H
  C148     1.0000 0.02041  0.68426  0.63883  Biso   1.000  C
  H144     1.0000 0.79943  0.91507  0.44870  Biso   1.000  H
  H145     1.0000 0.73153  0.89681  0.39674  Biso   1.000  H
  C149     1.0000 0.76477  0.98003  0.38307  Biso   1.000  C
  C150     1.0000 0.72145  0.04905  0.41759  Biso   1.000  C
  H146     1.0000 0.78944  0.99627  0.46742  Biso   1.000  H
  H147     1.0000 0.72544  0.08424  0.45242  Biso   1.000  H
  H148     1.0000 0.69216  0.06653  0.44605  Biso   1.000  H
  C151     1.0000 0.80202  0.50088  0.99920  Biso   1.000  C
  H149     1.0000 0.93599  0.43777  0.95647  Biso   1.000  H
  N12      1.0000 0.64445  0.57048  0.04035  Biso   1.000  N
  O16      1.0000 0.08811  0.68010  0.81241  Biso   1.000  O
  H150     1.0000 0.97127  0.13198  0.65135  Biso   1.000  H
  C152     1.0000 0.95508  0.10841  0.56669  Biso   1.000  C
  H151     1.0000 0.04264  0.20335  0.61019  Biso   1.000  H
  H152     1.0000 0.00705  0.15592  0.63665  Biso   1.000  H
  C153     1.0000 0.00741  0.18501  0.54998  Biso   1.000  C
  H153     1.0000 0.05237  0.26406  0.61613  Biso   1.000  H
  N13      1.0000 0.64223  0.19645  0.89925  Biso   1.000  N
  S6       1.0000 0.52875  0.23618  0.92809  Biso   1.000  S
  C154     1.0000 0.00864  0.84744  0.83549  Biso   1.000  C
  H154     1.0000 0.95233  0.66490  0.62699  Biso   1.000  H
  H155     1.0000 0.04348  0.74207  0.61323  Biso   1.000  H
  C155     1.0000 0.10093  0.59253  0.63254  Biso   1.000  C
  H156     1.0000 0.70260  0.98216  0.36063  Biso   1.000  H
  H157     1.0000 0.79846  0.91066  0.38195  Biso   1.000  H
  C156     1.0000 0.80724  0.08977  0.37298  Biso   1.000  C
  C157     1.0000 0.84170  0.05693  0.35512  Biso   1.000  C
  H158     1.0000 0.65170  0.06642  0.40324  Biso   1.000  H
  N14      1.0000 0.84009  0.53342  0.04685  Biso   1.000  N
  S7       1.0000 0.73908  0.58705  0.08206  Biso   1.000  S
  C158     1.0000 0.04794  0.74470  0.85442  Biso   1.000  C
  H159     1.0000 0.88561  0.07944  0.57297  Biso   1.000  H
  C159     1.0000 0.96221  0.16655  0.50789  Biso   1.000  C
  H160     1.0000 0.93026  0.04875  0.56233  Biso   1.000  H
  H161     1.0000 0.00812  0.05071  0.56720  Biso   1.000  H
  C160     1.0000 0.92522  0.10976  0.53661  Biso   1.000  C
  H162     1.0000 0.03146  0.19397  0.50092  Biso   1.000  H
  H163     1.0000 0.00074  0.24688  0.52421  Biso   1.000  H
  H164     1.0000 0.07793  0.15283  0.54263  Biso   1.000  H
  C161     1.0000 0.96252  0.91454  0.87296  Biso   1.000  C
  H165     1.0000 0.17072  0.61641  0.63857  Biso   1.000  H
  H166     1.0000 0.08455  0.54039  0.66314  Biso   1.000  H
  C162     1.0000 0.10912  0.53870  0.57609  Biso   1.000  C
  H167     1.0000 0.16813  0.60619  0.64780  Biso   1.000  H
  H168     1.0000 0.07418  0.52936  0.65177  Biso   1.000  H
  C163     1.0000 0.11366  0.58389  0.56669  Biso   1.000  C
  H169     1.0000 0.87662  0.07195  0.38661  Biso   1.000  H
  H170     1.0000 0.80094  0.05853  0.33760  Biso   1.000  H
  H171     1.0000 0.79761  0.16396  0.36713  Biso   1.000  H
  H172     1.0000 0.90422  0.05493  0.37653  Biso   1.000  H
  H173     1.0000 0.80820  0.12577  0.35431  Biso   1.000  H
  H174     1.0000 0.86142  0.03895  0.31674  Biso   1.000  H
  C164     1.0000 0.04581  0.71193  0.91087  Biso   1.000  C
  H175     1.0000 0.90879  0.22270  0.50669  Biso   1.000  H
  H176     1.0000 0.95069  0.11965  0.47926  Biso   1.000  H
  H177     1.0000 0.93830  0.09049  0.49798  Biso   1.000  H
  H178     1.0000 0.85523  0.14268  0.54114  Biso   1.000  H
  C165     1.0000 0.95311  0.88038  0.93189  Biso   1.000  C
  H179     1.0000 0.93773  0.98101  0.86040  Biso   1.000  H
  H180     1.0000 0.13528  0.58797  0.54609  Biso   1.000  H
  H181     1.0000 0.03793  0.52276  0.56738  Biso   1.000  H
  C166     1.0000 0.17966  0.43923  0.57400  Biso   1.000  C
  C167     1.0000 0.17663  0.48353  0.55221  Biso   1.000  C
  H182     1.0000 0.04394  0.58498  0.55148  Biso   1.000  H
  H183     1.0000 0.15036  0.64321  0.54909  Biso   1.000  H
  C168     1.0000 0.99673  0.77997  0.95078  Biso   1.000  C
  H184     1.0000 0.07551  0.64708  0.92283  Biso   1.000  H
  N15      1.0000 0.90608  0.93399  0.97424  Biso   1.000  N
  H185     1.0000 0.25290  0.45575  0.57797  Biso   1.000  H
  H186     1.0000 0.15886  0.39180  0.60614  Biso   1.000  H
  C169     1.0000 0.17360  0.38478  0.51887  Biso   1.000  C
  H187     1.0000 0.24645  0.48221  0.56742  Biso   1.000  H
  H188     1.0000 0.13989  0.42400  0.56964  Biso   1.000  H
  C170     1.0000 0.18870  0.47618  0.48661  Biso   1.000  C
  N16      1.0000 0.98214  0.75897  0.00749  Biso   1.000  N
  S8       1.0000 0.91805  0.86017  0.03223  Biso   1.000  S
  C171     1.0000 0.21973  0.44261  0.46460  Biso   1.000  C
  H189     1.0000 0.21098  0.31707  0.52315  Biso   1.000  H
  H190     1.0000 0.09957  0.37320  0.51383  Biso   1.000  H
  C172     1.0000 0.23961  0.37370  0.46981  Biso   1.000  C
  H191     1.0000 0.19592  0.31833  0.48494  Biso   1.000  H
  H192     1.0000 0.18036  0.50784  0.45828  Biso   1.000  H
  H193     1.0000 0.23168  0.53189  0.46994  Biso   1.000  H
  H194     1.0000 0.11898  0.48576  0.47122  Biso   1.000  H
  H195     1.0000 0.29310  0.45489  0.46892  Biso   1.000  H
  H196     1.0000 0.21449  0.40116  0.43264  Biso   1.000  H
  H197     1.0000 0.24670  0.37342  0.42892  Biso   1.000  H
  H198     1.0000 0.30876  0.36370  0.48490  Biso   1.000  H
