data_image0
_cell_length_a       12.049
_cell_length_b       12.073
_cell_length_c       24.854
_cell_angle_alpha    93.36
_cell_angle_beta     96.81
_cell_angle_gamma    105.25

_symmetry_space_group_name_H-M    "P 1"
_symmetry_int_tables_number       1

loop_
  _symmetry_equiv_pos_as_xyz
  'x, y, z'

loop_
  _atom_site_label
  _atom_site_occupancy
  _atom_site_fract_x
  _atom_site_fract_y
  _atom_site_fract_z
  _atom_site_thermal_displace_type
  _atom_site_B_iso_or_equiv
  _atom_site_type_symbol
  O1       1.0000 0.68189  0.59347  0.26789  Biso   1.000  O
  H1       1.0000 0.73788  0.57780  0.25682  Biso   1.000  H
  C1       1.0000 0.65268  0.67844  0.23879  Biso   1.000  C
  C2       1.0000 0.56055  0.71498  0.25332  Biso   1.000  C
  C3       1.0000 0.71016  0.72346  0.19658  Biso   1.000  C
  C4       1.0000 0.52477  0.79837  0.22621  Biso   1.000  C
  H2       1.0000 0.52228  0.68321  0.28140  Biso   1.000  H
  C5       1.0000 0.67277  0.80917  0.17123  Biso   1.000  C
  C6       1.0000 0.80865  0.68087  0.17753  Biso   1.000  C
  O2       1.0000 0.42758  0.82669  0.24217  Biso   1.000  O
  C7       1.0000 0.57858  0.84750  0.18356  Biso   1.000  C
  H3       1.0000 0.71333  0.84329  0.14420  Biso   1.000  H
  C8       1.0000 0.92726  0.75791  0.20317  Biso   1.000  C
  H4       1.0000 0.80195  0.60541  0.19141  Biso   1.000  H
  C9       1.0000 0.79724  0.66020  0.11583  Biso   1.000  C
  H5       1.0000 0.40527  0.78861  0.26699  Biso   1.000  H
  C10      1.0000 0.53857  0.93628  0.15201  Biso   1.000  C
  C11      1.0000 0.97921  0.73576  0.25246  Biso   1.000  C
  C12      1.0000 0.98799  0.85228  0.17908  Biso   1.000  C
  H6       1.0000 0.85944  0.62852  0.10672  Biso   1.000  H
  H7       1.0000 0.80763  0.73386  0.10069  Biso   1.000  H
  C13      1.0000 0.68155  0.57907  0.08860  Biso   1.000  C
  H8       1.0000 0.45957  0.93171  0.15971  Biso   1.000  H
  C14      1.0000 0.52959  0.91064  0.09035  Biso   1.000  C
  C15      1.0000 0.61098  0.05743  0.17196  Biso   1.000  C
  O3       1.0000 0.92187  0.64247  0.27770  Biso   1.000  O
  C16      1.0000 0.08526  0.80439  0.27684  Biso   1.000  C
  H9       1.0000 0.95475  0.86832  0.14571  Biso   1.000  H
  C17      1.0000 0.09556  0.92410  0.20220  Biso   1.000  C
  H10      1.0000 0.62026  0.61602  0.09479  Biso   1.000  H
  C18      1.0000 0.65203  0.46295  0.11168  Biso   1.000  C
  C19      1.0000 0.68204  0.56330  0.02821  Biso   1.000  C
  H11      1.0000 0.50334  0.97060  0.07281  Biso   1.000  H
  H12      1.0000 0.60683  0.91497  0.08148  Biso   1.000  H
  C20      1.0000 0.44947  0.79467  0.06622  Biso   1.000  C
  C21      1.0000 0.58171  0.11678  0.21534  Biso   1.000  C
  C22      1.0000 0.71076  0.11588  0.15112  Biso   1.000  C
  H13      1.0000 0.96049  0.63949  0.30680  Biso   1.000  H
  H14      1.0000 0.11836  0.78764  0.31009  Biso   1.000  H
  C23      1.0000 0.14277  0.89786  0.25210  Biso   1.000  C
  C24      1.0000 0.16096  0.02986  0.17578  Biso   1.000  C
  H15      1.0000 0.57821  0.41660  0.09361  Biso   1.000  H
  H16      1.0000 0.64833  0.47423  0.14990  Biso   1.000  H
  H17      1.0000 0.71092  0.42477  0.10619  Biso   1.000  H
  H18      1.0000 0.60874  0.51341  0.01131  Biso   1.000  H
  H19      1.0000 0.74321  0.52967  0.02100  Biso   1.000  H
  H20      1.0000 0.69441  0.63692  0.01372  Biso   1.000  H
  H21      1.0000 0.48587  0.73599  0.07941  Biso   1.000  H
  C25      1.0000 0.44328  0.78461  0.00562  Biso   1.000  C
  C26      1.0000 0.33378  0.76627  0.08189  Biso   1.000  C
  O4       1.0000 0.48339  0.06490  0.23810  Biso   1.000  O
  C27      1.0000 0.64530  0.22635  0.23578  Biso   1.000  C
  H22      1.0000 0.73252  0.07882  0.12190  Biso   1.000  H
  C28      1.0000 0.77944  0.22462  0.17086  Biso   1.000  C
  O5       1.0000 0.24957  0.96860  0.27627  Biso   1.000  O
  C29      1.0000 0.12699  0.13648  0.19479  Biso   1.000  C
  H23      1.0000 0.24358  0.04347  0.18942  Biso   1.000  H
  C30      1.0000 0.14906  0.00959  0.11437  Biso   1.000  C
  H24      1.0000 0.39252  0.71092  0.99080  Biso   1.000  H
  H25      1.0000 0.51955  0.79128  0.99601  Biso   1.000  H
  H26      1.0000 0.41394  0.84482  0.99109  Biso   1.000  H
  H27      1.0000 0.33945  0.77171  0.12092  Biso   1.000  H
  H28      1.0000 0.29237  0.68912  0.06732  Biso   1.000  H
  H29      1.0000 0.29293  0.81921  0.06789  Biso   1.000  H
  H30      1.0000 0.45316  0.00024  0.22251  Biso   1.000  H
  C31      1.0000 0.74553  0.27879  0.21408  Biso   1.000  C
  H31      1.0000 0.62160  0.26532  0.26382  Biso   1.000  H
  C32      1.0000 0.89173  0.28484  0.14941  Biso   1.000  C
  H32      1.0000 0.26856  0.94509  0.30529  Biso   1.000  H
  C33      1.0000 0.19458  0.21801  0.23569  Biso   1.000  C
  C34      1.0000 0.02857  0.16101  0.17045  Biso   1.000  C
  H33      1.0000 0.06749  0.99247  0.09992  Biso   1.000  H
  H34      1.0000 0.17457  0.94179  0.10541  Biso   1.000  H
  C35      1.0000 0.21663  0.10913  0.08519  Biso   1.000  C
  O6       1.0000 0.81146  0.38790  0.23476  Biso   1.000  O
  C36      1.0000 0.99691  0.26168  0.18193  Biso   1.000  C
  H35      1.0000 0.90077  0.36776  0.15539  Biso   1.000  H
  C37      1.0000 0.88730  0.25722  0.08775  Biso   1.000  C
  O7       1.0000 0.29544  0.20371  0.26443  Biso   1.000  O
  C38      1.0000 0.16981  0.31821  0.24872  Biso   1.000  C
  H36      1.0000 0.97936  0.10587  0.14440  Biso   1.000  H
  H37      1.0000 0.18149  0.17313  0.08970  Biso   1.000  H
  C39      1.0000 0.20285  0.07432  0.02532  Biso   1.000  C
  C40      1.0000 0.34461  0.15344  0.10940  Biso   1.000  C
  H38      1.0000 0.78192  0.41120  0.25958  Biso   1.000  H
  C41      1.0000 0.06834  0.33919  0.22251  Biso   1.000  C
  H39      1.0000 0.87484  0.17477  0.08022  Biso   1.000  H
  H40      1.0000 0.82099  0.27719  0.06899  Biso   1.000  H
  C42      1.0000 0.99546  0.31929  0.06439  Biso   1.000  C
  H41      1.0000 0.30418  0.14109  0.25429  Biso   1.000  H
  H42      1.0000 0.21956  0.37284  0.27481  Biso   1.000  H
  H43      1.0000 0.12174  0.04765  0.01119  Biso   1.000  H
  H44      1.0000 0.23927  0.01372  0.01929  Biso   1.000  H
  H45      1.0000 0.23889  0.13947  0.00708  Biso   1.000  H
  H46      1.0000 0.38239  0.21567  0.08991  Biso   1.000  H
  H47      1.0000 0.38121  0.09197  0.10639  Biso   1.000  H
  H48      1.0000 0.35058  0.18022  0.14701  Biso   1.000  H
  O8       1.0000 0.04877  0.44359  0.23765  Biso   1.000  O
  C43      1.0000 0.98500  0.28149  0.00501  Biso   1.000  C
  H49      1.0000 0.06128  0.29684  0.08319  Biso   1.000  H
  C44      1.0000 0.02288  0.44882  0.07289  Biso   1.000  C
  H50      1.0000 0.10201  0.48062  0.26068  Biso   1.000  H
  H51      1.0000 0.92361  0.30556  0.98531  Biso   1.000  H
  H52      1.0000 0.96809  0.19902  0.00000  Biso   1.000  H
  H53      1.0000 0.05693  0.31550  0.99170  Biso   1.000  H
  H54      1.0000 0.96112  0.47385  0.05368  Biso   1.000  H
  H55      1.0000 0.03062  0.47244  0.11099  Biso   1.000  H
  H56      1.0000 0.09423  0.48277  0.05930  Biso   1.000  H
  O9       1.0000 0.31831  0.40640  0.73215  Biso   1.000  O
  H57      1.0000 0.26232  0.42208  0.74322  Biso   1.000  H
  C45      1.0000 0.34751  0.32143  0.76121  Biso   1.000  C
  C46      1.0000 0.43964  0.28489  0.74668  Biso   1.000  C
  C47      1.0000 0.29003  0.27641  0.80342  Biso   1.000  C
  C48      1.0000 0.47542  0.20150  0.77379  Biso   1.000  C
  H58      1.0000 0.47793  0.31674  0.71860  Biso   1.000  H
  C49      1.0000 0.32742  0.19070  0.82878  Biso   1.000  C
  C50      1.0000 0.19154  0.31900  0.82247  Biso   1.000  C
  O10      1.0000 0.57261  0.17317  0.75784  Biso   1.000  O
  C51      1.0000 0.42161  0.15236  0.81644  Biso   1.000  C
  H59      1.0000 0.28686  0.15657  0.85580  Biso   1.000  H
  C52      1.0000 0.07293  0.24196  0.79683  Biso   1.000  C
  H60      1.0000 0.19826  0.39454  0.80859  Biso   1.000  H
  C53      1.0000 0.20295  0.33966  0.88417  Biso   1.000  C
  H61      1.0000 0.59494  0.21134  0.73301  Biso   1.000  H
  C54      1.0000 0.46162  0.06359  0.84799  Biso   1.000  C
  C55      1.0000 0.02106  0.26411  0.74754  Biso   1.000  C
  C56      1.0000 0.01220  0.14759  0.82092  Biso   1.000  C
  H62      1.0000 0.14075  0.37135  0.89328  Biso   1.000  H
  H63      1.0000 0.19255  0.26600  0.89931  Biso   1.000  H
  C57      1.0000 0.31864  0.42079  0.91140  Biso   1.000  C
  H64      1.0000 0.54062  0.06816  0.84029  Biso   1.000  H
  C58      1.0000 0.47062  0.08931  0.90965  Biso   1.000  C
  C59      1.0000 0.38923  0.94252  0.82804  Biso   1.000  C
  O11      1.0000 0.07832  0.35740  0.72230  Biso   1.000  O
  C60      1.0000 0.91493  0.19548  0.72316  Biso   1.000  C
  H65      1.0000 0.04546  0.13163  0.85429  Biso   1.000  H
  C61      1.0000 0.90464  0.07578  0.79784  Biso   1.000  C
  H66      1.0000 0.37992  0.38385  0.90521  Biso   1.000  H
  C62      1.0000 0.34816  0.53692  0.88832  Biso   1.000  C
  C63      1.0000 0.31815  0.43657  0.97180  Biso   1.000  C
  H67      1.0000 0.49684  0.02927  0.92719  Biso   1.000  H
  H68      1.0000 0.39336  0.08489  0.91852  Biso   1.000  H
  C64      1.0000 0.55073  0.20521  0.93382  Biso   1.000  C
  C65      1.0000 0.41847  0.88308  0.78466  Biso   1.000  C
  C66      1.0000 0.28943  0.88399  0.84888  Biso   1.000  C
  H69      1.0000 0.03972  0.36046  0.69320  Biso   1.000  H
  H70      1.0000 0.88183  0.21223  0.68991  Biso   1.000  H
  C67      1.0000 0.85742  0.10201  0.74790  Biso   1.000  C
  C68      1.0000 0.83923  0.97001  0.82422  Biso   1.000  C
  H71      1.0000 0.42198  0.58326  0.90639  Biso   1.000  H
  H72      1.0000 0.35188  0.52572  0.85010  Biso   1.000  H
  H73      1.0000 0.28927  0.57510  0.89381  Biso   1.000  H
  H74      1.0000 0.39145  0.48645  0.98869  Biso   1.000  H
  H75      1.0000 0.25698  0.47019  0.97900  Biso   1.000  H
  H76      1.0000 0.30577  0.36295  0.98628  Biso   1.000  H
  H77      1.0000 0.51432  0.26388  0.92059  Biso   1.000  H
  C69      1.0000 0.55700  0.21527  0.99442  Biso   1.000  C
  C70      1.0000 0.66641  0.23360  0.91811  Biso   1.000  C
  O12      1.0000 0.51680  0.93497  0.76191  Biso   1.000  O
  C71      1.0000 0.35489  0.77351  0.76423  Biso   1.000  C
  H78      1.0000 0.26769  0.92113  0.87810  Biso   1.000  H
  C72      1.0000 0.22079  0.77534  0.82918  Biso   1.000  C
  O13      1.0000 0.75062  0.03127  0.72373  Biso   1.000  O
  C73      1.0000 0.87320  0.86338  0.80521  Biso   1.000  C
  H79      1.0000 0.75662  0.95641  0.81062  Biso   1.000  H
  C74      1.0000 0.85114  0.99029  0.88567  Biso   1.000  C
  H80      1.0000 0.60767  0.28895  0.00920  Biso   1.000  H
  H81      1.0000 0.48066  0.20867  0.00399  Biso   1.000  H
  H82      1.0000 0.58625  0.15504  0.00891  Biso   1.000  H
  H83      1.0000 0.66076  0.22817  0.87912  Biso   1.000  H
  H84      1.0000 0.70783  0.31076  0.93272  Biso   1.000  H
  H85      1.0000 0.70726  0.18066  0.93211  Biso   1.000  H
  H86      1.0000 0.54703  0.99962  0.77749  Biso   1.000  H
  C75      1.0000 0.25466  0.72107  0.78592  Biso   1.000  C
  H87      1.0000 0.37863  0.73464  0.73622  Biso   1.000  H
  C76      1.0000 0.10848  0.71511  0.85059  Biso   1.000  C
  H88      1.0000 0.73163  0.05478  0.69471  Biso   1.000  H
  C77      1.0000 0.80563  0.78194  0.76431  Biso   1.000  C
  C78      1.0000 0.97164  0.83894  0.82955  Biso   1.000  C
  C79      1.0000 0.78366  0.89082  0.91482  Biso   1.000  C
  H89      1.0000 0.93272  0.00741  0.90012  Biso   1.000  H
  H90      1.0000 0.82562  0.05808  0.89459  Biso   1.000  H
  O14      1.0000 0.18873  0.61197  0.76524  Biso   1.000  O
  C80      1.0000 0.00328  0.73819  0.81807  Biso   1.000  C
  H91      1.0000 0.09942  0.63211  0.84461  Biso   1.000  H
  C81      1.0000 0.11289  0.74264  0.91225  Biso   1.000  C
  O15      1.0000 0.70477  0.79624  0.73557  Biso   1.000  O
  C82      1.0000 0.83041  0.68175  0.75132  Biso   1.000  C
  H92      1.0000 0.02082  0.89400  0.85560  Biso   1.000  H
  H93      1.0000 0.81872  0.82682  0.91030  Biso   1.000  H
  C83      1.0000 0.79733  0.92555  0.97469  Biso   1.000  C
  C84      1.0000 0.65560  0.84652  0.89060  Biso   1.000  C
  H94      1.0000 0.21826  0.58866  0.74042  Biso   1.000  H
  C85      1.0000 0.93185  0.66068  0.77749  Biso   1.000  C
  H95      1.0000 0.12536  0.82510  0.91982  Biso   1.000  H
  H96      1.0000 0.17920  0.72267  0.93101  Biso   1.000  H
  C86      1.0000 0.00473  0.68057  0.93561  Biso   1.000  C
  H97      1.0000 0.69601  0.85878  0.74571  Biso   1.000  H
  H98      1.0000 0.78071  0.62702  0.72519  Biso   1.000  H
  H99      1.0000 0.87847  0.95230  0.98881  Biso   1.000  H
  H100     1.0000 0.76092  0.98615  0.98071  Biso   1.000  H
  H101     1.0000 0.76130  0.86040  0.99292  Biso   1.000  H
  H102     1.0000 0.61780  0.78420  0.91009  Biso   1.000  H
  H103     1.0000 0.61898  0.90790  0.89361  Biso   1.000  H
  H104     1.0000 0.64963  0.81973  0.85299  Biso   1.000  H
  O16      1.0000 0.95150  0.55628  0.76235  Biso   1.000  O
  H105     1.0000 0.93893  0.70311  0.91681  Biso   1.000  H
  C87      1.0000 0.97731  0.55105  0.92711  Biso   1.000  C
  C88      1.0000 0.01519  0.71838  0.99499  Biso   1.000  C
  H106     1.0000 0.89820  0.51934  0.73932  Biso   1.000  H
  H107     1.0000 0.96959  0.52752  0.88901  Biso   1.000  H
  H108     1.0000 0.90604  0.51709  0.94070  Biso   1.000  H
  H109     1.0000 0.03909  0.52611  0.94632  Biso   1.000  H
  H110     1.0000 0.94328  0.68445  0.00830  Biso   1.000  H
  H111     1.0000 0.03189  0.80102  0.00000  Biso   1.000  H
  H112     1.0000 0.07658  0.69431  0.01469  Biso   1.000  H
