data_image0
_cell_length_a       10.54
_cell_length_b       11.289
_cell_length_c       16.328
_cell_angle_alpha    95.59
_cell_angle_beta     102.68
_cell_angle_gamma    107.19

_symmetry_space_group_name_H-M    "P 1"
_symmetry_int_tables_number       1

loop_
  _symmetry_equiv_pos_as_xyz
  'x, y, z'

loop_
  _atom_site_label
  _atom_site_occupancy
  _atom_site_fract_x
  _atom_site_fract_y
  _atom_site_fract_z
  _atom_site_thermal_displace_type
  _atom_site_B_iso_or_equiv
  _atom_site_type_symbol
  C1       1.0000 0.58011  0.64214  0.31052  Biso   1.000  C
  C2       1.0000 0.66344  0.76688  0.28936  Biso   1.000  C
  H1       1.0000 0.62226  0.63409  0.36720  Biso   1.000  H
  H2       1.0000 0.57818  0.57296  0.27049  Biso   1.000  H
  H3       1.0000 0.48773  0.64151  0.30702  Biso   1.000  H
  C3       1.0000 0.65822  0.87416  0.34992  Biso   1.000  C
  C4       1.0000 0.81336  0.77038  0.29758  Biso   1.000  C
  C5       1.0000 0.60572  0.78014  0.19852  Biso   1.000  C
  N1       1.0000 0.68578  0.99338  0.33143  Biso   1.000  N
  C6       1.0000 0.63858  0.88184  0.42954  Biso   1.000  C
  C7       1.0000 0.92396  0.87172  0.34405  Biso   1.000  C
  C8       1.0000 0.84054  0.67240  0.25442  Biso   1.000  C
  N2       1.0000 0.46990  0.77011  0.16779  Biso   1.000  N
  C9       1.0000 0.66746  0.81033  0.13489  Biso   1.000  C
  H4       1.0000 0.70195  0.01345  0.28439  Biso   1.000  H
  C10      1.0000 0.68440  0.07682  0.39811  Biso   1.000  C
  H5       1.0000 0.61833  0.81538  0.45919  Biso   1.000  H
  C11      1.0000 0.65425  0.00831  0.45944  Biso   1.000  C
  H6       1.0000 0.90856  0.93696  0.37561  Biso   1.000  H
  C12      1.0000 0.05745  0.87869  0.34482  Biso   1.000  C
  H7       1.0000 0.76760  0.60171  0.22433  Biso   1.000  H
  C13      1.0000 0.97307  0.67739  0.25506  Biso   1.000  C
  H8       1.0000 0.40875  0.75159  0.19603  Biso   1.000  H
  C14      1.0000 0.44541  0.79349  0.08600  Biso   1.000  C
  C15      1.0000 0.56745  0.81858  0.06496  Biso   1.000  C
  H9       1.0000 0.75970  0.82337  0.13732  Biso   1.000  H
  C16      1.0000 0.71921  0.21543  0.39518  Biso   1.000  C
  H10      1.0000 0.64555  0.03938  0.51210  Biso   1.000  H
  C17      1.0000 0.07931  0.78220  0.29918  Biso   1.000  C
  H11      1.0000 0.13116  0.94800  0.37599  Biso   1.000  H
  H12      1.0000 0.98987  0.61079  0.22612  Biso   1.000  H
  C18      1.0000 0.30301  0.78118  0.03417  Biso   1.000  C
  H13      1.0000 0.58229  0.83795  0.01300  Biso   1.000  H
  C19      1.0000 0.62731  0.23521  0.31632  Biso   1.000  C
  C20      1.0000 0.87082  0.26994  0.39187  Biso   1.000  C
  C21      1.0000 0.69333  0.28053  0.47525  Biso   1.000  C
  N3       1.0000 0.22013  0.79394  0.29471  Biso   1.000  N
  C22      1.0000 0.23638  0.85680  0.08198  Biso   1.000  C
  C23      1.0000 0.21167  0.64140  0.01453  Biso   1.000  C
  C24      1.0000 0.31824  0.83426  0.95142  Biso   1.000  C
  N4       1.0000 0.48729  0.17833  0.29707  Biso   1.000  N
  C25      1.0000 0.65133  0.30998  0.25736  Biso   1.000  C
  H14      1.0000 0.88079  0.22960  0.33959  Biso   1.000  H
  H15      1.0000 0.89182  0.35909  0.38989  Biso   1.000  H
  C26      1.0000 0.97517  0.25345  0.46658  Biso   1.000  C
  H16      1.0000 0.59903  0.23955  0.47633  Biso   1.000  H
  H17      1.0000 0.75262  0.26730  0.52549  Biso   1.000  H
  C27      1.0000 0.71752  0.42001  0.48073  Biso   1.000  C
  O1       1.0000 0.23936  0.70155  0.26067  Biso   1.000  O
  O2       1.0000 0.31104  0.89514  0.32334  Biso   1.000  O
  N5       1.0000 0.30489  0.97963  0.11972  Biso   1.000  N
  C28      1.0000 0.10529  0.83179  0.09001  Biso   1.000  C
  H18      1.0000 0.20149  0.61395  0.06789  Biso   1.000  H
  H19      1.0000 0.12089  0.63498  0.98094  Biso   1.000  H
  C29      1.0000 0.26550  0.55272  0.96717  Biso   1.000  C
  H20      1.0000 0.38305  0.91933  0.96711  Biso   1.000  H
  H21      1.0000 0.35754  0.78383  0.91974  Biso   1.000  H
  C30      1.0000 0.18638  0.83754  0.89316  Biso   1.000  C
  H22      1.0000 0.44588  0.12571  0.32499  Biso   1.000  H
  C31      1.0000 0.42247  0.21681  0.22714  Biso   1.000  C
  C32      1.0000 0.52341  0.29836  0.20170  Biso   1.000  C
  H23      1.0000 0.73707  0.36015  0.25410  Biso   1.000  H
  H24      1.0000 0.97537  0.30285  0.51803  Biso   1.000  H
  H25      1.0000 0.95108  0.16625  0.47219  Biso   1.000  H
  H26      1.0000 0.06507  0.28089  0.45683  Biso   1.000  H
  H27      1.0000 0.81212  0.46266  0.48290  Biso   1.000  H
  H28      1.0000 0.69713  0.45174  0.53129  Biso   1.000  H
  H29      1.0000 0.65914  0.43470  0.43152  Biso   1.000  H
  H30      1.0000 0.38986  0.01865  0.12291  Biso   1.000  H
  C33      1.0000 0.22029  0.03262  0.15198  Biso   1.000  C
  C34      1.0000 0.09537  0.94136  0.13349  Biso   1.000  C
  H31      1.0000 0.03449  0.75530  0.07019  Biso   1.000  H
  H32      1.0000 0.26600  0.57279  0.91145  Biso   1.000  H
  H33      1.0000 0.20723  0.46746  0.96194  Biso   1.000  H
  H34      1.0000 0.35741  0.56154  0.99822  Biso   1.000  H
  H35      1.0000 0.12119  0.75380  0.87652  Biso   1.000  H
  H36      1.0000 0.20550  0.86969  0.84330  Biso   1.000  H
  H37      1.0000 0.14877  0.89092  0.92261  Biso   1.000  H
  C35      1.0000 0.26728  0.16829  0.19456  Biso   1.000  C
  H38      1.0000 0.51050  0.33960  0.15548  Biso   1.000  H
  H39      1.0000 0.01702  0.94979  0.14720  Biso   1.000  H
  C36      1.0000 0.21728  0.24627  0.13005  Biso   1.000  C
  C37      1.0000 0.20202  0.17942  0.26960  Biso   1.000  C
  H40      1.0000 0.26752  0.25015  0.08670  Biso   1.000  H
  H41      1.0000 0.12075  0.20302  0.10213  Biso   1.000  H
  C38      1.0000 0.23442  0.38053  0.16932  Biso   1.000  C
  H42      1.0000 0.10291  0.14061  0.24920  Biso   1.000  H
  H43      1.0000 0.23533  0.13372  0.31218  Biso   1.000  H
  C39      1.0000 0.23517  0.31513  0.31052  Biso   1.000  C
  C40      1.0000 0.17801  0.38602  0.24690  Biso   1.000  C
  H44      1.0000 0.33150  0.42996  0.18557  Biso   1.000  H
  H45      1.0000 0.18766  0.41846  0.12680  Biso   1.000  H
  H46      1.0000 0.19569  0.31780  0.35878  Biso   1.000  H
  H47      1.0000 0.33409  0.35456  0.33118  Biso   1.000  H
  H48      1.0000 0.20174  0.47310  0.27329  Biso   1.000  H
  H49      1.0000 0.07857  0.35006  0.22931  Biso   1.000  H
  C41      1.0000 0.41998  0.35796  0.68951  Biso   1.000  C
  C42      1.0000 0.33664  0.23322  0.71068  Biso   1.000  C
  H50      1.0000 0.37777  0.36590  0.63278  Biso   1.000  H
  H51      1.0000 0.42187  0.42712  0.72948  Biso   1.000  H
  H52      1.0000 0.51235  0.35858  0.69302  Biso   1.000  H
  C43      1.0000 0.34184  0.12592  0.65005  Biso   1.000  C
  C44      1.0000 0.18670  0.22969  0.70239  Biso   1.000  C
  C45      1.0000 0.39424  0.21994  0.80146  Biso   1.000  C
  C46      1.0000 0.36141  0.11825  0.57049  Biso   1.000  C
  N6       1.0000 0.31425  0.00661  0.66854  Biso   1.000  N
  C47      1.0000 0.07607  0.12826  0.65592  Biso   1.000  C
  C48      1.0000 0.15955  0.32769  0.74561  Biso   1.000  C
  N7       1.0000 0.53019  0.22999  0.83225  Biso   1.000  N
  C49      1.0000 0.33257  0.18966  0.86508  Biso   1.000  C
  H53      1.0000 0.38173  0.18470  0.54079  Biso   1.000  H
  C50      1.0000 0.34581  0.99177  0.54053  Biso   1.000  C
  C51      1.0000 0.31569  0.92327  0.60192  Biso   1.000  C
  H54      1.0000 0.29811  0.98663  0.71559  Biso   1.000  H
  H55      1.0000 0.09152  0.06314  0.62442  Biso   1.000  H
  C52      1.0000 0.94261  0.12139  0.65515  Biso   1.000  C
  H56      1.0000 0.23245  0.39830  0.77570  Biso   1.000  H
  C53      1.0000 0.02701  0.32271  0.74497  Biso   1.000  C
  H57      1.0000 0.59131  0.24841  0.80401  Biso   1.000  H
  C54      1.0000 0.55465  0.20652  0.91404  Biso   1.000  C
  C55      1.0000 0.43261  0.18150  0.93501  Biso   1.000  C
  H58      1.0000 0.24039  0.17672  0.86272  Biso   1.000  H
  H59      1.0000 0.35450  0.96070  0.48787  Biso   1.000  H
  C56      1.0000 0.28087  0.78466  0.60485  Biso   1.000  C
  C57      1.0000 0.92074  0.21788  0.70080  Biso   1.000  C
  H60      1.0000 0.86887  0.05199  0.62398  Biso   1.000  H
  H61      1.0000 0.01018  0.38921  0.77392  Biso   1.000  H
  C58      1.0000 0.69704  0.21890  0.96580  Biso   1.000  C
  H62      1.0000 0.41780  0.16214  0.98703  Biso   1.000  H
  C59      1.0000 0.37278  0.76489  0.68371  Biso   1.000  C
  C60      1.0000 0.12924  0.73014  0.60810  Biso   1.000  C
  C61      1.0000 0.30666  0.71956  0.52478  Biso   1.000  C
  N8       1.0000 0.77996  0.20615  0.70532  Biso   1.000  N
  C62      1.0000 0.76368  0.14327  0.91799  Biso   1.000  C
  C63      1.0000 0.78836  0.35859  0.98544  Biso   1.000  C
  C64      1.0000 0.68178  0.16572  0.04855  Biso   1.000  C
  N9       1.0000 0.51267  0.82175  0.70290  Biso   1.000  N
  C65      1.0000 0.34876  0.69011  0.74268  Biso   1.000  C
  H63      1.0000 0.11924  0.77038  0.66038  Biso   1.000  H
  H64      1.0000 0.10823  0.64099  0.61008  Biso   1.000  H
  C66      1.0000 0.02492  0.74664  0.53345  Biso   1.000  C
  H65      1.0000 0.40096  0.76055  0.52370  Biso   1.000  H
  H66      1.0000 0.24741  0.73268  0.47449  Biso   1.000  H
  C67      1.0000 0.28251  0.57998  0.51924  Biso   1.000  C
  O3       1.0000 0.76057  0.29844  0.73930  Biso   1.000  O
  O4       1.0000 0.68902  0.10494  0.67663  Biso   1.000  O
  N10      1.0000 0.69508  0.02045  0.88025  Biso   1.000  N
  C68      1.0000 0.89477  0.16828  0.90996  Biso   1.000  C
  H67      1.0000 0.79857  0.38613  0.93208  Biso   1.000  H
  H68      1.0000 0.87919  0.36511  0.01910  Biso   1.000  H
  C69      1.0000 0.73455  0.44736  0.03280  Biso   1.000  C
  H69      1.0000 0.61701  0.08074  0.03287  Biso   1.000  H
  H70      1.0000 0.64254  0.21626  0.08030  Biso   1.000  H
  C70      1.0000 0.81371  0.16255  0.10688  Biso   1.000  C
  H71      1.0000 0.55415  0.87428  0.67498  Biso   1.000  H
  C71      1.0000 0.57762  0.78328  0.77290  Biso   1.000  C
  C72      1.0000 0.47668  0.70173  0.79833  Biso   1.000  C
  H72      1.0000 0.26302  0.63995  0.74593  Biso   1.000  H
  H73      1.0000 0.93501  0.71920  0.54321  Biso   1.000  H
  H74      1.0000 0.02471  0.69725  0.48201  Biso   1.000  H
  H75      1.0000 0.04898  0.83383  0.52778  Biso   1.000  H
  H76      1.0000 0.18797  0.53743  0.51713  Biso   1.000  H
  H77      1.0000 0.30284  0.54834  0.46868  Biso   1.000  H
  H78      1.0000 0.34095  0.56539  0.56852  Biso   1.000  H
  C73      1.0000 0.77976  0.96746  0.84799  Biso   1.000  C
  H79      1.0000 0.61023  0.98144  0.87713  Biso   1.000  H
  C74      1.0000 0.90466  0.05863  0.86648  Biso   1.000  C
  H80      1.0000 0.96545  0.24469  0.92978  Biso   1.000  H
  H81      1.0000 0.73408  0.42730  0.08858  Biso   1.000  H
  H82      1.0000 0.79282  0.53254  0.03809  Biso   1.000  H
  H83      1.0000 0.64262  0.43845  0.00176  Biso   1.000  H
  H84      1.0000 0.87886  0.24628  0.12345  Biso   1.000  H
  H85      1.0000 0.79456  0.13039  0.15667  Biso   1.000  H
  H86      1.0000 0.85129  0.10916  0.07736  Biso   1.000  H
  C75      1.0000 0.73271  0.83181  0.80547  Biso   1.000  C
  H87      1.0000 0.48953  0.66038  0.84449  Biso   1.000  H
  H88      1.0000 0.98303  0.05021  0.85284  Biso   1.000  H
  C76      1.0000 0.78278  0.75380  0.86992  Biso   1.000  C
  C77      1.0000 0.79797  0.82067  0.73044  Biso   1.000  C
  H89      1.0000 0.73247  0.74995  0.91334  Biso   1.000  H
  H90      1.0000 0.87933  0.79707  0.89791  Biso   1.000  H
  C78      1.0000 0.76557  0.61956  0.83072  Biso   1.000  C
  H91      1.0000 0.89712  0.85937  0.75078  Biso   1.000  H
  H92      1.0000 0.76473  0.86636  0.68779  Biso   1.000  H
  C79      1.0000 0.76489  0.68495  0.68945  Biso   1.000  C
  C80      1.0000 0.82196  0.61398  0.75313  Biso   1.000  C
  H93      1.0000 0.66856  0.57012  0.81440  Biso   1.000  H
  H94      1.0000 0.81242  0.58163  0.87324  Biso   1.000  H
  H95      1.0000 0.80424  0.68218  0.64119  Biso   1.000  H
  H96      1.0000 0.66597  0.64552  0.66879  Biso   1.000  H
  H97      1.0000 0.79829  0.52688  0.72668  Biso   1.000  H
  H98      1.0000 0.92151  0.65004  0.77073  Biso   1.000  H
