data_image0
_cell_length_a       12.593
_cell_length_b       15.821
_cell_length_c       15.992
_cell_angle_alpha    75.02
_cell_angle_beta     69.98
_cell_angle_gamma    82.88

_symmetry_space_group_name_H-M    "P 1"
_symmetry_int_tables_number       1

loop_
  _symmetry_equiv_pos_as_xyz
  'x, y, z'

loop_
  _atom_site_label
  _atom_site_occupancy
  _atom_site_fract_x
  _atom_site_fract_y
  _atom_site_fract_z
  _atom_site_thermal_displace_type
  _atom_site_B_iso_or_equiv
  _atom_site_type_symbol
  O1       1.0000 0.53479  0.39805  0.50921  Biso   1.000  O
  H1       1.0000 0.52537  0.39363  0.46105  Biso   1.000  H
  C1       1.0000 0.61780  0.33790  0.52796  Biso   1.000  C
  C2       1.0000 0.72670  0.34553  0.46543  Biso   1.000  C
  C3       1.0000 0.59365  0.27246  0.60821  Biso   1.000  C
  O2       1.0000 0.75368  0.40882  0.38600  Biso   1.000  O
  C4       1.0000 0.81302  0.28754  0.48363  Biso   1.000  C
  C5       1.0000 0.47355  0.26345  0.67526  Biso   1.000  C
  C6       1.0000 0.68251  0.21629  0.62449  Biso   1.000  C
  H2       1.0000 0.69858  0.44468  0.38627  Biso   1.000  H
  O3       1.0000 0.92118  0.29536  0.42164  Biso   1.000  O
  C7       1.0000 0.79246  0.22248  0.56299  Biso   1.000  C
  C8       1.0000 0.45716  0.31059  0.75106  Biso   1.000  C
  H3       1.0000 0.42227  0.29454  0.64016  Biso   1.000  H
  C9       1.0000 0.43902  0.16786  0.71076  Biso   1.000  C
  H4       1.0000 0.66757  0.17209  0.67964  Biso   1.000  H
  H5       1.0000 0.92241  0.33847  0.37779  Biso   1.000  H
  C10      1.0000 0.88788  0.15922  0.58372  Biso   1.000  C
  C11      1.0000 0.42636  0.39990  0.73895  Biso   1.000  C
  C12      1.0000 0.47468  0.26706  0.83302  Biso   1.000  C
  H6       1.0000 0.45571  0.14133  0.65774  Biso   1.000  H
  H7       1.0000 0.48641  0.13576  0.74805  Biso   1.000  H
  C13      1.0000 0.31640  0.15499  0.76762  Biso   1.000  C
  C14      1.0000 0.93704  0.19051  0.64481  Biso   1.000  C
  H8       1.0000 0.94984  0.16157  0.52399  Biso   1.000  H
  C15      1.0000 0.85120  0.06434  0.62005  Biso   1.000  C
  O4       1.0000 0.40403  0.44986  0.66192  Biso   1.000  O
  C16      1.0000 0.41477  0.44299  0.80716  Biso   1.000  C
  C17      1.0000 0.46152  0.30826  0.90315  Biso   1.000  C
  H9       1.0000 0.49664  0.20659  0.84144  Biso   1.000  H
  H10      1.0000 0.26848  0.18813  0.73136  Biso   1.000  H
  H11      1.0000 0.29997  0.17921  0.82214  Biso   1.000  H
  C18      1.0000 0.28563  0.05978  0.79854  Biso   1.000  C
  C19      1.0000 0.89438  0.16289  0.74005  Biso   1.000  C
  C20      1.0000 0.02588  0.24732  0.60807  Biso   1.000  C
  H12      1.0000 0.81739  0.05052  0.57783  Biso   1.000  H
  H13      1.0000 0.79127  0.05968  0.68011  Biso   1.000  H
  C21      1.0000 0.94477  0.99526  0.63140  Biso   1.000  C
  H14      1.0000 0.44069  0.42872  0.61676  Biso   1.000  H
  O5       1.0000 0.38647  0.53106  0.79779  Biso   1.000  O
  C22      1.0000 0.43250  0.39700  0.88844  Biso   1.000  C
  C23      1.0000 0.47947  0.25993  0.99352  Biso   1.000  C
  H15      1.0000 0.29953  0.03577  0.74484  Biso   1.000  H
  H16      1.0000 0.20550  0.05524  0.83542  Biso   1.000  H
  H17      1.0000 0.33199  0.02667  0.83528  Biso   1.000  H
  C24      1.0000 0.93750  0.18760  0.79895  Biso   1.000  C
  H18      1.0000 0.83239  0.12518  0.76591  Biso   1.000  H
  O6       1.0000 0.07702  0.27851  0.51544  Biso   1.000  O
  C25      1.0000 0.07036  0.27359  0.66513  Biso   1.000  C
  H19      1.0000 0.97422  0.00499  0.67799  Biso   1.000  H
  C26      1.0000 0.90409  0.90335  0.65980  Biso   1.000  C
  H20      1.0000 0.00787  0.00208  0.57277  Biso   1.000  H
  H21      1.0000 0.41985  0.55815  0.74401  Biso   1.000  H
  O7       1.0000 0.42048  0.43998  0.95603  Biso   1.000  O
  C27      1.0000 0.60087  0.26644  0.99031  Biso   1.000  C
  H22      1.0000 0.42987  0.29087  0.04100  Biso   1.000  H
  C28      1.0000 0.44229  0.16473  0.02472  Biso   1.000  C
  C29      1.0000 0.89133  0.15360  0.90198  Biso   1.000  C
  C30      1.0000 0.02601  0.24486  0.75934  Biso   1.000  C
  H23      1.0000 0.02643  0.28796  0.48978  Biso   1.000  H
  O8       1.0000 0.16037  0.32862  0.62723  Biso   1.000  O
  H24      1.0000 0.84580  0.89476  0.72007  Biso   1.000  H
  H25      1.0000 0.96765  0.86150  0.66267  Biso   1.000  H
  H26      1.0000 0.87230  0.89405  0.61498  Biso   1.000  H
  H27      1.0000 0.41930  0.49434  0.93434  Biso   1.000  H
  C31      1.0000 0.68732  0.21242  0.94926  Biso   1.000  C
  C32      1.0000 0.62902  0.32795  0.02718  Biso   1.000  C
  H28      1.0000 0.49532  0.13016  0.98326  Biso   1.000  H
  H29      1.0000 0.36633  0.16346  0.01980  Biso   1.000  H
  C33      1.0000 0.43852  0.12223  0.12242  Biso   1.000  C
  C34      1.0000 0.79874  0.21538  0.94598  Biso   1.000  C
  H30      1.0000 0.95507  0.15326  0.92593  Biso   1.000  H
  C35      1.0000 0.85138  0.05905  0.93222  Biso   1.000  C
  O9       1.0000 0.07732  0.27624  0.80798  Biso   1.000  O
  H31      1.0000 0.16588  0.35164  0.66732  Biso   1.000  H
  H32      1.0000 0.66983  0.17142  0.92217  Biso   1.000  H
  O10      1.0000 0.54946  0.38637  0.06762  Biso   1.000  O
  C36      1.0000 0.73917  0.33276  0.02561  Biso   1.000  C
  H33      1.0000 0.51352  0.12641  0.12796  Biso   1.000  H
  H34      1.0000 0.38279  0.15543  0.16401  Biso   1.000  H
  C37      1.0000 0.40789  0.02805  0.15300  Biso   1.000  C
  C38      1.0000 0.82294  0.27708  0.98456  Biso   1.000  C
  H35      1.0000 0.81931  0.04362  0.99982  Biso   1.000  H
  H36      1.0000 0.78959  0.05710  0.90773  Biso   1.000  H
  C39      1.0000 0.94190  0.98973  0.90246  Biso   1.000  C
  H37      1.0000 0.03366  0.27199  0.86189  Biso   1.000  H
  H38      1.0000 0.50419  0.40367  0.03786  Biso   1.000  H
  O11      1.0000 0.77104  0.39242  0.06043  Biso   1.000  O
  H39      1.0000 0.46573  0.99376  0.11517  Biso   1.000  H
  H40      1.0000 0.33442  0.02296  0.14664  Biso   1.000  H
  H41      1.0000 0.40352  0.00578  0.21724  Biso   1.000  H
  O12      1.0000 0.93340  0.28295  0.97991  Biso   1.000  O
  H42      1.0000 0.97391  0.00395  0.83487  Biso   1.000  H
  C40      1.0000 0.89493  0.89936  0.93510  Biso   1.000  C
  H43      1.0000 0.00376  0.99041  0.92723  Biso   1.000  H
  H44      1.0000 0.71701  0.40319  0.10525  Biso   1.000  H
  H45      1.0000 0.93626  0.31997  0.00830  Biso   1.000  H
  H46      1.0000 0.95558  0.85649  0.91560  Biso   1.000  H
  H47      1.0000 0.83536  0.89796  0.90896  Biso   1.000  H
  H48      1.0000 0.86313  0.88495  0.00208  Biso   1.000  H
  O13      1.0000 0.46521  0.60202  0.49081  Biso   1.000  O
  C41      1.0000 0.38220  0.66216  0.47206  Biso   1.000  C
  H49      1.0000 0.47462  0.60649  0.53897  Biso   1.000  H
  C42      1.0000 0.40633  0.72767  0.39181  Biso   1.000  C
  C43      1.0000 0.27330  0.65454  0.53460  Biso   1.000  C
  C44      1.0000 0.52644  0.73662  0.32477  Biso   1.000  C
  C45      1.0000 0.31748  0.78377  0.37553  Biso   1.000  C
  O14      1.0000 0.24635  0.59126  0.61396  Biso   1.000  O
  C46      1.0000 0.18697  0.71253  0.51640  Biso   1.000  C
  C47      1.0000 0.54282  0.68954  0.24896  Biso   1.000  C
  H50      1.0000 0.57772  0.70559  0.35986  Biso   1.000  H
  C48      1.0000 0.56100  0.83229  0.28919  Biso   1.000  C
  C49      1.0000 0.20753  0.77758  0.43704  Biso   1.000  C
  H51      1.0000 0.33242  0.82804  0.32039  Biso   1.000  H
  H52      1.0000 0.30141  0.55538  0.61375  Biso   1.000  H
  O15      1.0000 0.07885  0.70472  0.57831  Biso   1.000  O
  C50      1.0000 0.57363  0.60016  0.26107  Biso   1.000  C
  C51      1.0000 0.52530  0.73307  0.16700  Biso   1.000  C
  H53      1.0000 0.54435  0.85879  0.34228  Biso   1.000  H
  H54      1.0000 0.51358  0.86436  0.25197  Biso   1.000  H
  C52      1.0000 0.68358  0.84514  0.23241  Biso   1.000  C
  C53      1.0000 0.11211  0.84091  0.41631  Biso   1.000  C
  H55      1.0000 0.07758  0.66160  0.62224  Biso   1.000  H
  C54      1.0000 0.58521  0.55714  0.19286  Biso   1.000  C
  O16      1.0000 0.59596  0.55021  0.33811  Biso   1.000  O
  C55      1.0000 0.53846  0.69187  0.09688  Biso   1.000  C
  H56      1.0000 0.50335  0.79354  0.15859  Biso   1.000  H
  H57      1.0000 0.73151  0.81193  0.26867  Biso   1.000  H
  H58      1.0000 0.70003  0.82086  0.17788  Biso   1.000  H
  C56      1.0000 0.71436  0.94034  0.20148  Biso   1.000  C
  C57      1.0000 0.06294  0.80962  0.35521  Biso   1.000  C
  H59      1.0000 0.05018  0.83851  0.47596  Biso   1.000  H
  C58      1.0000 0.14887  0.93573  0.37998  Biso   1.000  C
  O17      1.0000 0.61352  0.46900  0.20224  Biso   1.000  O
  C59      1.0000 0.56750  0.60306  0.11159  Biso   1.000  C
  H60      1.0000 0.55929  0.57141  0.38326  Biso   1.000  H
  C60      1.0000 0.52052  0.74020  0.00650  Biso   1.000  C
  H61      1.0000 0.70046  0.96429  0.25519  Biso   1.000  H
  H62      1.0000 0.79449  0.94483  0.16461  Biso   1.000  H
  H63      1.0000 0.66800  0.97346  0.16474  Biso   1.000  H
  C61      1.0000 0.10560  0.83724  0.25998  Biso   1.000  C
  C62      1.0000 0.97413  0.75282  0.39188  Biso   1.000  C
  H64      1.0000 0.18263  0.94956  0.42212  Biso   1.000  H
  H65      1.0000 0.20875  0.94040  0.31984  Biso   1.000  H
  C63      1.0000 0.05522  0.00487  0.36862  Biso   1.000  C
  H66      1.0000 0.58017  0.44199  0.25594  Biso   1.000  H
  O18      1.0000 0.57952  0.56009  0.04399  Biso   1.000  O
  C64      1.0000 0.39913  0.73362  0.00971  Biso   1.000  C
  H67      1.0000 0.57013  0.70920  0.95902  Biso   1.000  H
  C65      1.0000 0.55770  0.83534  0.97530  Biso   1.000  C
  C66      1.0000 0.06251  0.81254  0.20100  Biso   1.000  C
  H68      1.0000 0.16759  0.87495  0.23412  Biso   1.000  H
  O19      1.0000 0.92297  0.72162  0.48458  Biso   1.000  O
  C67      1.0000 0.92966  0.72649  0.33482  Biso   1.000  C
  H69      1.0000 0.02579  0.99516  0.32196  Biso   1.000  H
  H70      1.0000 0.99213  0.99798  0.42725  Biso   1.000  H
  C68      1.0000 0.09590  0.09672  0.34023  Biso   1.000  C
  H71      1.0000 0.58069  0.50578  0.06568  Biso   1.000  H
  C69      1.0000 0.31267  0.78771  0.05076  Biso   1.000  C
  C70      1.0000 0.37099  0.67220  0.97277  Biso   1.000  C
  H72      1.0000 0.50467  0.86990  0.01676  Biso   1.000  H
  H73      1.0000 0.63374  0.83660  0.98023  Biso   1.000  H
  C71      1.0000 0.56150  0.87785  0.87754  Biso   1.000  C
  C72      1.0000 0.10865  0.84653  0.09804  Biso   1.000  C
  C73      1.0000 0.97401  0.75522  0.24062  Biso   1.000  C
  H74      1.0000 0.97356  0.71211  0.51024  Biso   1.000  H
  O20      1.0000 0.83962  0.67144  0.37279  Biso   1.000  O
  H75      1.0000 0.15430  0.10532  0.27989  Biso   1.000  H
  H76      1.0000 0.03236  0.13865  0.33729  Biso   1.000  H
  H77      1.0000 0.12770  0.10601  0.38504  Biso   1.000  H
  C74      1.0000 0.20125  0.78469  0.05405  Biso   1.000  C
  H78      1.0000 0.33024  0.82871  0.07786  Biso   1.000  H
  O21      1.0000 0.45053  0.61376  0.93241  Biso   1.000  O
  C75      1.0000 0.26084  0.66739  0.97434  Biso   1.000  C
  H79      1.0000 0.48648  0.87365  0.87206  Biso   1.000  H
  H80      1.0000 0.61721  0.84464  0.83601  Biso   1.000  H
  C76      1.0000 0.59213  0.97209  0.84696  Biso   1.000  C
  H81      1.0000 0.04492  0.84687  0.07409  Biso   1.000  H
  C77      1.0000 0.14861  0.94101  0.06780  Biso   1.000  C
  O22      1.0000 0.92266  0.72389  0.19204  Biso   1.000  O
  H82      1.0000 0.83411  0.64842  0.33270  Biso   1.000  H
  C78      1.0000 0.17705  0.72299  0.01546  Biso   1.000  C
  H83      1.0000 0.49579  0.59645  0.96217  Biso   1.000  H
  O23      1.0000 0.22902  0.60770  0.93959  Biso   1.000  O
  H84      1.0000 0.66560  0.97712  0.85332  Biso   1.000  H
  H85      1.0000 0.59648  0.99429  0.78278  Biso   1.000  H
  H86      1.0000 0.53434  0.00636  0.88486  Biso   1.000  H
  H87      1.0000 0.18068  0.95645  0.00021  Biso   1.000  H
  H88      1.0000 0.21040  0.94297  0.09229  Biso   1.000  H
  C79      1.0000 0.05810  0.01034  0.09756  Biso   1.000  C
  H89      1.0000 0.96633  0.72807  0.13813  Biso   1.000  H
  O24      1.0000 0.06659  0.71718  0.02011  Biso   1.000  O
  H90      1.0000 0.28298  0.59688  0.89478  Biso   1.000  H
  H91      1.0000 0.02607  0.99617  0.16515  Biso   1.000  H
  H92      1.0000 0.99622  0.00972  0.07279  Biso   1.000  H
  C80      1.0000 0.10507  0.10070  0.06493  Biso   1.000  C
  H93      1.0000 0.06374  0.68010  0.99172  Biso   1.000  H
  H94      1.0000 0.13685  0.11518  0.99795  Biso   1.000  H
  H95      1.0000 0.04440  0.14364  0.08442  Biso   1.000  H
  H96      1.0000 0.16463  0.10217  0.09106  Biso   1.000  H
