data_image0
_cell_length_a       12.586
_cell_length_b       15.846
_cell_length_c       15.983
_cell_angle_alpha    74.98
_cell_angle_beta     69.99
_cell_angle_gamma    82.86

_symmetry_space_group_name_H-M    "P 1"
_symmetry_int_tables_number       1

loop_
  _symmetry_equiv_pos_as_xyz
  'x, y, z'

loop_
  _atom_site_label
  _atom_site_occupancy
  _atom_site_fract_x
  _atom_site_fract_y
  _atom_site_fract_z
  _atom_site_thermal_displace_type
  _atom_site_B_iso_or_equiv
  _atom_site_type_symbol
  O1       1.0000 0.53554  0.39826  0.50927  Biso   1.000  O
  H1       1.0000 0.52317  0.39176  0.46292  Biso   1.000  H
  C1       1.0000 0.61809  0.33828  0.52796  Biso   1.000  C
  C2       1.0000 0.72748  0.34591  0.46546  Biso   1.000  C
  C3       1.0000 0.59403  0.27256  0.60826  Biso   1.000  C
  O2       1.0000 0.75432  0.40935  0.38598  Biso   1.000  O
  C4       1.0000 0.81363  0.28767  0.48346  Biso   1.000  C
  C5       1.0000 0.47400  0.26368  0.67522  Biso   1.000  C
  C6       1.0000 0.68286  0.21636  0.62449  Biso   1.000  C
  H2       1.0000 0.69809  0.44389  0.38536  Biso   1.000  H
  O3       1.0000 0.92185  0.29544  0.42178  Biso   1.000  O
  C7       1.0000 0.79298  0.22236  0.56308  Biso   1.000  C
  C8       1.0000 0.45738  0.31062  0.75086  Biso   1.000  C
  H3       1.0000 0.42269  0.29463  0.64010  Biso   1.000  H
  C9       1.0000 0.43986  0.16811  0.71068  Biso   1.000  C
  H4       1.0000 0.66775  0.17208  0.67960  Biso   1.000  H
  H5       1.0000 0.92212  0.33581  0.37571  Biso   1.000  H
  C10      1.0000 0.88868  0.15938  0.58348  Biso   1.000  C
  C11      1.0000 0.42626  0.39975  0.73902  Biso   1.000  C
  C12      1.0000 0.47491  0.26732  0.83308  Biso   1.000  C
  H6       1.0000 0.45684  0.14161  0.65755  Biso   1.000  H
  H7       1.0000 0.48718  0.13615  0.74806  Biso   1.000  H
  C13      1.0000 0.31688  0.15513  0.76743  Biso   1.000  C
  C14      1.0000 0.93769  0.19033  0.64496  Biso   1.000  C
  H8       1.0000 0.95057  0.16190  0.52372  Biso   1.000  H
  C15      1.0000 0.85174  0.06471  0.61976  Biso   1.000  C
  O4       1.0000 0.40395  0.44967  0.66194  Biso   1.000  O
  C16      1.0000 0.41470  0.44289  0.80714  Biso   1.000  C
  C17      1.0000 0.46133  0.30813  0.90339  Biso   1.000  C
  H9       1.0000 0.49715  0.20694  0.84150  Biso   1.000  H
  H10      1.0000 0.26901  0.18832  0.73108  Biso   1.000  H
  H11      1.0000 0.30016  0.17918  0.82213  Biso   1.000  H
  C18      1.0000 0.28597  0.05995  0.79824  Biso   1.000  C
  C19      1.0000 0.89495  0.16266  0.74012  Biso   1.000  C
  C20      1.0000 0.02648  0.24685  0.60806  Biso   1.000  C
  H12      1.0000 0.79205  0.05999  0.68001  Biso   1.000  H
  H13      1.0000 0.81749  0.05116  0.57766  Biso   1.000  H
  C21      1.0000 0.94496  0.99556  0.63072  Biso   1.000  C
  H14      1.0000 0.44120  0.42888  0.61662  Biso   1.000  H
  O5       1.0000 0.38569  0.53064  0.79803  Biso   1.000  O
  C22      1.0000 0.43220  0.39686  0.88874  Biso   1.000  C
  C23      1.0000 0.47963  0.25974  0.99390  Biso   1.000  C
  H15      1.0000 0.30039  0.03602  0.74443  Biso   1.000  H
  H16      1.0000 0.20560  0.05542  0.83473  Biso   1.000  H
  H17      1.0000 0.33193  0.02679  0.83534  Biso   1.000  H
  C24      1.0000 0.93796  0.18707  0.79892  Biso   1.000  C
  H18      1.0000 0.83289  0.12506  0.76593  Biso   1.000  H
  O6       1.0000 0.07771  0.27822  0.51543  Biso   1.000  O
  C25      1.0000 0.07127  0.27309  0.66522  Biso   1.000  C
  H19      1.0000 0.97512  0.00518  0.67707  Biso   1.000  H
  C26      1.0000 0.90430  0.90430  0.65933  Biso   1.000  C
  H20      1.0000 0.00778  0.00233  0.57184  Biso   1.000  H
  H21      1.0000 0.42455  0.55854  0.74628  Biso   1.000  H
  O7       1.0000 0.42029  0.43974  0.95631  Biso   1.000  O
  C27      1.0000 0.60098  0.26640  0.99054  Biso   1.000  C
  H22      1.0000 0.43006  0.29079  0.04141  Biso   1.000  H
  C28      1.0000 0.44222  0.16506  0.02505  Biso   1.000  C
  C29      1.0000 0.89146  0.15309  0.90243  Biso   1.000  C
  C30      1.0000 0.02641  0.24411  0.75970  Biso   1.000  C
  H23      1.0000 0.02710  0.28775  0.48969  Biso   1.000  H
  O8       1.0000 0.16124  0.32803  0.62743  Biso   1.000  O
  H24      1.0000 0.84584  0.89583  0.71958  Biso   1.000  H
  H25      1.0000 0.96781  0.86239  0.66248  Biso   1.000  H
  H26      1.0000 0.87251  0.89479  0.61449  Biso   1.000  H
  H27      1.0000 0.41572  0.49396  0.93523  Biso   1.000  H
  C31      1.0000 0.68719  0.21211  0.94974  Biso   1.000  C
  C32      1.0000 0.62939  0.32791  0.02717  Biso   1.000  C
  H28      1.0000 0.49502  0.13040  0.98349  Biso   1.000  H
  H29      1.0000 0.36605  0.16402  0.02025  Biso   1.000  H
  C33      1.0000 0.43871  0.12239  0.12274  Biso   1.000  C
  C34      1.0000 0.79884  0.21511  0.94625  Biso   1.000  C
  H30      1.0000 0.95518  0.15250  0.92660  Biso   1.000  H
  C35      1.0000 0.85105  0.05899  0.93242  Biso   1.000  C
  O9       1.0000 0.07793  0.27538  0.80851  Biso   1.000  O
  H31      1.0000 0.16676  0.35078  0.66762  Biso   1.000  H
  H32      1.0000 0.66940  0.17097  0.92304  Biso   1.000  H
  O10      1.0000 0.55015  0.38654  0.06735  Biso   1.000  O
  C36      1.0000 0.73968  0.33251  0.02566  Biso   1.000  C
  H33      1.0000 0.51382  0.12626  0.12821  Biso   1.000  H
  H34      1.0000 0.38304  0.15534  0.16457  Biso   1.000  H
  C37      1.0000 0.40768  0.02822  0.15272  Biso   1.000  C
  C38      1.0000 0.82343  0.27674  0.98465  Biso   1.000  C
  H35      1.0000 0.78946  0.05730  0.90764  Biso   1.000  H
  C39      1.0000 0.94170  0.98961  0.90257  Biso   1.000  C
  H36      1.0000 0.81872  0.04342  0.99999  Biso   1.000  H
  H37      1.0000 0.03261  0.27432  0.86143  Biso   1.000  H
  H38      1.0000 0.50491  0.40396  0.03757  Biso   1.000  H
  O11      1.0000 0.77181  0.39219  0.06023  Biso   1.000  O
  H39      1.0000 0.46542  0.99428  0.11452  Biso   1.000  H
  H40      1.0000 0.33414  0.02359  0.14608  Biso   1.000  H
  H41      1.0000 0.40330  0.00553  0.21687  Biso   1.000  H
  O12      1.0000 0.93409  0.28206  0.97986  Biso   1.000  O
  H42      1.0000 0.97395  0.00379  0.83493  Biso   1.000  H
  C40      1.0000 0.89445  0.89919  0.93543  Biso   1.000  C
  H43      1.0000 0.00361  0.99021  0.92735  Biso   1.000  H
  H44      1.0000 0.71654  0.40581  0.10261  Biso   1.000  H
  H45      1.0000 0.93747  0.31954  0.00759  Biso   1.000  H
  H46      1.0000 0.95529  0.85618  0.91661  Biso   1.000  H
  H47      1.0000 0.83559  0.89765  0.90853  Biso   1.000  H
  H48      1.0000 0.86188  0.88525  0.00225  Biso   1.000  H
  O13      1.0000 0.46441  0.60171  0.49072  Biso   1.000  O
  C41      1.0000 0.38187  0.66170  0.47203  Biso   1.000  C
  H49      1.0000 0.47668  0.60820  0.53713  Biso   1.000  H
  C42      1.0000 0.40592  0.72741  0.39173  Biso   1.000  C
  C43      1.0000 0.27247  0.65406  0.53453  Biso   1.000  C
  C44      1.0000 0.52595  0.73629  0.32477  Biso   1.000  C
  C45      1.0000 0.31707  0.78359  0.37557  Biso   1.000  C
  O14      1.0000 0.24564  0.59063  0.61401  Biso   1.000  O
  C46      1.0000 0.18630  0.71229  0.51660  Biso   1.000  C
  C47      1.0000 0.54246  0.68933  0.24919  Biso   1.000  C
  H50      1.0000 0.57724  0.70533  0.35996  Biso   1.000  H
  C48      1.0000 0.55998  0.83185  0.28938  Biso   1.000  C
  C49      1.0000 0.20697  0.77761  0.43691  Biso   1.000  C
  H51      1.0000 0.33210  0.82788  0.32046  Biso   1.000  H
  H52      1.0000 0.30184  0.55607  0.61470  Biso   1.000  H
  O15      1.0000 0.07808  0.70451  0.57828  Biso   1.000  O
  C50      1.0000 0.57370  0.60022  0.26097  Biso   1.000  C
  C51      1.0000 0.52503  0.73272  0.16690  Biso   1.000  C
  H53      1.0000 0.54308  0.85835  0.34250  Biso   1.000  H
  H54      1.0000 0.51267  0.86380  0.25200  Biso   1.000  H
  C52      1.0000 0.68306  0.84490  0.23256  Biso   1.000  C
  C53      1.0000 0.11127  0.84059  0.41651  Biso   1.000  C
  H55      1.0000 0.07783  0.66416  0.62428  Biso   1.000  H
  C54      1.0000 0.58526  0.55708  0.19285  Biso   1.000  C
  O16      1.0000 0.59598  0.55028  0.33812  Biso   1.000  O
  C55      1.0000 0.53862  0.69184  0.09660  Biso   1.000  C
  H56      1.0000 0.50278  0.79302  0.15855  Biso   1.000  H
  H57      1.0000 0.73095  0.81165  0.26891  Biso   1.000  H
  H58      1.0000 0.69977  0.82078  0.17793  Biso   1.000  H
  C56      1.0000 0.71395  0.94000  0.20182  Biso   1.000  C
  C57      1.0000 0.06224  0.80963  0.35510  Biso   1.000  C
  H59      1.0000 0.04931  0.83807  0.47627  Biso   1.000  H
  C58      1.0000 0.14819  0.93525  0.38029  Biso   1.000  C
  O17      1.0000 0.61423  0.46931  0.20202  Biso   1.000  O
  C59      1.0000 0.56775  0.60311  0.11125  Biso   1.000  C
  H60      1.0000 0.55875  0.57109  0.38337  Biso   1.000  H
  C60      1.0000 0.52029  0.74022  0.00616  Biso   1.000  C
  H61      1.0000 0.69957  0.96395  0.25556  Biso   1.000  H
  H62      1.0000 0.79428  0.94455  0.16526  Biso   1.000  H
  H63      1.0000 0.66803  0.97318  0.16465  Biso   1.000  H
  C61      1.0000 0.10498  0.83730  0.25994  Biso   1.000  C
  C62      1.0000 0.97340  0.75312  0.39193  Biso   1.000  C
  H64      1.0000 0.20790  0.93998  0.31998  Biso   1.000  H
  H65      1.0000 0.18238  0.94882  0.42233  Biso   1.000  H
  C63      1.0000 0.05489  0.00440  0.36934  Biso   1.000  C
  H66      1.0000 0.57532  0.44143  0.25371  Biso   1.000  H
  O18      1.0000 0.57964  0.56022  0.04375  Biso   1.000  O
  C64      1.0000 0.39887  0.73356  0.00952  Biso   1.000  C
  H67      1.0000 0.56987  0.70916  0.95865  Biso   1.000  H
  C65      1.0000 0.55773  0.83491  0.97494  Biso   1.000  C
  C66      1.0000 0.06200  0.81291  0.20107  Biso   1.000  C
  H68      1.0000 0.16704  0.87489  0.23413  Biso   1.000  H
  O19      1.0000 0.92222  0.72174  0.48463  Biso   1.000  O
  C67      1.0000 0.92869  0.72688  0.33477  Biso   1.000  C
  H69      1.0000 0.02476  0.99479  0.32292  Biso   1.000  H
  H70      1.0000 0.99209  0.99764  0.42815  Biso   1.000  H
  C68      1.0000 0.09563  0.09565  0.34072  Biso   1.000  C
  H71      1.0000 0.58413  0.50599  0.06483  Biso   1.000  H
  C69      1.0000 0.31275  0.78793  0.05025  Biso   1.000  C
  C70      1.0000 0.37054  0.67204  0.97289  Biso   1.000  C
  H72      1.0000 0.50491  0.86956  0.01657  Biso   1.000  H
  H73      1.0000 0.63388  0.83593  0.97980  Biso   1.000  H
  C71      1.0000 0.56125  0.87758  0.87725  Biso   1.000  C
  C72      1.0000 0.10849  0.84688  0.09755  Biso   1.000  C
  C73      1.0000 0.97344  0.75585  0.24036  Biso   1.000  C
  H74      1.0000 0.97277  0.71222  0.51030  Biso   1.000  H
  O20      1.0000 0.83871  0.67194  0.37256  Biso   1.000  O
  H75      1.0000 0.15404  0.10414  0.28041  Biso   1.000  H
  H76      1.0000 0.03204  0.13757  0.33757  Biso   1.000  H
  H77      1.0000 0.12736  0.10518  0.38550  Biso   1.000  H
  C74      1.0000 0.20112  0.78486  0.05374  Biso   1.000  C
  H78      1.0000 0.33045  0.82899  0.07702  Biso   1.000  H
  O21      1.0000 0.44980  0.61343  0.93264  Biso   1.000  O
  C75      1.0000 0.26027  0.66746  0.97433  Biso   1.000  C
  H79      1.0000 0.48610  0.87369  0.87184  Biso   1.000  H
  H80      1.0000 0.61689  0.84462  0.83549  Biso   1.000  H
  C76      1.0000 0.59217  0.97173  0.84734  Biso   1.000  C
  H81      1.0000 0.04474  0.84746  0.07346  Biso   1.000  H
  C77      1.0000 0.14891  0.94099  0.06757  Biso   1.000  C
  O22      1.0000 0.92203  0.72459  0.19148  Biso   1.000  O
  H82      1.0000 0.83312  0.64919  0.33237  Biso   1.000  H
  C78      1.0000 0.17644  0.72323  0.01533  Biso   1.000  C
  H83      1.0000 0.49505  0.59601  0.96242  Biso   1.000  H
  O23      1.0000 0.22804  0.60777  0.93982  Biso   1.000  O
  H84      1.0000 0.66574  0.97638  0.85391  Biso   1.000  H
  H85      1.0000 0.59666  0.99444  0.78312  Biso   1.000  H
  H86      1.0000 0.53452  0.00576  0.88547  Biso   1.000  H
  H87      1.0000 0.21047  0.94266  0.09242  Biso   1.000  H
  H88      1.0000 0.18123  0.95655  0.00000  Biso   1.000  H
  C79      1.0000 0.05823  0.01035  0.09749  Biso   1.000  C
  H89      1.0000 0.96731  0.72564  0.13863  Biso   1.000  H
  O24      1.0000 0.06578  0.71791  0.02013  Biso   1.000  O
  H90      1.0000 0.28338  0.59415  0.89745  Biso   1.000  H
  H91      1.0000 0.02589  0.99616  0.16512  Biso   1.000  H
  H92      1.0000 0.99634  0.00976  0.07264  Biso   1.000  H
  C80      1.0000 0.10540  0.10077  0.06463  Biso   1.000  C
  H93      1.0000 0.06239  0.68050  0.99240  Biso   1.000  H
  H94      1.0000 0.13800  0.11472  0.99774  Biso   1.000  H
  H95      1.0000 0.04456  0.14378  0.08345  Biso   1.000  H
  H96      1.0000 0.16429  0.10232  0.09146  Biso   1.000  H
