data_image0
_cell_length_a       12.463
_cell_length_b       36.115
_cell_length_c       19.005
_cell_angle_alpha    90
_cell_angle_beta     98.9
_cell_angle_gamma    90

_symmetry_space_group_name_H-M    "P 1"
_symmetry_int_tables_number       1

loop_
  _symmetry_equiv_pos_as_xyz
  'x, y, z'

loop_
  _atom_site_label
  _atom_site_occupancy
  _atom_site_fract_x
  _atom_site_fract_y
  _atom_site_fract_z
  _atom_site_thermal_displace_type
  _atom_site_B_iso_or_equiv
  _atom_site_type_symbol
  C1       1.0000 0.59130  0.35758  0.37798  Biso   1.000  C
  C2       1.0000 0.50509  0.36863  0.32749  Biso   1.000  C
  C3       1.0000 0.63720  0.38303  0.42900  Biso   1.000  C
  H1       1.0000 0.61863  0.33299  0.37787  Biso   1.000  H
  C4       1.0000 0.44216  0.34922  0.26821  Biso   1.000  C
  C5       1.0000 0.46363  0.40460  0.32728  Biso   1.000  C
  C6       1.0000 0.59250  0.41839  0.42831  Biso   1.000  C
  C7       1.0000 0.73269  0.37264  0.48652  Biso   1.000  C
  C8       1.0000 0.44839  0.31419  0.23817  Biso   1.000  C
  C9       1.0000 0.36482  0.37461  0.23562  Biso   1.000  C
  N1       1.0000 0.37681  0.40767  0.27146  Biso   1.000  N
  C10      1.0000 0.50676  0.43057  0.37707  Biso   1.000  C
  H2       1.0000 0.62173  0.43519  0.46479  Biso   1.000  H
  C11      1.0000 0.82656  0.39992  0.48141  Biso   1.000  C
  C12      1.0000 0.69884  0.37566  0.55970  Biso   1.000  C
  C13      1.0000 0.77395  0.33335  0.47672  Biso   1.000  C
  C14      1.0000 0.38026  0.30414  0.17591  Biso   1.000  C
  H3       1.0000 0.49998  0.29691  0.26060  Biso   1.000  H
  C15      1.0000 0.29358  0.36506  0.17442  Biso   1.000  C
  H4       1.0000 0.33641  0.42750  0.26108  Biso   1.000  H
  C16      1.0000 0.46408  0.46839  0.37611  Biso   1.000  C
  H5       1.0000 0.80572  0.42481  0.49510  Biso   1.000  H
  H6       1.0000 0.89158  0.39189  0.51347  Biso   1.000  H
  H7       1.0000 0.84188  0.40039  0.43241  Biso   1.000  H
  H8       1.0000 0.63754  0.35899  0.56241  Biso   1.000  H
  H9       1.0000 0.76008  0.36871  0.59618  Biso   1.000  H
  H10      1.0000 0.67708  0.40119  0.56779  Biso   1.000  H
  H11      1.0000 0.79347  0.33089  0.42889  Biso   1.000  H
  H12      1.0000 0.83797  0.32851  0.51240  Biso   1.000  H
  H13      1.0000 0.71673  0.31549  0.48247  Biso   1.000  H
  C17      1.0000 0.38822  0.26684  0.14162  Biso   1.000  C
  C18      1.0000 0.30480  0.33022  0.14582  Biso   1.000  C
  C19      1.0000 0.21339  0.39125  0.13789  Biso   1.000  C
  C20      1.0000 0.35819  0.48088  0.36940  Biso   1.000  C
  N2       1.0000 0.52955  0.50001  0.38219  Biso   1.000  N
  C21      1.0000 0.35608  0.23469  0.19280  Biso   1.000  C
  C22      1.0000 0.45837  0.24040  0.18321  Biso   1.000  C
  C23      1.0000 0.26886  0.24981  0.12542  Biso   1.000  C
  C24      1.0000 0.42162  0.27349  0.06620  Biso   1.000  C
  C25      1.0000 0.51479  0.25491  0.14481  Biso   1.000  C
  C26      1.0000 0.32900  0.26000  0.07291  Biso   1.000  C
  H14      1.0000 0.25816  0.32380  0.10322  Biso   1.000  H
  C27      1.0000 0.21746  0.41274  0.08069  Biso   1.000  C
  N3       1.0000 0.11287  0.39751  0.16010  Biso   1.000  N
  C28      1.0000 0.35819  0.51912  0.36940  Biso   1.000  C
  H15      1.0000 0.29549  0.46560  0.36552  Biso   1.000  H
  C29      1.0000 0.46408  0.53161  0.37611  Biso   1.000  C
  C30      1.0000 0.64384  0.50001  0.37691  Biso   1.000  C
  H16      1.0000 0.42855  0.23431  0.22651  Biso   1.000  H
  H17      1.0000 0.37260  0.21049  0.17368  Biso   1.000  H
  H18      1.0000 0.39770  0.23780  0.24062  Biso   1.000  H
  H19      1.0000 0.27831  0.23619  0.19541  Biso   1.000  H
  H20      1.0000 0.46297  0.21780  0.15509  Biso   1.000  H
  H21      1.0000 0.53095  0.25100  0.19599  Biso   1.000  H
  H22      1.0000 0.55080  0.25499  0.19440  Biso   1.000  H
  H23      1.0000 0.27071  0.22661  0.09890  Biso   1.000  H
  H24      1.0000 0.24215  0.24500  0.17038  Biso   1.000  H
  H25      1.0000 0.22043  0.26751  0.09698  Biso   1.000  H
  H26      1.0000 0.25217  0.26590  0.07270  Biso   1.000  H
  H27      1.0000 0.36863  0.28999  0.03851  Biso   1.000  H
  H28      1.0000 0.49371  0.28490  0.07179  Biso   1.000  H
  H29      1.0000 0.42323  0.24981  0.04138  Biso   1.000  H
  H30      1.0000 0.35771  0.27551  0.03781  Biso   1.000  H
  H31      1.0000 0.55112  0.27260  0.11722  Biso   1.000  H
  H32      1.0000 0.51862  0.22999  0.12468  Biso   1.000  H
  H33      1.0000 0.33613  0.23381  0.06061  Biso   1.000  H
  H34      1.0000 0.27656  0.41429  0.05470  Biso   1.000  H
  C31      1.0000 0.11859  0.43281  0.06562  Biso   1.000  C
  C32      1.0000 0.05540  0.42237  0.11477  Biso   1.000  C
  C33      1.0000 0.07972  0.38375  0.22331  Biso   1.000  C
  H35      1.0000 0.29549  0.53440  0.36552  Biso   1.000  H
  C34      1.0000 0.50676  0.56943  0.37707  Biso   1.000  C
  C35      1.0000 0.67594  0.50001  0.31061  Biso   1.000  C
  C36      1.0000 0.71809  0.50001  0.43790  Biso   1.000  C
  H36      1.0000 0.09983  0.45020  0.02828  Biso   1.000  H
  C37      1.0000 0.94172  0.43201  0.11792  Biso   1.000  C
  C38      1.0000 0.07715  0.34659  0.23759  Biso   1.000  C
  C39      1.0000 0.04628  0.40925  0.27098  Biso   1.000  C
  C40      1.0000 0.59250  0.58161  0.42831  Biso   1.000  C
  C41      1.0000 0.46363  0.59540  0.32728  Biso   1.000  C
  H37      1.0000 0.62356  0.50001  0.26848  Biso   1.000  H
  C42      1.0000 0.78560  0.50001  0.30640  Biso   1.000  C
  C43      1.0000 0.82897  0.50001  0.43209  Biso   1.000  C
  H38      1.0000 0.69509  0.50001  0.48327  Biso   1.000  H
  C44      1.0000 0.86150  0.40529  0.12308  Biso   1.000  C
  C45      1.0000 0.91022  0.46878  0.11397  Biso   1.000  C
  H39      1.0000 0.10105  0.32920  0.20590  Biso   1.000  H
  C46      1.0000 0.03949  0.33438  0.29900  Biso   1.000  C
  C47      1.0000 0.00744  0.39695  0.33047  Biso   1.000  C
  H40      1.0000 0.05036  0.43511  0.26209  Biso   1.000  H
  H41      1.0000 0.62173  0.56481  0.46479  Biso   1.000  H
  C48      1.0000 0.63720  0.61697  0.42900  Biso   1.000  C
  C49      1.0000 0.50509  0.63137  0.32749  Biso   1.000  C
  N4       1.0000 0.37681  0.59233  0.27146  Biso   1.000  N
  H42      1.0000 0.80884  0.50001  0.26108  Biso   1.000  H
  C50      1.0000 0.86075  0.50001  0.36679  Biso   1.000  C
  H43      1.0000 0.88200  0.50001  0.47390  Biso   1.000  H
  H44      1.0000 0.88116  0.37990  0.12681  Biso   1.000  H
  C51      1.0000 0.75162  0.41559  0.12292  Biso   1.000  C
  C52      1.0000 0.80166  0.48008  0.11397  Biso   1.000  C
  N5       1.0000 0.97382  0.50001  0.11179  Biso   1.000  N
  H45      1.0000 0.03824  0.30871  0.30970  Biso   1.000  H
  C53      1.0000 0.00368  0.36018  0.34448  Biso   1.000  C
  H46      1.0000 0.98331  0.41429  0.36221  Biso   1.000  H
  C54      1.0000 0.59130  0.64242  0.37798  Biso   1.000  C
  C55      1.0000 0.73269  0.62736  0.48652  Biso   1.000  C
  C56      1.0000 0.44216  0.65078  0.26821  Biso   1.000  C
  C57      1.0000 0.36482  0.62539  0.23562  Biso   1.000  C
  H47      1.0000 0.33641  0.57250  0.26108  Biso   1.000  H
  H48      1.0000 0.93596  0.50001  0.36317  Biso   1.000  H
  C58      1.0000 0.72318  0.45189  0.11802  Biso   1.000  C
  C59      1.0000 0.67036  0.38491  0.13048  Biso   1.000  C
  C60      1.0000 0.80166  0.51992  0.11397  Biso   1.000  C
  H49      1.0000 0.04368  0.50001  0.10929  Biso   1.000  H
  C61      1.0000 0.91022  0.53122  0.11397  Biso   1.000  C
  H50      1.0000 0.97620  0.35199  0.38581  Biso   1.000  H
  H51      1.0000 0.61863  0.66701  0.37787  Biso   1.000  H
  C62      1.0000 0.82656  0.60008  0.48141  Biso   1.000  C
  C63      1.0000 0.69884  0.62434  0.55970  Biso   1.000  C
  C64      1.0000 0.77395  0.66665  0.47672  Biso   1.000  C
  C65      1.0000 0.44839  0.68581  0.23817  Biso   1.000  C
  C66      1.0000 0.29358  0.63494  0.17442  Biso   1.000  C
  H52      1.0000 0.64935  0.45859  0.11728  Biso   1.000  H
  C67      1.0000 0.66873  0.35661  0.06881  Biso   1.000  C
  C68      1.0000 0.70556  0.36461  0.20180  Biso   1.000  C
  C69      1.0000 0.55490  0.39931  0.12947  Biso   1.000  C
  C70      1.0000 0.72318  0.54811  0.11802  Biso   1.000  C
  C71      1.0000 0.94172  0.56799  0.11792  Biso   1.000  C
  H53      1.0000 0.80572  0.57519  0.49510  Biso   1.000  H
  H54      1.0000 0.89158  0.60811  0.51347  Biso   1.000  H
  H55      1.0000 0.84188  0.59961  0.43241  Biso   1.000  H
  H56      1.0000 0.63754  0.64101  0.56241  Biso   1.000  H
  H57      1.0000 0.76008  0.63129  0.59618  Biso   1.000  H
  H58      1.0000 0.67708  0.59881  0.56779  Biso   1.000  H
  H59      1.0000 0.79347  0.66911  0.42889  Biso   1.000  H
  H60      1.0000 0.83797  0.67149  0.51240  Biso   1.000  H
  H61      1.0000 0.71673  0.68451  0.48247  Biso   1.000  H
  H62      1.0000 0.49998  0.70309  0.26060  Biso   1.000  H
  C72      1.0000 0.38026  0.69586  0.17591  Biso   1.000  C
  C73      1.0000 0.21339  0.60875  0.13789  Biso   1.000  C
  C74      1.0000 0.30480  0.66978  0.14582  Biso   1.000  C
  H63      1.0000 0.74308  0.34891  0.06530  Biso   1.000  H
  H64      1.0000 0.62603  0.33490  0.07829  Biso   1.000  H
  H65      1.0000 0.63583  0.36810  0.02391  Biso   1.000  H
  H66      1.0000 0.77836  0.35409  0.20260  Biso   1.000  H
  H67      1.0000 0.70669  0.38211  0.24132  Biso   1.000  H
  H68      1.0000 0.65416  0.34459  0.20670  Biso   1.000  H
  H69      1.0000 0.50547  0.37829  0.13118  Biso   1.000  H
  H70      1.0000 0.55277  0.41531  0.17080  Biso   1.000  H
  H71      1.0000 0.53237  0.41340  0.08569  Biso   1.000  H
  C75      1.0000 0.75162  0.58441  0.12292  Biso   1.000  C
  H72      1.0000 0.64935  0.54141  0.11728  Biso   1.000  H
  C76      1.0000 0.05540  0.57763  0.11477  Biso   1.000  C
  C77      1.0000 0.86150  0.59471  0.12308  Biso   1.000  C
  C78      1.0000 0.38822  0.73316  0.14162  Biso   1.000  C
  N6       1.0000 0.11287  0.60249  0.16010  Biso   1.000  N
  C79      1.0000 0.21746  0.58726  0.08069  Biso   1.000  C
  H73      1.0000 0.25816  0.67620  0.10322  Biso   1.000  H
  C80      1.0000 0.67036  0.61509  0.13048  Biso   1.000  C
  C81      1.0000 0.11859  0.56719  0.06562  Biso   1.000  C
  H74      1.0000 0.88116  0.62010  0.12681  Biso   1.000  H
  C82      1.0000 0.45837  0.75960  0.18321  Biso   1.000  C
  C83      1.0000 0.26886  0.75019  0.12542  Biso   1.000  C
  C84      1.0000 0.42162  0.72651  0.06620  Biso   1.000  C
  C85      1.0000 0.51479  0.74509  0.14481  Biso   1.000  C
  C86      1.0000 0.35608  0.76531  0.19280  Biso   1.000  C
  C87      1.0000 0.32900  0.74000  0.07291  Biso   1.000  C
  C88      1.0000 0.07972  0.61625  0.22331  Biso   1.000  C
  H75      1.0000 0.27656  0.58571  0.05470  Biso   1.000  H
  C89      1.0000 0.66873  0.64339  0.06881  Biso   1.000  C
  C90      1.0000 0.70556  0.63539  0.20180  Biso   1.000  C
  C91      1.0000 0.55490  0.60069  0.12947  Biso   1.000  C
  H76      1.0000 0.09983  0.54980  0.02828  Biso   1.000  H
  H77      1.0000 0.46297  0.78220  0.15509  Biso   1.000  H
  H78      1.0000 0.53095  0.74900  0.19599  Biso   1.000  H
  H79      1.0000 0.42855  0.76569  0.22651  Biso   1.000  H
  H80      1.0000 0.55080  0.74501  0.19440  Biso   1.000  H
  H81      1.0000 0.27071  0.77339  0.09890  Biso   1.000  H
  H82      1.0000 0.24215  0.75500  0.17038  Biso   1.000  H
  H83      1.0000 0.22043  0.73249  0.09698  Biso   1.000  H
  H84      1.0000 0.25217  0.73410  0.07270  Biso   1.000  H
  H85      1.0000 0.36863  0.71001  0.03851  Biso   1.000  H
  H86      1.0000 0.49371  0.71510  0.07179  Biso   1.000  H
  H87      1.0000 0.42323  0.75019  0.04138  Biso   1.000  H
  H88      1.0000 0.35771  0.72449  0.03781  Biso   1.000  H
  H89      1.0000 0.55112  0.72740  0.11722  Biso   1.000  H
  H90      1.0000 0.51862  0.77001  0.12468  Biso   1.000  H
  H91      1.0000 0.37260  0.78951  0.17368  Biso   1.000  H
  H92      1.0000 0.39770  0.76220  0.24062  Biso   1.000  H
  H93      1.0000 0.27831  0.76381  0.19541  Biso   1.000  H
  H94      1.0000 0.33613  0.76619  0.06061  Biso   1.000  H
  C92      1.0000 0.07715  0.65341  0.23759  Biso   1.000  C
  C93      1.0000 0.04628  0.59075  0.27098  Biso   1.000  C
  H95      1.0000 0.74308  0.65109  0.06530  Biso   1.000  H
  H96      1.0000 0.62603  0.66510  0.07829  Biso   1.000  H
  H97      1.0000 0.63583  0.63190  0.02391  Biso   1.000  H
  H98      1.0000 0.77836  0.64591  0.20260  Biso   1.000  H
  H99      1.0000 0.70669  0.61789  0.24132  Biso   1.000  H
  H100     1.0000 0.65416  0.65541  0.20670  Biso   1.000  H
  H101     1.0000 0.50547  0.62171  0.13118  Biso   1.000  H
  H102     1.0000 0.55277  0.58469  0.17080  Biso   1.000  H
  H103     1.0000 0.53237  0.58660  0.08569  Biso   1.000  H
  H104     1.0000 0.10105  0.67080  0.20590  Biso   1.000  H
  C94      1.0000 0.03949  0.66562  0.29900  Biso   1.000  C
  C95      1.0000 0.00744  0.60305  0.33047  Biso   1.000  C
  H105     1.0000 0.05036  0.56489  0.26209  Biso   1.000  H
  H106     1.0000 0.03824  0.69129  0.30970  Biso   1.000  H
  C96      1.0000 0.00368  0.63982  0.34448  Biso   1.000  C
  H107     1.0000 0.98331  0.58571  0.36221  Biso   1.000  H
  H108     1.0000 0.97620  0.64801  0.38581  Biso   1.000  H
  C97      1.0000 0.40864  0.35758  0.62201  Biso   1.000  C
  C98      1.0000 0.36274  0.38303  0.57099  Biso   1.000  C
  H109     1.0000 0.38122  0.33299  0.62212  Biso   1.000  H
  C99      1.0000 0.49485  0.36863  0.67250  Biso   1.000  C
  C100     1.0000 0.26725  0.37264  0.51347  Biso   1.000  C
  C101     1.0000 0.40744  0.41839  0.57168  Biso   1.000  C
  C102     1.0000 0.53622  0.40460  0.67271  Biso   1.000  C
  C103     1.0000 0.55770  0.34922  0.73178  Biso   1.000  C
  C104     1.0000 0.30110  0.37566  0.44029  Biso   1.000  C
  C105     1.0000 0.17338  0.39992  0.51858  Biso   1.000  C
  C106     1.0000 0.22591  0.33335  0.52327  Biso   1.000  C
  C107     1.0000 0.49318  0.43057  0.62292  Biso   1.000  C
  H110     1.0000 0.37813  0.43519  0.53520  Biso   1.000  H
  N7       1.0000 0.62313  0.40767  0.72853  Biso   1.000  N
  C108     1.0000 0.63512  0.37461  0.76437  Biso   1.000  C
  C109     1.0000 0.55155  0.31419  0.76182  Biso   1.000  C
  H111     1.0000 0.36232  0.35899  0.43758  Biso   1.000  H
  H112     1.0000 0.23985  0.36871  0.40381  Biso   1.000  H
  H113     1.0000 0.32286  0.40119  0.43220  Biso   1.000  H
  H114     1.0000 0.19414  0.42481  0.50490  Biso   1.000  H
  H115     1.0000 0.10836  0.39189  0.48652  Biso   1.000  H
  H116     1.0000 0.15806  0.40039  0.56758  Biso   1.000  H
  H117     1.0000 0.20647  0.33089  0.57110  Biso   1.000  H
  H118     1.0000 0.16197  0.32851  0.48759  Biso   1.000  H
  H119     1.0000 0.28313  0.31549  0.51752  Biso   1.000  H
  C110     1.0000 0.53586  0.46839  0.62388  Biso   1.000  C
  H120     1.0000 0.66353  0.42750  0.73892  Biso   1.000  H
  C111     1.0000 0.70636  0.36506  0.82557  Biso   1.000  C
  H121     1.0000 0.49996  0.29691  0.73939  Biso   1.000  H
  C112     1.0000 0.61959  0.30414  0.82408  Biso   1.000  C
  C113     1.0000 0.64175  0.48088  0.63059  Biso   1.000  C
  N8       1.0000 0.47031  0.50001  0.61780  Biso   1.000  N
  C114     1.0000 0.69514  0.33022  0.85417  Biso   1.000  C
  C115     1.0000 0.78655  0.39125  0.86210  Biso   1.000  C
  C116     1.0000 0.61172  0.26684  0.85837  Biso   1.000  C
  C117     1.0000 0.64175  0.51912  0.63059  Biso   1.000  C
  H122     1.0000 0.70445  0.46560  0.63447  Biso   1.000  H
  C118     1.0000 0.53586  0.53161  0.62388  Biso   1.000  C
  C119     1.0000 0.35601  0.50001  0.62308  Biso   1.000  C
  H123     1.0000 0.74170  0.32380  0.89677  Biso   1.000  H
  C120     1.0000 0.78240  0.41274  0.91930  Biso   1.000  C
  N9       1.0000 0.88707  0.39751  0.83989  Biso   1.000  N
  C121     1.0000 0.54157  0.24040  0.81678  Biso   1.000  C
  C122     1.0000 0.73101  0.24981  0.87462  Biso   1.000  C
  C123     1.0000 0.57832  0.27349  0.93379  Biso   1.000  C
  C124     1.0000 0.48515  0.25491  0.85518  Biso   1.000  C
  C125     1.0000 0.64386  0.23469  0.80719  Biso   1.000  C
  C126     1.0000 0.67094  0.26000  0.92708  Biso   1.000  C
  H124     1.0000 0.70445  0.53440  0.63447  Biso   1.000  H
  C127     1.0000 0.49318  0.56943  0.62292  Biso   1.000  C
  C128     1.0000 0.32392  0.50001  0.68938  Biso   1.000  C
  C129     1.0000 0.28185  0.50001  0.56210  Biso   1.000  C
  H125     1.0000 0.72329  0.41429  0.94529  Biso   1.000  H
  C130     1.0000 0.88135  0.43281  0.93438  Biso   1.000  C
  C131     1.0000 0.94454  0.42237  0.88522  Biso   1.000  C
  C132     1.0000 0.92021  0.38375  0.77668  Biso   1.000  C
  H126     1.0000 0.53697  0.21780  0.84490  Biso   1.000  H
  H127     1.0000 0.46891  0.25100  0.80400  Biso   1.000  H
  H128     1.0000 0.57131  0.23431  0.77348  Biso   1.000  H
  H129     1.0000 0.44914  0.25499  0.80560  Biso   1.000  H
  H130     1.0000 0.72923  0.22661  0.90109  Biso   1.000  H
  H131     1.0000 0.75771  0.24500  0.82962  Biso   1.000  H
  H132     1.0000 0.77951  0.26751  0.90301  Biso   1.000  H
  H133     1.0000 0.74769  0.26590  0.92729  Biso   1.000  H
  H134     1.0000 0.63131  0.28999  0.96148  Biso   1.000  H
  H135     1.0000 0.50623  0.28490  0.92820  Biso   1.000  H
  H136     1.0000 0.57671  0.24981  0.95861  Biso   1.000  H
  H137     1.0000 0.64223  0.27551  0.96218  Biso   1.000  H
  H138     1.0000 0.44881  0.27260  0.88277  Biso   1.000  H
  H139     1.0000 0.48132  0.22999  0.87531  Biso   1.000  H
  H140     1.0000 0.62734  0.21049  0.82631  Biso   1.000  H
  H141     1.0000 0.60225  0.23780  0.75942  Biso   1.000  H
  H142     1.0000 0.72163  0.23619  0.80458  Biso   1.000  H
  H143     1.0000 0.66381  0.23381  0.93938  Biso   1.000  H
  C133     1.0000 0.40744  0.58161  0.57168  Biso   1.000  C
  C134     1.0000 0.53622  0.59540  0.67271  Biso   1.000  C
  H144     1.0000 0.37638  0.50001  0.73151  Biso   1.000  H
  C135     1.0000 0.21434  0.50001  0.69359  Biso   1.000  C
  C136     1.0000 0.17097  0.50001  0.56790  Biso   1.000  C
  H145     1.0000 0.30485  0.50001  0.51672  Biso   1.000  H
  H146     1.0000 0.90011  0.45020  0.97171  Biso   1.000  H
  C137     1.0000 0.05822  0.43201  0.88208  Biso   1.000  C
  C138     1.0000 0.92270  0.34659  0.76240  Biso   1.000  C
  C139     1.0000 0.95366  0.40925  0.72901  Biso   1.000  C
  H147     1.0000 0.37813  0.56481  0.53520  Biso   1.000  H
  C140     1.0000 0.36274  0.61697  0.57099  Biso   1.000  C
  C141     1.0000 0.49485  0.63137  0.67250  Biso   1.000  C
  N10      1.0000 0.62313  0.59233  0.72853  Biso   1.000  N
  H148     1.0000 0.19101  0.50001  0.73892  Biso   1.000  H
  C142     1.0000 0.13911  0.50001  0.63320  Biso   1.000  C
  H149     1.0000 0.11794  0.50001  0.52609  Biso   1.000  H
  C143     1.0000 0.13844  0.40529  0.87691  Biso   1.000  C
  C144     1.0000 0.08972  0.46878  0.88602  Biso   1.000  C
  H150     1.0000 0.89881  0.32920  0.79409  Biso   1.000  H
  C145     1.0000 0.96045  0.33438  0.70099  Biso   1.000  C
  C146     1.0000 0.99242  0.39695  0.66952  Biso   1.000  C
  H151     1.0000 0.94958  0.43511  0.73790  Biso   1.000  H
  C147     1.0000 0.40864  0.64242  0.62201  Biso   1.000  C
  C148     1.0000 0.26725  0.62736  0.51347  Biso   1.000  C
  C149     1.0000 0.55770  0.65078  0.73178  Biso   1.000  C
  C150     1.0000 0.63512  0.62539  0.76437  Biso   1.000  C
  H152     1.0000 0.66353  0.57250  0.73892  Biso   1.000  H
  H153     1.0000 0.06398  0.50001  0.63682  Biso   1.000  H
  H154     1.0000 0.11870  0.37990  0.87318  Biso   1.000  H
  C151     1.0000 0.24832  0.41559  0.87707  Biso   1.000  C
  C152     1.0000 0.19820  0.48008  0.88602  Biso   1.000  C
  N11      1.0000 0.02612  0.50001  0.88820  Biso   1.000  N
  H155     1.0000 0.96162  0.30871  0.69029  Biso   1.000  H
  C153     1.0000 0.99626  0.36018  0.65551  Biso   1.000  C
  H156     1.0000 0.01663  0.41429  0.63778  Biso   1.000  H
  H157     1.0000 0.38122  0.66701  0.62212  Biso   1.000  H
  C154     1.0000 0.17338  0.60008  0.51858  Biso   1.000  C
  C155     1.0000 0.30110  0.62434  0.44029  Biso   1.000  C
  C156     1.0000 0.22591  0.66665  0.52327  Biso   1.000  C
  C157     1.0000 0.55155  0.68581  0.76182  Biso   1.000  C
  C158     1.0000 0.70636  0.63494  0.82557  Biso   1.000  C
  C159     1.0000 0.27676  0.45189  0.88197  Biso   1.000  C
  C160     1.0000 0.32950  0.38491  0.86951  Biso   1.000  C
  C161     1.0000 0.19820  0.51992  0.88602  Biso   1.000  C
  H158     1.0000 0.95626  0.50001  0.89070  Biso   1.000  H
  C162     1.0000 0.08972  0.53122  0.88602  Biso   1.000  C
  H159     1.0000 0.02374  0.35199  0.61418  Biso   1.000  H
  H160     1.0000 0.19414  0.57519  0.50490  Biso   1.000  H
  H161     1.0000 0.10836  0.60811  0.48652  Biso   1.000  H
  H162     1.0000 0.15806  0.59961  0.56758  Biso   1.000  H
  H163     1.0000 0.36232  0.64101  0.43758  Biso   1.000  H
  H164     1.0000 0.23985  0.63129  0.40381  Biso   1.000  H
  H165     1.0000 0.32286  0.59881  0.43220  Biso   1.000  H
  H166     1.0000 0.20647  0.66911  0.57110  Biso   1.000  H
  H167     1.0000 0.16197  0.67149  0.48759  Biso   1.000  H
  H168     1.0000 0.28313  0.68451  0.51752  Biso   1.000  H
  H169     1.0000 0.49996  0.70309  0.73939  Biso   1.000  H
  C163     1.0000 0.61959  0.69586  0.82408  Biso   1.000  C
  C164     1.0000 0.69514  0.66978  0.85417  Biso   1.000  C
  C165     1.0000 0.78655  0.60875  0.86210  Biso   1.000  C
  H170     1.0000 0.35051  0.45859  0.88271  Biso   1.000  H
  C166     1.0000 0.33121  0.35661  0.93118  Biso   1.000  C
  C167     1.0000 0.29430  0.36461  0.79819  Biso   1.000  C
  C168     1.0000 0.44504  0.39931  0.87052  Biso   1.000  C
  C169     1.0000 0.27676  0.54811  0.88197  Biso   1.000  C
  C170     1.0000 0.05822  0.56799  0.88208  Biso   1.000  C
  C171     1.0000 0.61172  0.73316  0.85837  Biso   1.000  C
  H171     1.0000 0.74170  0.67620  0.89677  Biso   1.000  H
  C172     1.0000 0.78240  0.58726  0.91930  Biso   1.000  C
  N12      1.0000 0.88707  0.60249  0.83989  Biso   1.000  N
  H172     1.0000 0.25686  0.34891  0.93470  Biso   1.000  H
  H173     1.0000 0.37391  0.33490  0.92170  Biso   1.000  H
  H174     1.0000 0.36411  0.36810  0.97608  Biso   1.000  H
  H175     1.0000 0.22150  0.35409  0.79739  Biso   1.000  H
  H176     1.0000 0.29324  0.38211  0.75867  Biso   1.000  H
  H177     1.0000 0.34570  0.34459  0.79329  Biso   1.000  H
  H178     1.0000 0.49447  0.37829  0.86881  Biso   1.000  H
  H179     1.0000 0.44717  0.41531  0.82919  Biso   1.000  H
  H180     1.0000 0.46757  0.41340  0.91430  Biso   1.000  H
  C173     1.0000 0.24832  0.58441  0.87707  Biso   1.000  C
  H181     1.0000 0.35051  0.54141  0.88271  Biso   1.000  H
  C174     1.0000 0.94454  0.57763  0.88522  Biso   1.000  C
  C175     1.0000 0.13844  0.59471  0.87691  Biso   1.000  C
  C176     1.0000 0.54157  0.75960  0.81678  Biso   1.000  C
  C177     1.0000 0.73101  0.75019  0.87462  Biso   1.000  C
  C178     1.0000 0.57832  0.72651  0.93379  Biso   1.000  C
  C179     1.0000 0.48515  0.74509  0.85518  Biso   1.000  C
  C180     1.0000 0.64386  0.76531  0.80719  Biso   1.000  C
  C181     1.0000 0.67094  0.74000  0.92708  Biso   1.000  C
  H182     1.0000 0.72329  0.58571  0.94529  Biso   1.000  H
  C182     1.0000 0.88135  0.56719  0.93438  Biso   1.000  C
  C183     1.0000 0.92021  0.61625  0.77668  Biso   1.000  C
  C184     1.0000 0.32950  0.61509  0.86951  Biso   1.000  C
  H183     1.0000 0.11870  0.62010  0.87318  Biso   1.000  H
  H184     1.0000 0.53697  0.78220  0.84490  Biso   1.000  H
  H185     1.0000 0.46891  0.74900  0.80400  Biso   1.000  H
  H186     1.0000 0.57131  0.76569  0.77348  Biso   1.000  H
  H187     1.0000 0.44914  0.74501  0.80560  Biso   1.000  H
  H188     1.0000 0.72923  0.77339  0.90109  Biso   1.000  H
  H189     1.0000 0.75771  0.75500  0.82962  Biso   1.000  H
  H190     1.0000 0.77951  0.73249  0.90301  Biso   1.000  H
  H191     1.0000 0.74769  0.73410  0.92729  Biso   1.000  H
  H192     1.0000 0.63131  0.71001  0.96148  Biso   1.000  H
  H193     1.0000 0.50623  0.71510  0.92820  Biso   1.000  H
  H194     1.0000 0.57671  0.75019  0.95861  Biso   1.000  H
  H195     1.0000 0.64223  0.72449  0.96218  Biso   1.000  H
  H196     1.0000 0.44881  0.72740  0.88277  Biso   1.000  H
  H197     1.0000 0.48132  0.77001  0.87531  Biso   1.000  H
  H198     1.0000 0.62734  0.78951  0.82631  Biso   1.000  H
  H199     1.0000 0.60225  0.76220  0.75942  Biso   1.000  H
  H200     1.0000 0.72163  0.76381  0.80458  Biso   1.000  H
  H201     1.0000 0.66381  0.76619  0.93938  Biso   1.000  H
  H202     1.0000 0.90011  0.54980  0.97171  Biso   1.000  H
  C185     1.0000 0.92270  0.65341  0.76240  Biso   1.000  C
  C186     1.0000 0.95366  0.59075  0.72901  Biso   1.000  C
  C187     1.0000 0.33121  0.64339  0.93118  Biso   1.000  C
  C188     1.0000 0.29430  0.63539  0.79819  Biso   1.000  C
  C189     1.0000 0.44504  0.60069  0.87052  Biso   1.000  C
  H203     1.0000 0.89881  0.67080  0.79409  Biso   1.000  H
  C190     1.0000 0.96045  0.66562  0.70099  Biso   1.000  C
  C191     1.0000 0.99242  0.60305  0.66952  Biso   1.000  C
  H204     1.0000 0.94958  0.56489  0.73790  Biso   1.000  H
  H205     1.0000 0.25686  0.65109  0.93470  Biso   1.000  H
  H206     1.0000 0.37391  0.66510  0.92170  Biso   1.000  H
  H207     1.0000 0.36411  0.63190  0.97608  Biso   1.000  H
  H208     1.0000 0.22150  0.64591  0.79739  Biso   1.000  H
  H209     1.0000 0.29324  0.61789  0.75867  Biso   1.000  H
  H210     1.0000 0.34570  0.65541  0.79329  Biso   1.000  H
  H211     1.0000 0.49447  0.62171  0.86881  Biso   1.000  H
  H212     1.0000 0.44717  0.58469  0.82919  Biso   1.000  H
  H213     1.0000 0.46757  0.58660  0.91430  Biso   1.000  H
  H214     1.0000 0.96162  0.69129  0.69029  Biso   1.000  H
  C192     1.0000 0.99626  0.63982  0.65551  Biso   1.000  C
  H215     1.0000 0.01663  0.58571  0.63778  Biso   1.000  H
  H216     1.0000 0.02374  0.64801  0.61418  Biso   1.000  H
  C193     1.0000 0.46041  0.16561  0.70099  Biso   1.000  C
  C194     1.0000 0.49622  0.13983  0.65551  Biso   1.000  C
  C195     1.0000 0.42274  0.15340  0.76240  Biso   1.000  C
  H217     1.0000 0.46166  0.19131  0.69029  Biso   1.000  H
  H218     1.0000 0.52378  0.14800  0.61418  Biso   1.000  H
  C196     1.0000 0.49246  0.10303  0.66952  Biso   1.000  C
  C197     1.0000 0.42025  0.11624  0.77668  Biso   1.000  C
  H219     1.0000 0.39885  0.17079  0.79409  Biso   1.000  H
  H220     1.0000 0.51667  0.08570  0.63778  Biso   1.000  H
  C198     1.0000 0.45362  0.09074  0.72901  Biso   1.000  C
  N13      1.0000 0.38703  0.10251  0.83989  Biso   1.000  N
  H221     1.0000 0.44954  0.06490  0.73790  Biso   1.000  H
  C199     1.0000 0.28651  0.10876  0.86210  Biso   1.000  C
  C200     1.0000 0.44450  0.07764  0.88522  Biso   1.000  C
  C201     1.0000 0.20632  0.13493  0.82557  Biso   1.000  C
  C202     1.0000 0.28244  0.08725  0.91930  Biso   1.000  C
  C203     1.0000 0.38131  0.06720  0.93438  Biso   1.000  C
  C204     1.0000 0.55826  0.06798  0.88208  Biso   1.000  C
  C205     1.0000 0.13516  0.12540  0.76437  Biso   1.000  C
  C206     1.0000 0.19510  0.16976  0.85417  Biso   1.000  C
  H222     1.0000 0.22333  0.08570  0.94529  Biso   1.000  H
  H223     1.0000 0.40015  0.04981  0.97171  Biso   1.000  H
  C207     1.0000 0.63840  0.09470  0.87691  Biso   1.000  C
  C208     1.0000 0.58976  0.03123  0.88602  Biso   1.000  C
  C209     1.0000 0.05774  0.15080  0.73178  Biso   1.000  C
  N14      1.0000 0.12317  0.09232  0.72853  Biso   1.000  N
  C210     1.0000 0.11963  0.19585  0.82408  Biso   1.000  C
  H224     1.0000 0.24174  0.17619  0.89677  Biso   1.000  H
  H225     1.0000 0.61874  0.12009  0.87318  Biso   1.000  H
  C211     1.0000 0.74836  0.08440  0.87707  Biso   1.000  C
  C212     1.0000 0.69824  0.01991  0.88602  Biso   1.000  C
  N15      1.0000 0.52616  0.00000  0.88820  Biso   1.000  N
  C213     1.0000 0.05151  0.18582  0.76182  Biso   1.000  C
  C214     1.0000 0.99481  0.13139  0.67250  Biso   1.000  C
  C215     1.0000 0.03626  0.09539  0.67271  Biso   1.000  C
  H226     1.0000 0.16357  0.07249  0.73892  Biso   1.000  H
  C216     1.0000 0.11176  0.23317  0.85837  Biso   1.000  C
  C217     1.0000 0.77672  0.04810  0.88197  Biso   1.000  C
  C218     1.0000 0.82954  0.11510  0.86951  Biso   1.000  C
  C219     1.0000 0.69824  0.98009  0.88602  Biso   1.000  C
  H227     1.0000 0.45622  0.00000  0.89070  Biso   1.000  H
  C220     1.0000 0.58976  0.96877  0.88602  Biso   1.000  C
  H228     1.0000 0.99992  0.20310  0.73939  Biso   1.000  H
  C221     1.0000 0.90868  0.14241  0.62201  Biso   1.000  C
  C222     1.0000 0.99314  0.06942  0.62292  Biso   1.000  C
  C223     1.0000 0.04153  0.25959  0.81678  Biso   1.000  C
  C224     1.0000 0.23105  0.25020  0.87462  Biso   1.000  C
  C225     1.0000 0.07836  0.22650  0.93379  Biso   1.000  C
  C226     1.0000 0.14381  0.26529  0.80719  Biso   1.000  C
  C227     1.0000 0.17089  0.24001  0.92708  Biso   1.000  C
  C228     1.0000 0.98511  0.24511  0.85518  Biso   1.000  C
  H229     1.0000 0.85055  0.04140  0.88271  Biso   1.000  H
  C229     1.0000 0.83125  0.14340  0.93118  Biso   1.000  C
  C230     1.0000 0.79434  0.13540  0.79819  Biso   1.000  C
  C231     1.0000 0.94500  0.10071  0.87052  Biso   1.000  C
  C232     1.0000 0.77672  0.95190  0.88197  Biso   1.000  C
  C233     1.0000 0.55826  0.93202  0.88208  Biso   1.000  C
  C234     1.0000 0.86278  0.11696  0.57099  Biso   1.000  C
  H230     1.0000 0.88126  0.16699  0.62212  Biso   1.000  H
  C235     1.0000 0.03582  0.03159  0.62388  Biso   1.000  C
  C236     1.0000 0.90748  0.08160  0.57168  Biso   1.000  C
  H231     1.0000 0.03693  0.28221  0.84490  Biso   1.000  H
  H232     1.0000 0.07135  0.26571  0.77348  Biso   1.000  H
  H233     1.0000 0.96895  0.24901  0.80400  Biso   1.000  H
  H234     1.0000 0.94910  0.24500  0.80560  Biso   1.000  H
  H235     1.0000 0.22919  0.27340  0.90109  Biso   1.000  H
  H236     1.0000 0.25775  0.25499  0.82962  Biso   1.000  H
  H237     1.0000 0.27955  0.23251  0.90301  Biso   1.000  H
  H238     1.0000 0.24773  0.23411  0.92729  Biso   1.000  H
  H239     1.0000 0.13135  0.21000  0.96148  Biso   1.000  H
  H240     1.0000 0.00619  0.21509  0.92820  Biso   1.000  H
  H241     1.0000 0.07675  0.25020  0.95861  Biso   1.000  H
  H242     1.0000 0.14219  0.22451  0.96218  Biso   1.000  H
  H243     1.0000 0.12730  0.28949  0.82631  Biso   1.000  H
  H244     1.0000 0.10221  0.26219  0.75942  Biso   1.000  H
  H245     1.0000 0.22167  0.26380  0.80458  Biso   1.000  H
  H246     1.0000 0.16385  0.26621  0.93938  Biso   1.000  H
  H247     1.0000 0.94885  0.22741  0.88277  Biso   1.000  H
  H248     1.0000 0.98136  0.27000  0.87531  Biso   1.000  H
  H249     1.0000 0.75682  0.15110  0.93470  Biso   1.000  H
  H250     1.0000 0.87395  0.16511  0.92170  Biso   1.000  H
  H251     1.0000 0.86415  0.13191  0.97608  Biso   1.000  H
  H252     1.0000 0.72154  0.14590  0.79739  Biso   1.000  H
  H253     1.0000 0.79320  0.11790  0.75867  Biso   1.000  H
  H254     1.0000 0.84574  0.15539  0.79329  Biso   1.000  H
  H255     1.0000 0.99443  0.12169  0.86881  Biso   1.000  H
  H256     1.0000 0.94713  0.08470  0.82919  Biso   1.000  H
  H257     1.0000 0.96753  0.08661  0.91430  Biso   1.000  H
  C237     1.0000 0.74836  0.91560  0.87707  Biso   1.000  C
  H258     1.0000 0.85055  0.95860  0.88271  Biso   1.000  H
  C238     1.0000 0.44450  0.92236  0.88522  Biso   1.000  C
  C239     1.0000 0.63840  0.90530  0.87691  Biso   1.000  C
  C240     1.0000 0.76729  0.12734  0.51347  Biso   1.000  C
  C241     1.0000 0.14171  0.01913  0.63059  Biso   1.000  C
  N16      1.0000 0.97035  0.00000  0.61780  Biso   1.000  N
  H259     1.0000 0.87817  0.06479  0.53520  Biso   1.000  H
  C242     1.0000 0.82954  0.88490  0.86951  Biso   1.000  C
  C243     1.0000 0.38131  0.93280  0.93438  Biso   1.000  C
  N17      1.0000 0.38703  0.89749  0.83989  Biso   1.000  N
  H260     1.0000 0.61874  0.87991  0.87318  Biso   1.000  H
  C244     1.0000 0.67333  0.10010  0.51858  Biso   1.000  C
  C245     1.0000 0.80106  0.12433  0.44029  Biso   1.000  C
  C246     1.0000 0.72595  0.16663  0.52327  Biso   1.000  C
  H261     1.0000 0.20441  0.03439  0.63447  Biso   1.000  H
  C247     1.0000 0.14171  0.98087  0.63059  Biso   1.000  C
  C248     1.0000 0.85606  0.00000  0.62308  Biso   1.000  C
  C249     1.0000 0.03582  0.96841  0.62388  Biso   1.000  C
  C250     1.0000 0.83125  0.85660  0.93118  Biso   1.000  C
  C251     1.0000 0.79434  0.86460  0.79819  Biso   1.000  C
  C252     1.0000 0.94500  0.89929  0.87052  Biso   1.000  C
  C253     1.0000 0.28244  0.91275  0.91930  Biso   1.000  C
  H262     1.0000 0.40015  0.95019  0.97171  Biso   1.000  H
  C254     1.0000 0.28651  0.89124  0.86210  Biso   1.000  C
  C255     1.0000 0.42025  0.88376  0.77668  Biso   1.000  C
  H263     1.0000 0.69418  0.07520  0.50490  Biso   1.000  H
  H264     1.0000 0.60840  0.10810  0.48652  Biso   1.000  H
  H265     1.0000 0.65802  0.09960  0.56758  Biso   1.000  H
  H266     1.0000 0.86236  0.14099  0.43758  Biso   1.000  H
  H267     1.0000 0.73989  0.13130  0.40381  Biso   1.000  H
  H268     1.0000 0.82290  0.09880  0.43220  Biso   1.000  H
  H269     1.0000 0.70643  0.16910  0.57110  Biso   1.000  H
  H270     1.0000 0.66193  0.17151  0.48759  Biso   1.000  H
  H271     1.0000 0.78317  0.18449  0.51752  Biso   1.000  H
  H272     1.0000 0.20441  0.96561  0.63447  Biso   1.000  H
  C256     1.0000 0.82396  0.00000  0.68938  Biso   1.000  C
  C257     1.0000 0.78189  0.00000  0.56210  Biso   1.000  C
  C258     1.0000 0.99314  0.93058  0.62292  Biso   1.000  C
  H273     1.0000 0.75682  0.84890  0.93470  Biso   1.000  H
  H274     1.0000 0.87395  0.83489  0.92170  Biso   1.000  H
  H275     1.0000 0.86415  0.86809  0.97608  Biso   1.000  H
  H276     1.0000 0.72154  0.85410  0.79739  Biso   1.000  H
  H277     1.0000 0.79320  0.88210  0.75867  Biso   1.000  H
  H278     1.0000 0.84574  0.84461  0.79329  Biso   1.000  H
  H279     1.0000 0.99443  0.87831  0.86881  Biso   1.000  H
  H280     1.0000 0.94713  0.91530  0.82919  Biso   1.000  H
  H281     1.0000 0.96753  0.91339  0.91430  Biso   1.000  H
  H282     1.0000 0.22333  0.91430  0.94529  Biso   1.000  H
  C259     1.0000 0.20632  0.86507  0.82557  Biso   1.000  C
  C260     1.0000 0.42274  0.84660  0.76240  Biso   1.000  C
  C261     1.0000 0.45362  0.90926  0.72901  Biso   1.000  C
  H283     1.0000 0.87634  0.00000  0.73151  Biso   1.000  H
  C262     1.0000 0.71438  0.00000  0.69359  Biso   1.000  C
  C263     1.0000 0.67093  0.00000  0.56790  Biso   1.000  C
  H284     1.0000 0.80489  0.00000  0.51672  Biso   1.000  H
  C264     1.0000 0.90748  0.91840  0.57168  Biso   1.000  C
  C265     1.0000 0.03626  0.90461  0.67271  Biso   1.000  C
  C266     1.0000 0.13516  0.87460  0.76437  Biso   1.000  C
  C267     1.0000 0.19510  0.83024  0.85417  Biso   1.000  C
  H285     1.0000 0.39885  0.82921  0.79409  Biso   1.000  H
  C268     1.0000 0.46041  0.83439  0.70099  Biso   1.000  C
  C269     1.0000 0.49246  0.89697  0.66952  Biso   1.000  C
  H286     1.0000 0.44954  0.93510  0.73790  Biso   1.000  H
  H287     1.0000 0.69105  0.00000  0.73892  Biso   1.000  H
  C270     1.0000 0.63915  0.00000  0.63320  Biso   1.000  C
  H288     1.0000 0.61798  0.00000  0.52609  Biso   1.000  H
  H289     1.0000 0.87817  0.93521  0.53520  Biso   1.000  H
  C271     1.0000 0.86278  0.88304  0.57099  Biso   1.000  C
  C272     1.0000 0.99481  0.86861  0.67250  Biso   1.000  C
  N18      1.0000 0.12317  0.90768  0.72853  Biso   1.000  N
  C273     1.0000 0.05774  0.84920  0.73178  Biso   1.000  C
  C274     1.0000 0.11963  0.80415  0.82408  Biso   1.000  C
  H290     1.0000 0.24174  0.82381  0.89677  Biso   1.000  H
  H291     1.0000 0.46166  0.80869  0.69029  Biso   1.000  H
  C275     1.0000 0.49622  0.86017  0.65551  Biso   1.000  C
  H292     1.0000 0.51667  0.91430  0.63778  Biso   1.000  H
  H293     1.0000 0.56394  0.00000  0.63682  Biso   1.000  H
  C276     1.0000 0.90868  0.85759  0.62201  Biso   1.000  C
  C277     1.0000 0.76729  0.87266  0.51347  Biso   1.000  C
  H294     1.0000 0.16357  0.92751  0.73892  Biso   1.000  H
  C278     1.0000 0.05151  0.81418  0.76182  Biso   1.000  C
  C279     1.0000 0.11176  0.76683  0.85837  Biso   1.000  C
  H295     1.0000 0.52378  0.85200  0.61418  Biso   1.000  H
  H296     1.0000 0.88126  0.83301  0.62212  Biso   1.000  H
  C280     1.0000 0.67333  0.89990  0.51858  Biso   1.000  C
  C281     1.0000 0.80106  0.87567  0.44029  Biso   1.000  C
  C282     1.0000 0.72595  0.83337  0.52327  Biso   1.000  C
  H297     1.0000 0.99992  0.79690  0.73939  Biso   1.000  H
  C283     1.0000 0.98511  0.75489  0.85518  Biso   1.000  C
  C284     1.0000 0.04153  0.74041  0.81678  Biso   1.000  C
  C285     1.0000 0.23105  0.74980  0.87462  Biso   1.000  C
  C286     1.0000 0.07836  0.77350  0.93379  Biso   1.000  C
  C287     1.0000 0.14381  0.73471  0.80719  Biso   1.000  C
  C288     1.0000 0.17089  0.75999  0.92708  Biso   1.000  C
  H298     1.0000 0.69418  0.92480  0.50490  Biso   1.000  H
  H299     1.0000 0.60840  0.89190  0.48652  Biso   1.000  H
  H300     1.0000 0.65802  0.90040  0.56758  Biso   1.000  H
  H301     1.0000 0.86236  0.85901  0.43758  Biso   1.000  H
  H302     1.0000 0.73989  0.86870  0.40381  Biso   1.000  H
  H303     1.0000 0.82290  0.90120  0.43220  Biso   1.000  H
  H304     1.0000 0.70643  0.83090  0.57110  Biso   1.000  H
  H305     1.0000 0.66193  0.82849  0.48759  Biso   1.000  H
  H306     1.0000 0.78317  0.81551  0.51752  Biso   1.000  H
  H307     1.0000 0.96895  0.75099  0.80400  Biso   1.000  H
  H308     1.0000 0.94885  0.77259  0.88277  Biso   1.000  H
  H309     1.0000 0.94910  0.75500  0.80560  Biso   1.000  H
  H310     1.0000 0.98136  0.73000  0.87531  Biso   1.000  H
  H311     1.0000 0.03693  0.71779  0.84490  Biso   1.000  H
  H312     1.0000 0.07135  0.73429  0.77348  Biso   1.000  H
  H313     1.0000 0.22919  0.72660  0.90109  Biso   1.000  H
  H314     1.0000 0.25775  0.74501  0.82962  Biso   1.000  H
  H315     1.0000 0.27955  0.76749  0.90301  Biso   1.000  H
  H316     1.0000 0.24773  0.76589  0.92729  Biso   1.000  H
  H317     1.0000 0.13135  0.79000  0.96148  Biso   1.000  H
  H318     1.0000 0.00619  0.78491  0.92820  Biso   1.000  H
  H319     1.0000 0.07675  0.74980  0.95861  Biso   1.000  H
  H320     1.0000 0.14219  0.77549  0.96218  Biso   1.000  H
  H321     1.0000 0.12730  0.71051  0.82631  Biso   1.000  H
  H322     1.0000 0.10221  0.73781  0.75942  Biso   1.000  H
  H323     1.0000 0.22167  0.73620  0.80458  Biso   1.000  H
  H324     1.0000 0.16385  0.73379  0.93938  Biso   1.000  H
