data_image0
_cell_length_a       16.967
_cell_length_b       16.692
_cell_length_c       21.14
_cell_angle_alpha    90
_cell_angle_beta     90
_cell_angle_gamma    90

_symmetry_space_group_name_H-M    "P 1"
_symmetry_int_tables_number       1

loop_
  _symmetry_equiv_pos_as_xyz
  'x, y, z'

loop_
  _atom_site_label
  _atom_site_occupancy
  _atom_site_fract_x
  _atom_site_fract_y
  _atom_site_fract_z
  _atom_site_thermal_displace_type
  _atom_site_B_iso_or_equiv
  _atom_site_type_symbol
  N1       1.0000 0.50221  0.63893  0.51618  Biso   1.000  N
  C1       1.0000 0.43585  0.67541  0.49872  Biso   1.000  C
  C2       1.0000 0.51783  0.64869  0.57701  Biso   1.000  C
  O1       1.0000 0.42064  0.66661  0.43671  Biso   1.000  O
  N2       1.0000 0.38763  0.71837  0.53430  Biso   1.000  N
  O2       1.0000 0.58272  0.61574  0.60151  Biso   1.000  O
  N3       1.0000 0.47575  0.68985  0.61939  Biso   1.000  N
  C3       1.0000 0.35186  0.69872  0.40984  Biso   1.000  C
  C4       1.0000 0.41156  0.72136  0.59423  Biso   1.000  C
  C5       1.0000 0.63400  0.57249  0.55875  Biso   1.000  C
  C6       1.0000 0.27913  0.66607  0.42441  Biso   1.000  C
  C7       1.0000 0.36200  0.75563  0.36306  Biso   1.000  C
  O3       1.0000 0.36813  0.76270  0.63633  Biso   1.000  O
  H1       1.0000 0.67460  0.54601  0.58250  Biso   1.000  H
  H2       1.0000 0.65751  0.60927  0.52952  Biso   1.000  H
  H3       1.0000 0.60382  0.53331  0.53590  Biso   1.000  H
  C8       1.0000 0.21571  0.69267  0.38936  Biso   1.000  C
  H4       1.0000 0.27330  0.62809  0.45620  Biso   1.000  H
  C9       1.0000 0.29640  0.78097  0.32928  Biso   1.000  C
  H5       1.0000 0.41162  0.77648  0.35440  Biso   1.000  H
  C10      1.0000 0.29516  0.79529  0.61722  Biso   1.000  C
  O4       1.0000 0.14251  0.65427  0.39371  Biso   1.000  O
  C11      1.0000 0.22279  0.74982  0.34224  Biso   1.000  C
  H6       1.0000 0.30212  0.81931  0.29759  Biso   1.000  H
  C12      1.0000 0.23021  0.74605  0.61258  Biso   1.000  C
  C13      1.0000 0.29086  0.87737  0.60979  Biso   1.000  C
  C14      1.0000 0.10014  0.65445  0.44778  Biso   1.000  C
  H7       1.0000 0.17882  0.76689  0.31968  Biso   1.000  H
  C15      1.0000 0.15901  0.78283  0.59986  Biso   1.000  C
  H8       1.0000 0.23410  0.69081  0.61779  Biso   1.000  H
  C16      1.0000 0.21760  0.91211  0.59943  Biso   1.000  C
  H9       1.0000 0.33612  0.90882  0.61159  Biso   1.000  H
  N4       1.0000 0.03684  0.60867  0.44376  Biso   1.000  N
  N5       1.0000 0.12347  0.69968  0.49579  Biso   1.000  N
  O5       1.0000 0.09006  0.73574  0.59773  Biso   1.000  O
  C17      1.0000 0.15065  0.86497  0.59447  Biso   1.000  C
  S1       1.0000 0.21218  0.01875  0.59144  Biso   1.000  S
  C18      1.0000 0.99375  0.60939  0.49631  Biso   1.000  C
  C19      1.0000 0.07520  0.69315  0.54513  Biso   1.000  C
  H10      1.0000 0.10137  0.88791  0.58770  Biso   1.000  H
  O6       1.0000 0.24772  0.03595  0.53136  Biso   1.000  O
  O7       1.0000 0.25650  0.04966  0.64461  Biso   1.000  O
  O8       1.0000 0.12966  0.03792  0.59413  Biso   1.000  O
  N6       1.0000 0.01008  0.64941  0.54957  Biso   1.000  N
  O9       1.0000 0.92922  0.56536  0.49248  Biso   1.000  O
  C20      1.0000 0.87429  0.56848  0.54470  Biso   1.000  C
  H11      1.0000 0.90039  0.55200  0.58278  Biso   1.000  H
  H12      1.0000 0.83079  0.53319  0.53638  Biso   1.000  H
  H13      1.0000 0.85519  0.62221  0.54962  Biso   1.000  H
  N7       1.0000 0.49779  0.36107  0.48382  Biso   1.000  N
  C21      1.0000 0.48217  0.35131  0.42299  Biso   1.000  C
  C22      1.0000 0.56415  0.32459  0.50128  Biso   1.000  C
  O10      1.0000 0.41734  0.38426  0.39849  Biso   1.000  O
  N8       1.0000 0.52431  0.31021  0.38061  Biso   1.000  N
  O11      1.0000 0.57936  0.33339  0.56329  Biso   1.000  O
  N9       1.0000 0.61237  0.28163  0.46570  Biso   1.000  N
  C23      1.0000 0.36606  0.42751  0.44125  Biso   1.000  C
  C24      1.0000 0.58844  0.27864  0.40577  Biso   1.000  C
  C25      1.0000 0.64820  0.30128  0.59016  Biso   1.000  C
  H14      1.0000 0.32540  0.45399  0.41750  Biso   1.000  H
  H15      1.0000 0.34249  0.39073  0.47048  Biso   1.000  H
  H16      1.0000 0.39618  0.46669  0.46410  Biso   1.000  H
  O12      1.0000 0.63187  0.23730  0.36367  Biso   1.000  O
  C26      1.0000 0.63800  0.24437  0.63694  Biso   1.000  C
  C27      1.0000 0.72087  0.33393  0.57559  Biso   1.000  C
  C28      1.0000 0.70484  0.20471  0.38278  Biso   1.000  C
  C29      1.0000 0.70366  0.21903  0.67072  Biso   1.000  C
  H17      1.0000 0.58844  0.22352  0.64560  Biso   1.000  H
  C30      1.0000 0.78429  0.30733  0.61064  Biso   1.000  C
  H18      1.0000 0.72670  0.37191  0.54380  Biso   1.000  H
  C31      1.0000 0.70914  0.12263  0.39021  Biso   1.000  C
  C32      1.0000 0.76979  0.25395  0.38742  Biso   1.000  C
  C33      1.0000 0.77721  0.25018  0.65776  Biso   1.000  C
  H19      1.0000 0.69788  0.18069  0.70241  Biso   1.000  H
  O13      1.0000 0.85749  0.34573  0.60629  Biso   1.000  O
  H20      1.0000 0.66394  0.09118  0.38841  Biso   1.000  H
  C34      1.0000 0.78246  0.08795  0.40057  Biso   1.000  C
  C35      1.0000 0.84099  0.21717  0.40014  Biso   1.000  C
  H21      1.0000 0.76590  0.30919  0.38221  Biso   1.000  H
  H22      1.0000 0.82118  0.23311  0.68032  Biso   1.000  H
  C36      1.0000 0.89986  0.34555  0.55222  Biso   1.000  C
  C37      1.0000 0.84935  0.13503  0.40553  Biso   1.000  C
  S2       1.0000 0.78782  0.98125  0.40856  Biso   1.000  S
  O14      1.0000 0.91000  0.26426  0.40227  Biso   1.000  O
  N10      1.0000 0.96316  0.39133  0.55624  Biso   1.000  N
  N11      1.0000 0.87658  0.30032  0.50421  Biso   1.000  N
  H23      1.0000 0.89863  0.11209  0.41230  Biso   1.000  H
  O15      1.0000 0.75228  0.96405  0.46864  Biso   1.000  O
  O16      1.0000 0.74350  0.95034  0.35539  Biso   1.000  O
  O17      1.0000 0.87034  0.96208  0.40587  Biso   1.000  O
  C38      1.0000 0.92480  0.30685  0.45487  Biso   1.000  C
  C39      1.0000 0.00625  0.39061  0.50369  Biso   1.000  C
  N12      1.0000 0.98992  0.35065  0.45043  Biso   1.000  N
  O18      1.0000 0.07078  0.43464  0.50752  Biso   1.000  O
  C40      1.0000 0.12571  0.43152  0.45530  Biso   1.000  C
  H24      1.0000 0.09961  0.44800  0.41722  Biso   1.000  H
  H25      1.0000 0.16921  0.46681  0.46362  Biso   1.000  H
  H26      1.0000 0.14481  0.37779  0.45038  Biso   1.000  H
  O19      1.0000 0.62963  0.46208  0.40587  Biso   1.000  O
  S3       1.0000 0.71221  0.48125  0.40856  Biso   1.000  S
  O20      1.0000 0.74775  0.46405  0.46864  Biso   1.000  O
  O21      1.0000 0.75647  0.45034  0.35539  Biso   1.000  O
  C41      1.0000 0.71757  0.58795  0.40057  Biso   1.000  C
  C42      1.0000 0.79089  0.62263  0.39021  Biso   1.000  C
  C43      1.0000 0.65067  0.63503  0.40553  Biso   1.000  C
  C44      1.0000 0.79519  0.70471  0.38278  Biso   1.000  C
  H27      1.0000 0.83609  0.59118  0.38841  Biso   1.000  H
  H28      1.0000 0.60140  0.61209  0.41230  Biso   1.000  H
  C45      1.0000 0.65904  0.71717  0.40014  Biso   1.000  C
  O22      1.0000 0.86816  0.73730  0.36367  Biso   1.000  O
  C46      1.0000 0.73024  0.75395  0.38742  Biso   1.000  C
  O23      1.0000 0.59003  0.76426  0.40227  Biso   1.000  O
  C47      1.0000 0.91159  0.77864  0.40577  Biso   1.000  C
  H29      1.0000 0.73413  0.80919  0.38221  Biso   1.000  H
  C48      1.0000 0.57523  0.80685  0.45487  Biso   1.000  C
  N13      1.0000 0.97572  0.81021  0.38061  Biso   1.000  N
  N14      1.0000 0.88761  0.78163  0.46570  Biso   1.000  N
  N15      1.0000 0.51005  0.85065  0.45043  Biso   1.000  N
  N16      1.0000 0.62345  0.80032  0.50421  Biso   1.000  N
  C49      1.0000 0.01786  0.85131  0.42299  Biso   1.000  C
  C50      1.0000 0.93588  0.82459  0.50128  Biso   1.000  C
  C51      1.0000 0.49372  0.89061  0.50369  Biso   1.000  C
  C52      1.0000 0.60017  0.84555  0.55222  Biso   1.000  C
  O24      1.0000 0.08269  0.88426  0.39849  Biso   1.000  O
  N17      1.0000 0.00224  0.86107  0.48382  Biso   1.000  N
  O25      1.0000 0.92061  0.83339  0.56329  Biso   1.000  O
  O26      1.0000 0.42925  0.93464  0.50752  Biso   1.000  O
  N18      1.0000 0.53687  0.89133  0.55624  Biso   1.000  N
  O27      1.0000 0.64254  0.84579  0.60629  Biso   1.000  O
  C53      1.0000 0.13397  0.92751  0.44125  Biso   1.000  C
  C54      1.0000 0.85183  0.80128  0.59016  Biso   1.000  C
  C55      1.0000 0.37431  0.93152  0.45530  Biso   1.000  C
  C56      1.0000 0.71574  0.80733  0.61064  Biso   1.000  C
  H30      1.0000 0.17463  0.95399  0.41750  Biso   1.000  H
  H31      1.0000 0.15754  0.89073  0.47048  Biso   1.000  H
  H32      1.0000 0.10379  0.96669  0.46410  Biso   1.000  H
  C57      1.0000 0.86197  0.74437  0.63694  Biso   1.000  C
  C58      1.0000 0.77910  0.83393  0.57559  Biso   1.000  C
  H33      1.0000 0.40042  0.94800  0.41722  Biso   1.000  H
  H34      1.0000 0.33082  0.96681  0.46362  Biso   1.000  H
  H35      1.0000 0.35522  0.87779  0.45038  Biso   1.000  H
  C59      1.0000 0.72281  0.75018  0.65776  Biso   1.000  C
  C60      1.0000 0.79637  0.71903  0.67072  Biso   1.000  C
  H36      1.0000 0.91159  0.72352  0.64560  Biso   1.000  H
  H37      1.0000 0.77332  0.87191  0.54380  Biso   1.000  H
  H38      1.0000 0.67879  0.73311  0.68032  Biso   1.000  H
  H39      1.0000 0.80209  0.68069  0.70241  Biso   1.000  H
  O28      1.0000 0.37037  0.53792  0.59413  Biso   1.000  O
  S4       1.0000 0.28779  0.51875  0.59144  Biso   1.000  S
  C61      1.0000 0.28243  0.41205  0.59943  Biso   1.000  C
  O29      1.0000 0.25225  0.53595  0.53136  Biso   1.000  O
  O30      1.0000 0.24353  0.54966  0.64461  Biso   1.000  O
  C62      1.0000 0.34938  0.36497  0.59447  Biso   1.000  C
  C63      1.0000 0.20917  0.37737  0.60979  Biso   1.000  C
  C64      1.0000 0.34101  0.28283  0.59986  Biso   1.000  C
  H40      1.0000 0.39860  0.38791  0.58770  Biso   1.000  H
  C65      1.0000 0.20481  0.29529  0.61722  Biso   1.000  C
  H41      1.0000 0.16391  0.40882  0.61159  Biso   1.000  H
  O31      1.0000 0.40997  0.23574  0.59773  Biso   1.000  O
  C66      1.0000 0.26976  0.24605  0.61258  Biso   1.000  C
  O32      1.0000 0.13190  0.26270  0.63633  Biso   1.000  O
  C67      1.0000 0.42477  0.19315  0.54513  Biso   1.000  C
  H42      1.0000 0.26593  0.19081  0.61779  Biso   1.000  H
  C68      1.0000 0.08847  0.22136  0.59423  Biso   1.000  C
  N19      1.0000 0.37655  0.19968  0.49579  Biso   1.000  N
  N20      1.0000 0.48995  0.14935  0.54957  Biso   1.000  N
  N21      1.0000 0.11239  0.21837  0.53430  Biso   1.000  N
  N22      1.0000 0.02428  0.18979  0.61939  Biso   1.000  N
  C69      1.0000 0.39983  0.15445  0.44778  Biso   1.000  C
  C70      1.0000 0.50628  0.10939  0.49631  Biso   1.000  C
  C71      1.0000 0.06412  0.17541  0.49872  Biso   1.000  C
  C72      1.0000 0.98220  0.14869  0.57701  Biso   1.000  C
  O33      1.0000 0.35752  0.15427  0.39371  Biso   1.000  O
  N23      1.0000 0.46313  0.10867  0.44376  Biso   1.000  N
  O34      1.0000 0.57075  0.06536  0.49248  Biso   1.000  O
  O35      1.0000 0.07939  0.16661  0.43671  Biso   1.000  O
  N24      1.0000 0.99782  0.13893  0.51618  Biso   1.000  N
  O36      1.0000 0.91731  0.11574  0.60151  Biso   1.000  O
  C73      1.0000 0.28426  0.19267  0.38936  Biso   1.000  C
  C74      1.0000 0.62569  0.06848  0.54470  Biso   1.000  C
  C75      1.0000 0.14817  0.19872  0.40984  Biso   1.000  C
  C76      1.0000 0.86603  0.07249  0.55875  Biso   1.000  C
  C77      1.0000 0.27719  0.24982  0.34224  Biso   1.000  C
  C78      1.0000 0.22090  0.16607  0.42441  Biso   1.000  C
  H43      1.0000 0.59963  0.05200  0.58278  Biso   1.000  H
  H44      1.0000 0.66918  0.03319  0.53638  Biso   1.000  H
  H45      1.0000 0.64478  0.12221  0.54962  Biso   1.000  H
  C79      1.0000 0.13803  0.25563  0.36306  Biso   1.000  C
  H46      1.0000 0.82543  0.04601  0.58250  Biso   1.000  H
  H47      1.0000 0.84252  0.10927  0.52952  Biso   1.000  H
  H48      1.0000 0.89621  0.03331  0.53590  Biso   1.000  H
  H49      1.0000 0.32121  0.26689  0.31968  Biso   1.000  H
  C80      1.0000 0.20363  0.28097  0.32928  Biso   1.000  C
  H50      1.0000 0.22668  0.12809  0.45620  Biso   1.000  H
  H51      1.0000 0.08841  0.27648  0.35440  Biso   1.000  H
  H52      1.0000 0.19791  0.31931  0.29759  Biso   1.000  H
  O37      1.0000 0.74350  0.54966  0.85539  Biso   1.000  O
  S5       1.0000 0.78782  0.51875  0.90856  Biso   1.000  S
  C81      1.0000 0.78246  0.41205  0.90057  Biso   1.000  C
  O38      1.0000 0.75228  0.53595  0.96864  Biso   1.000  O
  O39      1.0000 0.87034  0.53792  0.90587  Biso   1.000  O
  C82      1.0000 0.70914  0.37737  0.89021  Biso   1.000  C
  C83      1.0000 0.84935  0.36497  0.90553  Biso   1.000  C
  C84      1.0000 0.70484  0.29529  0.88278  Biso   1.000  C
  H53      1.0000 0.66394  0.40882  0.88841  Biso   1.000  H
  C85      1.0000 0.84099  0.28283  0.90014  Biso   1.000  C
  H54      1.0000 0.89863  0.38791  0.91230  Biso   1.000  H
  O40      1.0000 0.63187  0.26270  0.86367  Biso   1.000  O
  C86      1.0000 0.76979  0.24605  0.88742  Biso   1.000  C
  O41      1.0000 0.91000  0.23574  0.90227  Biso   1.000  O
  C87      1.0000 0.58844  0.22136  0.90577  Biso   1.000  C
  H55      1.0000 0.76590  0.19081  0.88221  Biso   1.000  H
  C88      1.0000 0.92480  0.19315  0.95487  Biso   1.000  C
  N25      1.0000 0.52431  0.18979  0.88061  Biso   1.000  N
  N26      1.0000 0.61237  0.21837  0.96570  Biso   1.000  N
  N27      1.0000 0.98992  0.14935  0.95043  Biso   1.000  N
  N28      1.0000 0.87658  0.19968  0.00421  Biso   1.000  N
  C89      1.0000 0.48217  0.14869  0.92299  Biso   1.000  C
  C90      1.0000 0.56415  0.17541  0.00128  Biso   1.000  C
  C91      1.0000 0.00625  0.10939  0.00369  Biso   1.000  C
  C92      1.0000 0.89986  0.15445  0.05222  Biso   1.000  C
  O42      1.0000 0.41734  0.11574  0.89849  Biso   1.000  O
  N29      1.0000 0.49779  0.13893  0.98382  Biso   1.000  N
  O43      1.0000 0.57936  0.16661  0.06329  Biso   1.000  O
  N30      1.0000 0.96316  0.10867  0.05624  Biso   1.000  N
  O44      1.0000 0.07078  0.06536  0.00752  Biso   1.000  O
  O45      1.0000 0.85749  0.15427  0.10629  Biso   1.000  O
  C93      1.0000 0.36606  0.07249  0.94125  Biso   1.000  C
  C94      1.0000 0.64820  0.19872  0.09016  Biso   1.000  C
  C95      1.0000 0.12571  0.06848  0.95530  Biso   1.000  C
  C96      1.0000 0.78429  0.19267  0.11064  Biso   1.000  C
  H56      1.0000 0.32540  0.04601  0.91750  Biso   1.000  H
  H57      1.0000 0.34249  0.10927  0.97048  Biso   1.000  H
  H58      1.0000 0.39618  0.03331  0.96410  Biso   1.000  H
  C97      1.0000 0.63800  0.25563  0.13694  Biso   1.000  C
  C98      1.0000 0.72087  0.16607  0.07559  Biso   1.000  C
  H59      1.0000 0.09961  0.05200  0.91722  Biso   1.000  H
  H60      1.0000 0.16921  0.03319  0.96362  Biso   1.000  H
  H61      1.0000 0.14481  0.12221  0.95038  Biso   1.000  H
  C99      1.0000 0.77721  0.24982  0.15776  Biso   1.000  C
  C100     1.0000 0.70366  0.28097  0.17072  Biso   1.000  C
  H62      1.0000 0.58844  0.27648  0.14560  Biso   1.000  H
  H63      1.0000 0.72670  0.12809  0.04380  Biso   1.000  H
  H64      1.0000 0.82118  0.26689  0.18032  Biso   1.000  H
  H65      1.0000 0.69788  0.31931  0.20241  Biso   1.000  H
  O46      1.0000 0.25650  0.45034  0.14461  Biso   1.000  O
  S6       1.0000 0.21218  0.48125  0.09144  Biso   1.000  S
  O47      1.0000 0.24772  0.46405  0.03136  Biso   1.000  O
  O48      1.0000 0.12966  0.46208  0.09413  Biso   1.000  O
  C101     1.0000 0.21760  0.58795  0.09943  Biso   1.000  C
  C102     1.0000 0.29086  0.62263  0.10979  Biso   1.000  C
  C103     1.0000 0.15065  0.63503  0.09447  Biso   1.000  C
  C104     1.0000 0.29516  0.70471  0.11722  Biso   1.000  C
  H66      1.0000 0.33612  0.59118  0.11159  Biso   1.000  H
  H67      1.0000 0.10137  0.61209  0.08770  Biso   1.000  H
  C105     1.0000 0.15901  0.71717  0.09986  Biso   1.000  C
  O49      1.0000 0.36813  0.73730  0.13633  Biso   1.000  O
  C106     1.0000 0.23021  0.75395  0.11258  Biso   1.000  C
  O50      1.0000 0.09006  0.76426  0.09773  Biso   1.000  O
  C107     1.0000 0.41156  0.77864  0.09423  Biso   1.000  C
  H68      1.0000 0.23410  0.80919  0.11779  Biso   1.000  H
  C108     1.0000 0.07520  0.80685  0.04513  Biso   1.000  C
  N31      1.0000 0.47575  0.81021  0.11939  Biso   1.000  N
  N32      1.0000 0.38763  0.78163  0.03430  Biso   1.000  N
  N33      1.0000 0.01008  0.85065  0.04957  Biso   1.000  N
  N34      1.0000 0.12347  0.80032  0.99579  Biso   1.000  N
  C109     1.0000 0.51783  0.85131  0.07701  Biso   1.000  C
  C110     1.0000 0.43585  0.82459  0.99872  Biso   1.000  C
  C111     1.0000 0.99375  0.89061  0.99631  Biso   1.000  C
  C112     1.0000 0.10014  0.84555  0.94778  Biso   1.000  C
  O51      1.0000 0.58272  0.88426  0.10151  Biso   1.000  O
  N35      1.0000 0.50221  0.86107  0.01618  Biso   1.000  N
  O52      1.0000 0.42064  0.83339  0.93671  Biso   1.000  O
  O53      1.0000 0.92922  0.93464  0.99248  Biso   1.000  O
  N36      1.0000 0.03684  0.89133  0.94376  Biso   1.000  N
  O54      1.0000 0.14251  0.84579  0.89371  Biso   1.000  O
  C113     1.0000 0.63400  0.92751  0.05875  Biso   1.000  C
  C114     1.0000 0.35186  0.80128  0.90984  Biso   1.000  C
  C115     1.0000 0.87429  0.93152  0.04470  Biso   1.000  C
  C116     1.0000 0.21571  0.80733  0.88936  Biso   1.000  C
  H69      1.0000 0.67460  0.95399  0.08250  Biso   1.000  H
  H70      1.0000 0.65751  0.89073  0.02952  Biso   1.000  H
  H71      1.0000 0.60382  0.96669  0.03590  Biso   1.000  H
  C117     1.0000 0.36200  0.74437  0.86306  Biso   1.000  C
  C118     1.0000 0.27913  0.83393  0.92441  Biso   1.000  C
  H72      1.0000 0.90039  0.94800  0.08278  Biso   1.000  H
  H73      1.0000 0.83079  0.96681  0.03638  Biso   1.000  H
  H74      1.0000 0.85519  0.87779  0.04962  Biso   1.000  H
  C119     1.0000 0.22279  0.75018  0.84224  Biso   1.000  C
  C120     1.0000 0.29640  0.71903  0.82928  Biso   1.000  C
  H75      1.0000 0.41162  0.72352  0.85440  Biso   1.000  H
  H76      1.0000 0.27330  0.87191  0.95620  Biso   1.000  H
  H77      1.0000 0.17882  0.73311  0.81968  Biso   1.000  H
  H78      1.0000 0.30212  0.68069  0.79759  Biso   1.000  H
  O55      1.0000 0.59003  0.73574  0.90227  Biso   1.000  O
  C121     1.0000 0.57523  0.69315  0.95487  Biso   1.000  C
  C122     1.0000 0.65904  0.78283  0.90014  Biso   1.000  C
  N37      1.0000 0.51005  0.64941  0.95043  Biso   1.000  N
  N38      1.0000 0.62345  0.69968  0.00421  Biso   1.000  N
  C123     1.0000 0.65067  0.86497  0.90553  Biso   1.000  C
  C124     1.0000 0.73024  0.74605  0.88742  Biso   1.000  C
  C125     1.0000 0.49372  0.60939  0.00369  Biso   1.000  C
  C126     1.0000 0.60017  0.65445  0.05222  Biso   1.000  C
  C127     1.0000 0.71757  0.91211  0.90057  Biso   1.000  C
  H79      1.0000 0.60140  0.88791  0.91230  Biso   1.000  H
  C128     1.0000 0.79519  0.79529  0.88278  Biso   1.000  C
  H80      1.0000 0.73413  0.69081  0.88221  Biso   1.000  H
  O56      1.0000 0.42925  0.56536  0.00752  Biso   1.000  O
  N39      1.0000 0.53687  0.60867  0.05624  Biso   1.000  N
  O57      1.0000 0.64254  0.65427  0.10629  Biso   1.000  O
  C129     1.0000 0.79089  0.87737  0.89021  Biso   1.000  C
  S7       1.0000 0.71221  0.01875  0.90856  Biso   1.000  S
  O58      1.0000 0.86816  0.76270  0.86367  Biso   1.000  O
  C130     1.0000 0.37431  0.56848  0.95530  Biso   1.000  C
  C131     1.0000 0.71574  0.69267  0.11064  Biso   1.000  C
  H81      1.0000 0.83609  0.90882  0.88841  Biso   1.000  H
  O59      1.0000 0.74775  0.03595  0.96864  Biso   1.000  O
  O60      1.0000 0.75647  0.04966  0.85539  Biso   1.000  O
  O61      1.0000 0.62963  0.03792  0.90587  Biso   1.000  O
  C132     1.0000 0.91159  0.72136  0.90577  Biso   1.000  C
  H82      1.0000 0.40042  0.55200  0.91722  Biso   1.000  H
  H83      1.0000 0.33082  0.53319  0.96362  Biso   1.000  H
  H84      1.0000 0.35522  0.62221  0.95038  Biso   1.000  H
  C133     1.0000 0.72281  0.74982  0.15776  Biso   1.000  C
  C134     1.0000 0.77910  0.66607  0.07559  Biso   1.000  C
  N40      1.0000 0.97572  0.68985  0.88061  Biso   1.000  N
  N41      1.0000 0.88761  0.71837  0.96570  Biso   1.000  N
  H85      1.0000 0.67879  0.76689  0.18032  Biso   1.000  H
  C135     1.0000 0.79637  0.78097  0.17072  Biso   1.000  C
  C136     1.0000 0.85183  0.69872  0.09016  Biso   1.000  C
  H86      1.0000 0.77332  0.62809  0.04380  Biso   1.000  H
  C137     1.0000 0.01786  0.64869  0.92299  Biso   1.000  C
  C138     1.0000 0.93588  0.67541  0.00128  Biso   1.000  C
  H87      1.0000 0.80209  0.81931  0.20241  Biso   1.000  H
  C139     1.0000 0.86197  0.75563  0.13694  Biso   1.000  C
  O62      1.0000 0.92061  0.66661  0.06329  Biso   1.000  O
  N42      1.0000 0.00224  0.63893  0.98382  Biso   1.000  N
  O63      1.0000 0.08269  0.61574  0.89849  Biso   1.000  O
  H88      1.0000 0.91159  0.77648  0.14560  Biso   1.000  H
  C140     1.0000 0.13397  0.57249  0.94125  Biso   1.000  C
  H89      1.0000 0.17463  0.54601  0.91750  Biso   1.000  H
  H90      1.0000 0.15754  0.60927  0.97048  Biso   1.000  H
  H91      1.0000 0.10379  0.53331  0.96410  Biso   1.000  H
  O64      1.0000 0.40997  0.26426  0.09773  Biso   1.000  O
  C141     1.0000 0.34101  0.21717  0.09986  Biso   1.000  C
  C142     1.0000 0.42477  0.30685  0.04513  Biso   1.000  C
  C143     1.0000 0.26976  0.25395  0.11258  Biso   1.000  C
  C144     1.0000 0.34938  0.13503  0.09447  Biso   1.000  C
  N43      1.0000 0.48995  0.35065  0.04957  Biso   1.000  N
  N44      1.0000 0.37655  0.30032  0.99579  Biso   1.000  N
  C145     1.0000 0.20481  0.20471  0.11722  Biso   1.000  C
  H92      1.0000 0.26593  0.30919  0.11779  Biso   1.000  H
  C146     1.0000 0.28243  0.08795  0.09943  Biso   1.000  C
  H93      1.0000 0.39860  0.11209  0.08770  Biso   1.000  H
  C147     1.0000 0.50628  0.39061  0.99631  Biso   1.000  C
  C148     1.0000 0.39983  0.34555  0.94778  Biso   1.000  C
  O65      1.0000 0.13190  0.23730  0.13633  Biso   1.000  O
  C149     1.0000 0.20917  0.12263  0.10979  Biso   1.000  C
  S8       1.0000 0.28779  0.98125  0.09144  Biso   1.000  S
  O66      1.0000 0.57075  0.43464  0.99248  Biso   1.000  O
  N45      1.0000 0.46313  0.39133  0.94376  Biso   1.000  N
  O67      1.0000 0.35752  0.34573  0.89371  Biso   1.000  O
  C150     1.0000 0.08847  0.27864  0.09423  Biso   1.000  C
  H94      1.0000 0.16391  0.09118  0.11159  Biso   1.000  H
  O68      1.0000 0.25225  0.96405  0.03136  Biso   1.000  O
  O69      1.0000 0.24353  0.95034  0.14461  Biso   1.000  O
  O70      1.0000 0.37037  0.96208  0.09413  Biso   1.000  O
  C151     1.0000 0.62569  0.43152  0.04470  Biso   1.000  C
  C152     1.0000 0.28426  0.30733  0.88936  Biso   1.000  C
  N46      1.0000 0.02428  0.31021  0.11939  Biso   1.000  N
  N47      1.0000 0.11239  0.28163  0.03430  Biso   1.000  N
  H95      1.0000 0.59963  0.44800  0.08278  Biso   1.000  H
  H96      1.0000 0.66918  0.46681  0.03638  Biso   1.000  H
  H97      1.0000 0.64478  0.37779  0.04962  Biso   1.000  H
  C153     1.0000 0.22090  0.33393  0.92441  Biso   1.000  C
  C154     1.0000 0.27719  0.25018  0.84224  Biso   1.000  C
  C155     1.0000 0.98220  0.35131  0.07701  Biso   1.000  C
  C156     1.0000 0.06412  0.32459  0.99872  Biso   1.000  C
  C157     1.0000 0.14817  0.30128  0.90984  Biso   1.000  C
  H98      1.0000 0.22668  0.37191  0.95620  Biso   1.000  H
  C158     1.0000 0.20363  0.21903  0.82928  Biso   1.000  C
  H99      1.0000 0.32121  0.23311  0.81968  Biso   1.000  H
  O71      1.0000 0.91731  0.38426  0.10151  Biso   1.000  O
  N48      1.0000 0.99782  0.36107  0.01618  Biso   1.000  N
  O72      1.0000 0.07939  0.33339  0.93671  Biso   1.000  O
  C159     1.0000 0.13803  0.24437  0.86306  Biso   1.000  C
  H100     1.0000 0.19791  0.18069  0.79759  Biso   1.000  H
  C160     1.0000 0.86603  0.42751  0.05875  Biso   1.000  C
  H101     1.0000 0.08841  0.22352  0.85440  Biso   1.000  H
  H102     1.0000 0.82543  0.45399  0.08250  Biso   1.000  H
  H103     1.0000 0.84252  0.39073  0.02952  Biso   1.000  H
  H104     1.0000 0.89621  0.46669  0.03590  Biso   1.000  H
