data_image0
_cell_length_a       11.5
_cell_length_b       13.854
_cell_length_c       15.172
_cell_angle_alpha    65.19
_cell_angle_beta     71.09
_cell_angle_gamma    65.93

_symmetry_space_group_name_H-M    "P 1"
_symmetry_int_tables_number       1

loop_
  _symmetry_equiv_pos_as_xyz
  'x, y, z'

loop_
  _atom_site_label
  _atom_site_occupancy
  _atom_site_fract_x
  _atom_site_fract_y
  _atom_site_fract_z
  _atom_site_thermal_displace_type
  _atom_site_B_iso_or_equiv
  _atom_site_type_symbol
  C1       1.0000 0.01840  0.20275  0.10409  Biso   1.000  C
  N1       1.0000 0.91811  0.27623  0.05185  Biso   1.000  N
  C2       1.0000 0.96844  0.19089  0.19999  Biso   1.000  C
  H1       1.0000 0.10324  0.16873  0.07756  Biso   1.000  H
  C3       1.0000 0.92717  0.31232  0.94790  Biso   1.000  C
  C4       1.0000 0.81063  0.30698  0.11739  Biso   1.000  C
  N2       1.0000 0.84010  0.25534  0.20745  Biso   1.000  N
  H2       1.0000 0.01288  0.14679  0.25229  Biso   1.000  H
  N3       1.0000 0.04692  0.26839  0.90113  Biso   1.000  N
  C5       1.0000 0.82240  0.38329  0.90232  Biso   1.000  C
  H3       1.0000 0.72998  0.35576  0.10231  Biso   1.000  H
  C6       1.0000 0.74532  0.26018  0.29869  Biso   1.000  C
  C7       1.0000 0.06219  0.29866  0.80339  Biso   1.000  C
  C8       1.0000 0.84285  0.41327  0.80051  Biso   1.000  C
  H4       1.0000 0.74121  0.40991  0.93837  Biso   1.000  H
  H5       1.0000 0.67463  0.33006  0.28510  Biso   1.000  H
  H6       1.0000 0.78598  0.25752  0.34679  Biso   1.000  H
  C9       1.0000 0.69293  0.16292  0.34021  Biso   1.000  C
  N4       1.0000 0.19011  0.24788  0.75780  Biso   1.000  N
  C10      1.0000 0.96563  0.37149  0.74827  Biso   1.000  C
  H7       1.0000 0.77466  0.46143  0.76697  Biso   1.000  H
  C11      1.0000 0.74865  0.06372  0.41011  Biso   1.000  C
  C12      1.0000 0.59414  0.16900  0.30150  Biso   1.000  C
  C13      1.0000 0.22415  0.23177  0.67129  Biso   1.000  C
  C14      1.0000 0.29895  0.19842  0.80169  Biso   1.000  C
  H8       1.0000 0.98199  0.39142  0.67979  Biso   1.000  H
  C15      1.0000 0.70865  0.97160  0.44010  Biso   1.000  C
  H9       1.0000 0.81339  0.05918  0.43700  Biso   1.000  H
  H10      1.0000 0.55463  0.23547  0.25569  Biso   1.000  H
  C16      1.0000 0.55510  0.07559  0.33157  Biso   1.000  C
  N5       1.0000 0.34897  0.17740  0.65659  Biso   1.000  N
  H11      1.0000 0.16864  0.25529  0.62807  Biso   1.000  H
  C17      1.0000 0.39791  0.15528  0.73778  Biso   1.000  C
  H12      1.0000 0.30264  0.19572  0.86309  Biso   1.000  H
  C18      1.0000 0.61452  0.97501  0.40028  Biso   1.000  C
  H13      1.0000 0.74586  0.90625  0.48798  Biso   1.000  H
  H14      1.0000 0.48914  0.07986  0.30601  Biso   1.000  H
  C19      1.0000 0.41895  0.12887  0.57554  Biso   1.000  C
  H15      1.0000 0.48350  0.11763  0.74643  Biso   1.000  H
  C20      1.0000 0.58116  0.87110  0.42444  Biso   1.000  C
  C21      1.0000 0.38546  0.02504  0.59970  Biso   1.000  C
  H16      1.0000 0.51167  0.11006  0.56881  Biso   1.000  H
  H17      1.0000 0.39374  0.18321  0.51348  Biso   1.000  H
  N6       1.0000 0.65101  0.82265  0.34339  Biso   1.000  N
  H18      1.0000 0.48835  0.88991  0.43116  Biso   1.000  H
  H19      1.0000 0.60633  0.81684  0.48650  Biso   1.000  H
  C22      1.0000 0.29137  0.02837  0.55988  Biso   1.000  C
  C23      1.0000 0.44489  0.92447  0.66841  Biso   1.000  C
  C24      1.0000 0.77597  0.76820  0.32869  Biso   1.000  C
  C25      1.0000 0.60212  0.84469  0.26219  Biso   1.000  C
  H20      1.0000 0.25422  0.09380  0.51200  Biso   1.000  H
  C26      1.0000 0.25142  0.93633  0.58987  Biso   1.000  C
  C27      1.0000 0.40593  0.83105  0.69848  Biso   1.000  C
  H21      1.0000 0.51097  0.92011  0.69397  Biso   1.000  H
  N7       1.0000 0.80997  0.75217  0.24217  Biso   1.000  N
  H22      1.0000 0.83148  0.74469  0.37191  Biso   1.000  H
  C28      1.0000 0.70104  0.80163  0.19829  Biso   1.000  C
  H23      1.0000 0.51656  0.88240  0.25362  Biso   1.000  H
  H24      1.0000 0.18660  0.94087  0.56298  Biso   1.000  H
  C29      1.0000 0.30715  0.83713  0.65976  Biso   1.000  C
  H25      1.0000 0.44548  0.76450  0.74428  Biso   1.000  H
  C30      1.0000 0.93780  0.70139  0.19659  Biso   1.000  C
  H26      1.0000 0.69744  0.80433  0.13689  Biso   1.000  H
  C31      1.0000 0.25475  0.73987  0.70128  Biso   1.000  C
  N8       1.0000 0.95315  0.73166  0.09884  Biso   1.000  N
  C32      1.0000 0.03449  0.62849  0.25170  Biso   1.000  C
  N9       1.0000 0.15988  0.74471  0.79253  Biso   1.000  N
  H27      1.0000 0.32540  0.66991  0.71488  Biso   1.000  H
  H28      1.0000 0.21401  0.74253  0.65319  Biso   1.000  H
  C33      1.0000 0.07280  0.68771  0.05215  Biso   1.000  C
  C34      1.0000 0.15726  0.58670  0.19947  Biso   1.000  C
  H29      1.0000 0.01800  0.60863  0.32019  Biso   1.000  H
  C35      1.0000 0.18944  0.69307  0.88259  Biso   1.000  C
  C36      1.0000 0.03163  0.80917  0.79999  Biso   1.000  C
  N10      1.0000 0.08192  0.72374  0.94812  Biso   1.000  N
  C37      1.0000 0.17763  0.61669  0.09766  Biso   1.000  C
  H30      1.0000 0.22533  0.53862  0.23301  Biso   1.000  H
  H31      1.0000 0.27003  0.64419  0.89774  Biso   1.000  H
  H32      1.0000 0.98711  0.85326  0.74768  Biso   1.000  H
  C38      1.0000 0.98161  0.79720  0.89596  Biso   1.000  C
  H33      1.0000 0.25878  0.59014  0.06161  Biso   1.000  H
  H34      1.0000 0.89684  0.83132  0.92241  Biso   1.000  H
