data_image0
_cell_length_a       11.388
_cell_length_b       12.57
_cell_length_c       17.598
_cell_angle_alpha    99.36
_cell_angle_beta     91.18
_cell_angle_gamma    98.78

_symmetry_space_group_name_H-M    "P 1"
_symmetry_int_tables_number       1

loop_
  _symmetry_equiv_pos_as_xyz
  'x, y, z'

loop_
  _atom_site_label
  _atom_site_occupancy
  _atom_site_fract_x
  _atom_site_fract_y
  _atom_site_fract_z
  _atom_site_thermal_displace_type
  _atom_site_B_iso_or_equiv
  _atom_site_type_symbol
  O1       1.0000 0.57803  0.48611  0.60969  Biso   1.000  O
  C1       1.0000 0.48853  0.50703  0.65841  Biso   1.000  C
  H1       1.0000 0.58792  0.42092  0.60600  Biso   1.000  H
  C2       1.0000 0.46764  0.45921  0.72413  Biso   1.000  C
  C3       1.0000 0.41832  0.58123  0.63904  Biso   1.000  C
  C4       1.0000 0.54454  0.38108  0.75071  Biso   1.000  C
  C5       1.0000 0.37303  0.48768  0.76807  Biso   1.000  C
  C6       1.0000 0.32703  0.60914  0.68568  Biso   1.000  C
  H2       1.0000 0.43298  0.61268  0.59389  Biso   1.000  H
  C7       1.0000 0.48346  0.26271  0.72748  Biso   1.000  C
  H3       1.0000 0.61910  0.38868  0.72171  Biso   1.000  H
  C8       1.0000 0.58179  0.41193  0.83616  Biso   1.000  C
  H4       1.0000 0.35567  0.45354  0.81171  Biso   1.000  H
  C9       1.0000 0.30279  0.56330  0.75158  Biso   1.000  C
  O2       1.0000 0.25700  0.68270  0.66734  Biso   1.000  O
  C10      1.0000 0.49373  0.20739  0.65322  Biso   1.000  C
  C11      1.0000 0.41391  0.20643  0.77689  Biso   1.000  C
  H5       1.0000 0.50966  0.40701  0.86660  Biso   1.000  H
  H6       1.0000 0.63000  0.35820  0.85022  Biso   1.000  H
  C12      1.0000 0.65349  0.52634  0.85824  Biso   1.000  C
  C13      1.0000 0.20685  0.59649  0.80623  Biso   1.000  C
  H7       1.0000 0.25198  0.68003  0.62018  Biso   1.000  H
  O3       1.0000 0.55935  0.26377  0.60358  Biso   1.000  O
  C14      1.0000 0.43888  0.09993  0.62987  Biso   1.000  C
  C15      1.0000 0.35625  0.09909  0.75573  Biso   1.000  C
  H8       1.0000 0.40545  0.24303  0.82762  Biso   1.000  H
  H9       1.0000 0.60714  0.58000  0.84221  Biso   1.000  H
  H10      1.0000 0.72798  0.53028  0.83010  Biso   1.000  H
  C16      1.0000 0.68399  0.55618  0.94420  Biso   1.000  C
  H11      1.0000 0.18461  0.66511  0.79251  Biso   1.000  H
  C17      1.0000 0.09465  0.51090  0.79361  Biso   1.000  C
  C18      1.0000 0.25556  0.62369  0.89024  Biso   1.000  C
  H12      1.0000 0.54997  0.22903  0.55901  Biso   1.000  H
  H13      1.0000 0.44750  0.06317  0.57919  Biso   1.000  H
  C19      1.0000 0.37116  0.04680  0.68135  Biso   1.000  C
  C20      1.0000 0.27857  0.03944  0.81027  Biso   1.000  C
  H14      1.0000 0.72239  0.63271  0.95631  Biso   1.000  H
  H15      1.0000 0.61107  0.54643  0.97262  Biso   1.000  H
  H16      1.0000 0.73845  0.50911  0.95919  Biso   1.000  H
  C21      1.0000 0.06933  0.43163  0.83979  Biso   1.000  C
  C22      1.0000 0.01264  0.50840  0.73261  Biso   1.000  C
  H17      1.0000 0.28222  0.55820  0.90494  Biso   1.000  H
  H18      1.0000 0.19048  0.64227  0.92402  Biso   1.000  H
  C23      1.0000 0.35867  0.71817  0.90401  Biso   1.000  C
  O4       1.0000 0.31578  0.94003  0.65991  Biso   1.000  O
  C24      1.0000 0.14751  0.05012  0.79931  Biso   1.000  C
  C25      1.0000 0.32325  0.07235  0.89491  Biso   1.000  C
  H19      1.0000 0.28386  0.96007  0.79539  Biso   1.000  H
  C26      1.0000 0.96900  0.35098  0.82929  Biso   1.000  C
  H20      1.0000 0.12406  0.43227  0.88141  Biso   1.000  H
  O5       1.0000 0.02752  0.57981  0.68118  Biso   1.000  O
  C27      1.0000 0.91091  0.43074  0.72016  Biso   1.000  C
  H21      1.0000 0.33380  0.78236  0.88620  Biso   1.000  H
  H22      1.0000 0.42589  0.69768  0.87300  Biso   1.000  H
  C28      1.0000 0.40062  0.74904  0.98819  Biso   1.000  C
  H23      1.0000 0.36198  0.90701  0.63102  Biso   1.000  H
  C29      1.0000 0.10584  0.14384  0.83431  Biso   1.000  C
  C30      1.0000 0.06317  0.96739  0.75878  Biso   1.000  C
  H24      1.0000 0.32162  0.15133  0.91122  Biso   1.000  H
  H25      1.0000 0.40693  0.06058  0.89923  Biso   1.000  H
  C31      1.0000 0.25059  0.00922  0.94939  Biso   1.000  C
  C32      1.0000 0.94804  0.26114  0.87807  Biso   1.000  C
  C33      1.0000 0.88935  0.35214  0.76778  Biso   1.000  C
  H26      1.0000 0.09691  0.61501  0.68602  Biso   1.000  H
  H27      1.0000 0.85573  0.43102  0.67899  Biso   1.000  H
  H28      1.0000 0.46401  0.81237  0.99453  Biso   1.000  H
  H29      1.0000 0.33406  0.76708  0.01938  Biso   1.000  H
  H30      1.0000 0.43108  0.68737  0.00508  Biso   1.000  H
  H31      1.0000 0.16284  0.20332  0.85899  Biso   1.000  H
  C34      1.0000 0.98662  0.15674  0.83575  Biso   1.000  C
  C35      1.0000 0.94331  0.97637  0.75827  Biso   1.000  C
  O6       1.0000 0.09085  0.87135  0.71877  Biso   1.000  O
  H32      1.0000 0.16765  0.02345  0.94691  Biso   1.000  H
  H33      1.0000 0.24953  0.93009  0.93209  Biso   1.000  H
  C36      1.0000 0.29970  0.04007  0.03212  Biso   1.000  C
  C37      1.0000 0.00552  0.29342  0.96005  Biso   1.000  C
  H34      1.0000 0.86023  0.24448  0.88349  Biso   1.000  H
  O7       1.0000 0.78692  0.27866  0.74991  Biso   1.000  O
  C38      1.0000 0.90530  0.06918  0.79689  Biso   1.000  C
  H35      1.0000 0.88687  0.91856  0.73111  Biso   1.000  H
  H36      1.0000 0.16257  0.88296  0.70903  Biso   1.000  H
  H37      1.0000 0.24993  0.99756  0.06493  Biso   1.000  H
  H38      1.0000 0.38130  0.02453  0.03512  Biso   1.000  H
  H39      1.0000 0.29973  0.11820  0.04994  Biso   1.000  H
  H40      1.0000 0.09311  0.30470  0.95671  Biso   1.000  H
  H41      1.0000 0.98264  0.36361  0.98410  Biso   1.000  H
  C39      1.0000 0.96979  0.20820  0.01131  Biso   1.000  C
  H42      1.0000 0.78790  0.22402  0.77199  Biso   1.000  H
  O8       1.0000 0.78653  0.08078  0.79759  Biso   1.000  O
  H43      1.0000 0.99046  0.13755  0.98634  Biso   1.000  H
  H44      1.0000 0.88240  0.19844  0.01563  Biso   1.000  H
  C40      1.0000 0.02870  0.23768  0.09202  Biso   1.000  C
  H45      1.0000 0.74590  0.02598  0.77124  Biso   1.000  H
  H46      1.0000 0.99525  0.18388  0.12339  Biso   1.000  H
  H47      1.0000 0.11466  0.23772  0.08880  Biso   1.000  H
  H48      1.0000 0.01430  0.31042  0.11560  Biso   1.000  H
  O9       1.0000 0.42189  0.51392  0.39032  Biso   1.000  O
  C41      1.0000 0.51139  0.49301  0.34166  Biso   1.000  C
  H49      1.0000 0.41192  0.57911  0.39401  Biso   1.000  H
  C42      1.0000 0.53228  0.54081  0.27587  Biso   1.000  C
  C43      1.0000 0.58152  0.41880  0.36097  Biso   1.000  C
  C44      1.0000 0.45537  0.61886  0.24930  Biso   1.000  C
  C45      1.0000 0.62688  0.51226  0.23194  Biso   1.000  C
  C46      1.0000 0.67289  0.39089  0.31433  Biso   1.000  C
  H50      1.0000 0.56695  0.38734  0.40611  Biso   1.000  H
  C47      1.0000 0.41805  0.58809  0.16385  Biso   1.000  C
  C48      1.0000 0.51646  0.73732  0.27253  Biso   1.000  C
  H51      1.0000 0.38072  0.61126  0.27830  Biso   1.000  H
  H52      1.0000 0.64426  0.54649  0.18830  Biso   1.000  H
  C49      1.0000 0.69705  0.43673  0.24843  Biso   1.000  C
  O10      1.0000 0.74284  0.31732  0.33266  Biso   1.000  O
  C50      1.0000 0.34636  0.47370  0.14183  Biso   1.000  C
  H53      1.0000 0.49027  0.59301  0.13341  Biso   1.000  H
  H54      1.0000 0.36984  0.64182  0.14979  Biso   1.000  H
  C51      1.0000 0.58593  0.79361  0.22318  Biso   1.000  C
  C52      1.0000 0.50619  0.79264  0.34679  Biso   1.000  C
  C53      1.0000 0.79307  0.40354  0.19378  Biso   1.000  C
  H55      1.0000 0.74795  0.32000  0.37982  Biso   1.000  H
  H56      1.0000 0.39279  0.42002  0.15780  Biso   1.000  H
  H57      1.0000 0.27184  0.46967  0.16991  Biso   1.000  H
  C54      1.0000 0.31592  0.44376  0.05581  Biso   1.000  C
  C55      1.0000 0.64366  0.90086  0.24428  Biso   1.000  C
  H58      1.0000 0.59448  0.75699  0.17239  Biso   1.000  H
  O11      1.0000 0.44058  0.73625  0.39643  Biso   1.000  O
  C56      1.0000 0.56104  0.90010  0.37014  Biso   1.000  C
  H59      1.0000 0.81523  0.33491  0.20750  Biso   1.000  H
  C57      1.0000 0.90528  0.48913  0.20640  Biso   1.000  C
  C58      1.0000 0.74437  0.37633  0.10977  Biso   1.000  C
  H60      1.0000 0.27745  0.36731  0.04370  Biso   1.000  H
  H61      1.0000 0.38876  0.45359  0.02739  Biso   1.000  H
  H62      1.0000 0.26148  0.49092  0.04082  Biso   1.000  H
  C59      1.0000 0.62877  0.95323  0.31865  Biso   1.000  C
  C60      1.0000 0.72136  0.96059  0.18974  Biso   1.000  C
  H63      1.0000 0.44996  0.77099  0.44100  Biso   1.000  H
  H64      1.0000 0.55233  0.93677  0.42082  Biso   1.000  H
  C61      1.0000 0.93060  0.56839  0.16022  Biso   1.000  C
  C62      1.0000 0.98728  0.49163  0.26740  Biso   1.000  C
  H65      1.0000 0.71771  0.44184  0.09513  Biso   1.000  H
  H66      1.0000 0.80934  0.35768  0.07599  Biso   1.000  H
  C63      1.0000 0.64115  0.28177  0.09599  Biso   1.000  C
  O12      1.0000 0.68413  0.05991  0.34010  Biso   1.000  O
  C64      1.0000 0.85233  0.94991  0.20069  Biso   1.000  C
  C65      1.0000 0.67668  0.92768  0.10510  Biso   1.000  C
  H67      1.0000 0.71606  0.03995  0.20461  Biso   1.000  H
  H68      1.0000 0.87585  0.56768  0.11859  Biso   1.000  H
  C66      1.0000 0.03092  0.64898  0.17077  Biso   1.000  C
  O13      1.0000 0.97233  0.42023  0.31888  Biso   1.000  O
  C67      1.0000 0.08902  0.56930  0.27991  Biso   1.000  C
  H69      1.0000 0.66603  0.21758  0.11381  Biso   1.000  H
  H70      1.0000 0.57394  0.30226  0.12701  Biso   1.000  H
  C68      1.0000 0.59930  0.25098  0.01182  Biso   1.000  C
  H71      1.0000 0.63794  0.09302  0.36899  Biso   1.000  H
  C69      1.0000 0.89408  0.85619  0.16570  Biso   1.000  C
  C70      1.0000 0.93675  0.03263  0.24122  Biso   1.000  C
  H72      1.0000 0.67831  0.84870  0.08879  Biso   1.000  H
  H73      1.0000 0.59298  0.93937  0.10078  Biso   1.000  H
  C71      1.0000 0.74924  0.99080  0.05062  Biso   1.000  C
  C72      1.0000 0.05189  0.73889  0.12194  Biso   1.000  C
  C73      1.0000 0.11058  0.64789  0.23223  Biso   1.000  C
  H74      1.0000 0.90292  0.38501  0.31398  Biso   1.000  H
  H75      1.0000 0.14420  0.56901  0.32102  Biso   1.000  H
  H76      1.0000 0.53590  0.18757  0.00548  Biso   1.000  H
  H77      1.0000 0.66587  0.23295  0.98063  Biso   1.000  H
  H78      1.0000 0.56875  0.31257  0.99493  Biso   1.000  H
  H79      1.0000 0.83709  0.79671  0.14102  Biso   1.000  H
  C74      1.0000 0.01331  0.84330  0.16431  Biso   1.000  C
  O14      1.0000 0.90907  0.12868  0.28124  Biso   1.000  O
  C75      1.0000 0.05652  0.02359  0.24180  Biso   1.000  C
  H80      1.0000 0.83228  0.97658  0.05310  Biso   1.000  H
  C76      1.0000 0.70013  0.95987  0.96789  Biso   1.000  C
  H81      1.0000 0.75039  0.06994  0.06792  Biso   1.000  H
  C77      1.0000 0.99441  0.70662  0.04001  Biso   1.000  C
  H82      1.0000 0.13969  0.75547  0.11652  Biso   1.000  H
  O15      1.0000 0.21300  0.72130  0.25016  Biso   1.000  O
  C78      1.0000 0.09461  0.93076  0.20311  Biso   1.000  C
  H83      1.0000 0.83734  0.11699  0.29098  Biso   1.000  H
  H84      1.0000 0.11304  0.08139  0.26890  Biso   1.000  H
  H85      1.0000 0.61854  0.97550  0.96489  Biso   1.000  H
  H86      1.0000 0.70020  0.88184  0.95013  Biso   1.000  H
  H87      1.0000 0.74990  0.00247  0.93508  Biso   1.000  H
  H88      1.0000 0.90681  0.69533  0.04330  Biso   1.000  H
  C79      1.0000 0.03005  0.79184  0.98876  Biso   1.000  C
  H89      1.0000 0.01729  0.63641  0.01591  Biso   1.000  H
  H90      1.0000 0.21194  0.77601  0.22802  Biso   1.000  H
  O16      1.0000 0.21329  0.91917  0.20242  Biso   1.000  O
  C80      1.0000 0.97113  0.76226  0.90798  Biso   1.000  C
  H91      1.0000 0.11753  0.80160  0.98443  Biso   1.000  H
  H92      1.0000 0.00938  0.86249  0.01372  Biso   1.000  H
  H93      1.0000 0.25401  0.97398  0.22883  Biso   1.000  H
  H94      1.0000 0.88527  0.76231  0.91121  Biso   1.000  H
  H95      1.0000 0.98553  0.68961  0.88440  Biso   1.000  H
  H96      1.0000 0.00457  0.81607  0.87662  Biso   1.000  H
