data_image0
_cell_length_a       13.426
_cell_length_b       14.59
_cell_length_c       33.347
_cell_angle_alpha    98.34
_cell_angle_beta     92.69
_cell_angle_gamma    96.87

_symmetry_space_group_name_H-M    "P 1"
_symmetry_int_tables_number       1

loop_
  _symmetry_equiv_pos_as_xyz
  'x, y, z'

loop_
  _atom_site_label
  _atom_site_occupancy
  _atom_site_fract_x
  _atom_site_fract_y
  _atom_site_fract_z
  _atom_site_thermal_displace_type
  _atom_site_B_iso_or_equiv
  _atom_site_type_symbol
  C1       1.0000 0.80905  0.70436  0.41536  Biso   1.000  C
  C2       1.0000 0.78869  0.79865  0.43844  Biso   1.000  C
  H1       1.0000 0.74780  0.66184  0.41141  Biso   1.000  H
  H2       1.0000 0.85836  0.67904  0.43082  Biso   1.000  H
  H3       1.0000 0.83370  0.71325  0.38942  Biso   1.000  H
  C3       1.0000 0.70488  0.84038  0.41797  Biso   1.000  C
  C4       1.0000 0.88738  0.86431  0.44439  Biso   1.000  C
  H4       1.0000 0.76806  0.78819  0.46541  Biso   1.000  H
  C5       1.0000 0.66181  0.80337  0.37921  Biso   1.000  C
  C6       1.0000 0.66838  0.91947  0.43765  Biso   1.000  C
  C7       1.0000 0.96080  0.85469  0.47416  Biso   1.000  C
  C8       1.0000 0.90957  0.93231  0.41967  Biso   1.000  C
  C9       1.0000 0.58409  0.83923  0.35995  Biso   1.000  C
  H5       1.0000 0.68648  0.75166  0.36539  Biso   1.000  H
  C10      1.0000 0.59223  0.95879  0.41918  Biso   1.000  C
  O1       1.0000 0.70687  0.95686  0.47631  Biso   1.000  O
  O2       1.0000 0.93888  0.78771  0.49882  Biso   1.000  O
  C11      1.0000 0.05272  0.91088  0.47868  Biso   1.000  C
  H6       1.0000 0.86144  0.93876  0.39959  Biso   1.000  H
  C12      1.0000 0.00035  0.99111  0.42359  Biso   1.000  C
  C13      1.0000 0.54022  0.79904  0.31722  Biso   1.000  C
  C14      1.0000 0.54973  0.91833  0.38085  Biso   1.000  C
  H7       1.0000 0.56975  0.01225  0.43252  Biso   1.000  H
  H8       1.0000 0.67091  0.00408  0.48640  Biso   1.000  H
  H9       1.0000 0.98325  0.79348  0.51711  Biso   1.000  H
  C15      1.0000 0.07148  0.97896  0.45381  Biso   1.000  C
  H10      1.0000 0.10150  0.90307  0.49821  Biso   1.000  H
  C16      1.0000 0.02443  0.06393  0.39567  Biso   1.000  C
  C17      1.0000 0.56599  0.70014  0.30288  Biso   1.000  C
  C18      1.0000 0.57194  0.86321  0.28651  Biso   1.000  C
  H11      1.0000 0.46686  0.79465  0.31770  Biso   1.000  H
  O3       1.0000 0.47324  0.95593  0.36317  Biso   1.000  O
  O4       1.0000 0.16119  0.03660  0.45815  Biso   1.000  O
  C19      1.0000 0.93093  0.09527  0.37708  Biso   1.000  C
  C20      1.0000 0.09352  0.02614  0.36339  Biso   1.000  C
  H12      1.0000 0.06258  0.11904  0.41232  Biso   1.000  H
  H13      1.0000 0.53662  0.67836  0.27591  Biso   1.000  H
  H14      1.0000 0.53991  0.65873  0.32089  Biso   1.000  H
  H15      1.0000 0.63766  0.70146  0.30291  Biso   1.000  H
  C21      1.0000 0.51597  0.85494  0.24940  Biso   1.000  C
  C22      1.0000 0.65596  0.93124  0.29371  Biso   1.000  C
  H16      1.0000 0.46032  0.00163  0.37839  Biso   1.000  H
  H17      1.0000 0.19223  0.03077  0.47920  Biso   1.000  H
  C23      1.0000 0.89441  0.06410  0.33687  Biso   1.000  C
  C24      1.0000 0.87887  0.15969  0.39983  Biso   1.000  C
  H18      1.0000 0.06005  0.96947  0.34780  Biso   1.000  H
  H19      1.0000 0.10892  0.07167  0.34571  Biso   1.000  H
  H20      1.0000 0.15460  0.01388  0.37651  Biso   1.000  H
  O5       1.0000 0.43278  0.78830  0.24201  Biso   1.000  O
  C25      1.0000 0.54294  0.91264  0.22091  Biso   1.000  C
  C26      1.0000 0.68486  0.99098  0.26610  Biso   1.000  C
  H21      1.0000 0.69440  0.93693  0.31810  Biso   1.000  H
  C27      1.0000 0.81101  0.09397  0.31843  Biso   1.000  C
  H22      1.0000 0.92776  0.02052  0.32141  Biso   1.000  H
  C28      1.0000 0.79399  0.18992  0.38304  Biso   1.000  C
  O6       1.0000 0.91285  0.19372  0.43935  Biso   1.000  O
  H23      1.0000 0.40072  0.79566  0.22139  Biso   1.000  H
  C29      1.0000 0.62621  0.98065  0.22941  Biso   1.000  C
  H24      1.0000 0.50538  0.90591  0.19630  Biso   1.000  H
  C30      1.0000 0.77760  0.06436  0.27379  Biso   1.000  C
  C31      1.0000 0.76119  0.15777  0.34258  Biso   1.000  C
  H25      1.0000 0.75917  0.23167  0.39880  Biso   1.000  H
  H26      1.0000 0.87589  0.23054  0.44931  Biso   1.000  H
  O7       1.0000 0.65367  0.03977  0.20223  Biso   1.000  O
  C32      1.0000 0.86188  0.03025  0.24827  Biso   1.000  C
  H27      1.0000 0.75913  0.12006  0.26349  Biso   1.000  H
  O8       1.0000 0.67814  0.18880  0.32588  Biso   1.000  O
  H28      1.0000 0.60964  0.03333  0.18379  Biso   1.000  H
  H29      1.0000 0.87827  0.97254  0.25580  Biso   1.000  H
  H30      1.0000 0.92024  0.07622  0.25301  Biso   1.000  H
  H31      1.0000 0.83981  0.02050  0.21999  Biso   1.000  H
  H32      1.0000 0.66991  0.24306  0.33912  Biso   1.000  H
  C33      1.0000 0.19077  0.29579  0.58466  Biso   1.000  C
  C34      1.0000 0.21105  0.20150  0.56157  Biso   1.000  C
  H33      1.0000 0.25201  0.33825  0.58860  Biso   1.000  H
  H34      1.0000 0.14138  0.32104  0.56920  Biso   1.000  H
  H35      1.0000 0.16612  0.28690  0.61059  Biso   1.000  H
  C35      1.0000 0.11237  0.13584  0.55562  Biso   1.000  C
  C36      1.0000 0.29485  0.15971  0.58204  Biso   1.000  C
  H36      1.0000 0.23168  0.21196  0.53460  Biso   1.000  H
  C37      1.0000 0.03893  0.14539  0.52585  Biso   1.000  C
  C38      1.0000 0.09017  0.06785  0.58034  Biso   1.000  C
  C39      1.0000 0.33144  0.08069  0.56236  Biso   1.000  C
  C40      1.0000 0.33799  0.19672  0.62080  Biso   1.000  C
  O9       1.0000 0.06094  0.21244  0.50119  Biso   1.000  O
  C41      1.0000 0.94702  0.08927  0.52133  Biso   1.000  C
  H37      1.0000 0.13830  0.06140  0.60042  Biso   1.000  H
  C42      1.0000 0.99939  0.00897  0.57642  Biso   1.000  C
  O10      1.0000 0.29288  0.04329  0.52370  Biso   1.000  O
  C43      1.0000 0.40751  0.04137  0.58083  Biso   1.000  C
  C44      1.0000 0.41565  0.16092  0.64006  Biso   1.000  C
  H38      1.0000 0.31326  0.24849  0.63462  Biso   1.000  H
  H39      1.0000 0.01649  0.20667  0.48291  Biso   1.000  H
  C45      1.0000 0.92826  0.02120  0.54620  Biso   1.000  C
  H40      1.0000 0.89824  0.09709  0.50180  Biso   1.000  H
  C46      1.0000 0.97531  0.93623  0.60434  Biso   1.000  C
  H41      1.0000 0.32884  0.99607  0.51361  Biso   1.000  H
  C47      1.0000 0.45001  0.08182  0.61916  Biso   1.000  C
  H42      1.0000 0.43006  0.98790  0.56750  Biso   1.000  H
  C48      1.0000 0.45953  0.20112  0.68279  Biso   1.000  C
  O11      1.0000 0.83855  0.96348  0.54186  Biso   1.000  O
  C49      1.0000 0.90623  0.97401  0.63662  Biso   1.000  C
  H43      1.0000 0.93715  0.88105  0.58769  Biso   1.000  H
  C50      1.0000 0.06882  0.90489  0.62293  Biso   1.000  C
  O12      1.0000 0.52651  0.04423  0.63684  Biso   1.000  O
  C51      1.0000 0.42780  0.13694  0.71350  Biso   1.000  C
  C52      1.0000 0.43376  0.30001  0.69713  Biso   1.000  C
  H44      1.0000 0.53288  0.20550  0.68231  Biso   1.000  H
  H45      1.0000 0.80759  0.96938  0.52081  Biso   1.000  H
  H46      1.0000 0.89082  0.92848  0.65430  Biso   1.000  H
  H47      1.0000 0.84514  0.98628  0.62350  Biso   1.000  H
  H48      1.0000 0.93969  0.03068  0.65221  Biso   1.000  H
  C53      1.0000 0.12088  0.84047  0.60018  Biso   1.000  C
  C54      1.0000 0.10534  0.93606  0.66314  Biso   1.000  C
  H49      1.0000 0.53941  0.99846  0.62162  Biso   1.000  H
  C55      1.0000 0.48378  0.14521  0.75062  Biso   1.000  C
  C56      1.0000 0.34378  0.06891  0.70630  Biso   1.000  C
  H50      1.0000 0.46312  0.32179  0.72410  Biso   1.000  H
  H51      1.0000 0.45983  0.34142  0.67912  Biso   1.000  H
  H52      1.0000 0.36208  0.29869  0.69710  Biso   1.000  H
  O13      1.0000 0.08689  0.80638  0.56069  Biso   1.000  O
  C57      1.0000 0.20575  0.81023  0.61697  Biso   1.000  C
  C58      1.0000 0.18874  0.90619  0.68158  Biso   1.000  C
  H53      1.0000 0.07205  0.97957  0.67860  Biso   1.000  H
  O14      1.0000 0.56695  0.21179  0.75800  Biso   1.000  O
  C59      1.0000 0.45687  0.08744  0.77911  Biso   1.000  C
  C60      1.0000 0.31488  0.00917  0.73391  Biso   1.000  C
  H54      1.0000 0.30542  0.06322  0.68191  Biso   1.000  H
  H55      1.0000 0.12384  0.76954  0.55070  Biso   1.000  H
  C61      1.0000 0.23863  0.84238  0.65743  Biso   1.000  C
  H56      1.0000 0.24057  0.76848  0.60121  Biso   1.000  H
  C62      1.0000 0.22215  0.93580  0.72623  Biso   1.000  C
  H57      1.0000 0.59902  0.20449  0.77862  Biso   1.000  H
  C63      1.0000 0.37353  0.01951  0.77060  Biso   1.000  C
  H58      1.0000 0.49436  0.09424  0.80371  Biso   1.000  H
  O15      1.0000 0.32160  0.81135  0.67414  Biso   1.000  O
  C64      1.0000 0.13787  0.96991  0.75174  Biso   1.000  C
  H59      1.0000 0.24061  0.88009  0.73652  Biso   1.000  H
  O16      1.0000 0.34615  0.96038  0.79779  Biso   1.000  O
  H60      1.0000 0.32984  0.75709  0.66089  Biso   1.000  H
  H61      1.0000 0.12147  0.02761  0.74421  Biso   1.000  H
  H62      1.0000 0.07949  0.92386  0.74700  Biso   1.000  H
  H63      1.0000 0.15992  0.97958  0.78002  Biso   1.000  H
  H64      1.0000 0.39010  0.96682  0.81622  Biso   1.000  H
  O17      1.0000 0.54704  0.18919  0.26154  Biso   1.000  O
  C65      1.0000 0.46368  0.12307  0.25407  Biso   1.000  C
  H65      1.0000 0.57973  0.18074  0.28180  Biso   1.000  H
  C66      1.0000 0.40854  0.11503  0.21684  Biso   1.000  C
  C67      1.0000 0.43554  0.06597  0.28271  Biso   1.000  C
  C68      1.0000 0.44208  0.17958  0.18658  Biso   1.000  C
  C69      1.0000 0.32466  0.04710  0.20933  Biso   1.000  C
  C70      1.0000 0.35253  0.99789  0.27397  Biso   1.000  C
  H66      1.0000 0.47217  0.07335  0.30759  Biso   1.000  H
  C71      1.0000 0.41722  0.27850  0.20159  Biso   1.000  C
  C72      1.0000 0.40049  0.14189  0.14333  Biso   1.000  C
  H67      1.0000 0.51552  0.18352  0.18661  Biso   1.000  H
  H68      1.0000 0.28685  0.04129  0.18479  Biso   1.000  H
  C73      1.0000 0.29468  0.98710  0.23697  Biso   1.000  C
  O18      1.0000 0.32476  0.93782  0.30082  Biso   1.000  O
  H69      1.0000 0.44535  0.29853  0.22889  Biso   1.000  H
  H70      1.0000 0.44512  0.32072  0.18431  Biso   1.000  H
  H71      1.0000 0.34557  0.27795  0.20101  Biso   1.000  H
  C74      1.0000 0.32572  0.18081  0.12371  Biso   1.000  C
  C75      1.0000 0.43581  0.06404  0.12165  Biso   1.000  C
  C76      1.0000 0.20500  0.91062  0.22832  Biso   1.000  C
  H72      1.0000 0.36876  0.94355  0.31919  Biso   1.000  H
  C77      1.0000 0.28530  0.14762  0.08426  Biso   1.000  C
  H73      1.0000 0.30112  0.23219  0.13780  Biso   1.000  H
  O19      1.0000 0.51112  0.02453  0.13899  Biso   1.000  O
  C78      1.0000 0.39538  0.02703  0.08252  Biso   1.000  C
  C79      1.0000 0.17203  0.88566  0.18355  Biso   1.000  C
  C80      1.0000 0.11908  0.93470  0.25474  Biso   1.000  C
  H74      1.0000 0.22758  0.85446  0.23670  Biso   1.000  H
  C81      1.0000 0.32164  0.06892  0.06391  Biso   1.000  C
  C82      1.0000 0.20193  0.18973  0.06388  Biso   1.000  C
  H75      1.0000 0.52440  0.97980  0.12319  Biso   1.000  H
  H76      1.0000 0.41779  0.97398  0.06880  Biso   1.000  H
  C83      1.0000 0.22509  0.82744  0.15797  Biso   1.000  C
  C84      1.0000 0.08857  0.91785  0.16581  Biso   1.000  C
  H77      1.0000 0.06347  0.88581  0.24879  Biso   1.000  H
  H78      1.0000 0.14149  0.94095  0.28290  Biso   1.000  H
  H79      1.0000 0.09808  0.99241  0.24921  Biso   1.000  H
  O20      1.0000 0.28324  0.03395  0.02524  Biso   1.000  O
  C85      1.0000 0.18725  0.28722  0.08486  Biso   1.000  C
  C86      1.0000 0.10212  0.12575  0.05920  Biso   1.000  C
  H80      1.0000 0.22157  0.19642  0.03639  Biso   1.000  H
  O21      1.0000 0.30846  0.79629  0.17374  Biso   1.000  O
  C87      1.0000 0.19298  0.79989  0.11706  Biso   1.000  C
  C88      1.0000 0.05419  0.89262  0.12520  Biso   1.000  C
  H81      1.0000 0.05400  0.95865  0.18221  Biso   1.000  H
  H82      1.0000 0.31034  0.98834  0.01661  Biso   1.000  H
  H83      1.0000 0.25018  0.32711  0.08760  Biso   1.000  H
  H84      1.0000 0.13917  0.31270  0.06889  Biso   1.000  H
  H85      1.0000 0.16305  0.28299  0.11129  Biso   1.000  H
  C89      1.0000 0.02975  0.13519  0.02910  Biso   1.000  C
  C90      1.0000 0.07931  0.05730  0.08359  Biso   1.000  C
  H86      1.0000 0.32789  0.76200  0.15761  Biso   1.000  H
  C91      1.0000 0.10750  0.83093  0.10117  Biso   1.000  C
  H87      1.0000 0.22886  0.76080  0.10041  Biso   1.000  H
  C92      1.0000 0.96179  0.92607  0.10673  Biso   1.000  C
  O22      1.0000 0.05241  0.20313  0.00522  Biso   1.000  O
  C93      1.0000 0.93797  0.07836  0.02393  Biso   1.000  C
  H88      1.0000 0.12668  0.05063  0.10382  Biso   1.000  H
  C94      1.0000 0.98845  0.99846  0.07897  Biso   1.000  C
  O23      1.0000 0.07353  0.80056  0.06148  Biso   1.000  O
  C95      1.0000 0.89278  0.96552  0.13844  Biso   1.000  C
  H89      1.0000 0.92276  0.87169  0.09000  Biso   1.000  H
  H90      1.0000 0.01006  0.19645  0.98609  Biso   1.000  H
  C96      1.0000 0.91802  0.00998  0.04854  Biso   1.000  C
  H91      1.0000 0.89000  0.08590  0.00401  Biso   1.000  H
  H92      1.0000 0.11094  0.76518  0.05069  Biso   1.000  H
  H93      1.0000 0.83614  0.98534  0.12502  Biso   1.000  H
  H94      1.0000 0.86969  0.91815  0.15421  Biso   1.000  H
  H95      1.0000 0.92935  0.01791  0.15600  Biso   1.000  H
  O24      1.0000 0.82817  0.95223  0.04428  Biso   1.000  O
  H96      1.0000 0.79693  0.95823  0.02330  Biso   1.000  H
  O25      1.0000 0.45271  0.81096  0.73847  Biso   1.000  O
  C97      1.0000 0.53606  0.87708  0.74594  Biso   1.000  C
  H97      1.0000 0.42001  0.81942  0.71821  Biso   1.000  H
  C98      1.0000 0.59119  0.88505  0.78318  Biso   1.000  C
  C99      1.0000 0.56420  0.93418  0.71730  Biso   1.000  C
  C100     1.0000 0.67509  0.95305  0.79068  Biso   1.000  C
  C101     1.0000 0.55766  0.82058  0.81343  Biso   1.000  C
  H98      1.0000 0.52764  0.92680  0.69242  Biso   1.000  H
  C102     1.0000 0.64720  0.00220  0.72604  Biso   1.000  C
  H99      1.0000 0.71288  0.95879  0.81522  Biso   1.000  H
  C103     1.0000 0.70513  0.01298  0.76304  Biso   1.000  C
  C104     1.0000 0.59925  0.85826  0.85668  Biso   1.000  C
  C105     1.0000 0.58253  0.72166  0.79842  Biso   1.000  C
  H100     1.0000 0.48422  0.81663  0.81340  Biso   1.000  H
  O26      1.0000 0.67498  0.06234  0.69919  Biso   1.000  O
  C106     1.0000 0.79474  0.08953  0.77170  Biso   1.000  C
  C107     1.0000 0.67402  0.81935  0.87630  Biso   1.000  C
  C108     1.0000 0.56394  0.93612  0.87837  Biso   1.000  C
  H101     1.0000 0.55440  0.70162  0.77112  Biso   1.000  H
  H102     1.0000 0.55462  0.67944  0.81571  Biso   1.000  H
  H103     1.0000 0.65424  0.72220  0.79900  Biso   1.000  H
  H104     1.0000 0.63098  0.05661  0.68082  Biso   1.000  H
  C109     1.0000 0.82771  0.11449  0.81647  Biso   1.000  C
  C110     1.0000 0.88074  0.06546  0.74527  Biso   1.000  C
  H105     1.0000 0.77217  0.14570  0.76331  Biso   1.000  H
  C111     1.0000 0.71444  0.85253  0.91576  Biso   1.000  C
  H106     1.0000 0.69861  0.76789  0.86221  Biso   1.000  H
  O27      1.0000 0.48862  0.97562  0.86102  Biso   1.000  O
  C112     1.0000 0.60437  0.97312  0.91749  Biso   1.000  C
  C113     1.0000 0.77465  0.17272  0.84204  Biso   1.000  C
  C114     1.0000 0.91117  0.08230  0.83420  Biso   1.000  C
  H107     1.0000 0.93628  0.11434  0.75122  Biso   1.000  H
  H108     1.0000 0.85825  0.05921  0.71711  Biso   1.000  H
  H109     1.0000 0.90166  0.00767  0.75080  Biso   1.000  H
  C115     1.0000 0.67811  0.93123  0.93611  Biso   1.000  C
  C116     1.0000 0.79781  0.81036  0.93614  Biso   1.000  C
  H110     1.0000 0.47535  0.02035  0.87682  Biso   1.000  H
  H111     1.0000 0.58194  0.02610  0.93122  Biso   1.000  H
  O28      1.0000 0.69136  0.20387  0.82628  Biso   1.000  O
  C117     1.0000 0.80675  0.20019  0.88295  Biso   1.000  C
  C118     1.0000 0.94555  0.10754  0.87481  Biso   1.000  C
  H112     1.0000 0.94574  0.04150  0.81780  Biso   1.000  H
  O29      1.0000 0.71657  0.96614  0.97477  Biso   1.000  O
  C119     1.0000 0.81256  0.71293  0.91515  Biso   1.000  C
  C120     1.0000 0.89762  0.87440  0.94081  Biso   1.000  C
  H113     1.0000 0.77818  0.80374  0.96362  Biso   1.000  H
  H114     1.0000 0.67184  0.23808  0.84240  Biso   1.000  H
  C121     1.0000 0.89224  0.16922  0.89884  Biso   1.000  C
  H115     1.0000 0.77096  0.23935  0.89960  Biso   1.000  H
  C122     1.0000 0.03795  0.07408  0.89328  Biso   1.000  C
  H116     1.0000 0.68940  0.01182  0.98340  Biso   1.000  H
  H117     1.0000 0.74963  0.67304  0.91241  Biso   1.000  H
  H118     1.0000 0.86057  0.68745  0.93112  Biso   1.000  H
  H119     1.0000 0.83669  0.71710  0.88872  Biso   1.000  H
  C123     1.0000 0.96999  0.86497  0.97091  Biso   1.000  C
  C124     1.0000 0.92043  0.94286  0.91642  Biso   1.000  C
  O30      1.0000 0.92622  0.19959  0.93854  Biso   1.000  O
  C125     1.0000 0.01129  0.00163  0.92104  Biso   1.000  C
  C126     1.0000 0.10695  0.03456  0.86157  Biso   1.000  C
  H120     1.0000 0.07705  0.12839  0.91002  Biso   1.000  H
  O31      1.0000 0.94732  0.79695  0.99479  Biso   1.000  O
  C127     1.0000 0.06177  0.92179  0.97608  Biso   1.000  C
  H121     1.0000 0.87306  0.94953  0.89620  Biso   1.000  H
  H122     1.0000 0.88879  0.23491  0.94932  Biso   1.000  H
  C128     1.0000 0.08172  0.99017  0.95147  Biso   1.000  C
  H123     1.0000 0.07040  0.98225  0.84401  Biso   1.000  H
  H124     1.0000 0.16368  0.01483  0.87503  Biso   1.000  H
  H125     1.0000 0.13005  0.08201  0.84581  Biso   1.000  H
  H126     1.0000 0.98968  0.80371  0.01392  Biso   1.000  H
  H127     1.0000 0.10974  0.91425  0.99600  Biso   1.000  H
  O32      1.0000 0.17158  0.04792  0.95573  Biso   1.000  O
  H128     1.0000 0.20281  0.04193  0.97672  Biso   1.000  H
