data_image0
_cell_length_a       20.997
_cell_length_b       18.473
_cell_length_c       14.667
_cell_angle_alpha    90
_cell_angle_beta     90
_cell_angle_gamma    90

_symmetry_space_group_name_H-M    "P 1"
_symmetry_int_tables_number       1

loop_
  _symmetry_equiv_pos_as_xyz
  'x, y, z'

loop_
  _atom_site_label
  _atom_site_occupancy
  _atom_site_fract_x
  _atom_site_fract_y
  _atom_site_fract_z
  _atom_site_thermal_displace_type
  _atom_site_B_iso_or_equiv
  _atom_site_type_symbol
  O1       1.0000 0.50002  0.13457  0.60783  Biso   1.000  O
  H1       1.0000 0.46130  0.12873  0.60974  Biso   1.000  H
  C1       1.0000 0.52965  0.06842  0.60251  Biso   1.000  C
  C2       1.0000 0.49550  0.00444  0.61219  Biso   1.000  C
  C3       1.0000 0.59561  0.06718  0.58635  Biso   1.000  C
  H2       1.0000 0.45221  0.00601  0.62521  Biso   1.000  H
  C4       1.0000 0.52603  0.93802  0.60258  Biso   1.000  C
  C5       1.0000 0.63147  0.13831  0.57340  Biso   1.000  C
  C6       1.0000 0.62490  0.99957  0.58008  Biso   1.000  C
  O2       1.0000 0.49198  0.87457  0.60708  Biso   1.000  O
  C7       1.0000 0.59180  0.93407  0.58669  Biso   1.000  C
  C8       1.0000 0.63728  0.17853  0.66476  Biso   1.000  C
  C9       1.0000 0.69491  0.12878  0.52451  Biso   1.000  C
  H3       1.0000 0.60552  0.16922  0.53412  Biso   1.000  H
  H4       1.0000 0.66871  0.99789  0.57094  Biso   1.000  H
  H5       1.0000 0.45378  0.88372  0.60885  Biso   1.000  H
  C10      1.0000 0.62428  0.86055  0.57469  Biso   1.000  C
  H6       1.0000 0.59589  0.18292  0.69223  Biso   1.000  H
  H7       1.0000 0.66490  0.15201  0.70485  Biso   1.000  H
  H8       1.0000 0.65462  0.22590  0.65439  Biso   1.000  H
  C11      1.0000 0.75354  0.13918  0.56801  Biso   1.000  C
  C12      1.0000 0.69662  0.10962  0.43233  Biso   1.000  C
  C13      1.0000 0.68748  0.86781  0.52458  Biso   1.000  C
  C14      1.0000 0.63066  0.82206  0.66701  Biso   1.000  C
  H9       1.0000 0.59628  0.83083  0.53651  Biso   1.000  H
  H10      1.0000 0.75330  0.15141  0.62951  Biso   1.000  H
  C15      1.0000 0.81250  0.13219  0.52458  Biso   1.000  C
  O3       1.0000 0.64023  0.09776  0.38672  Biso   1.000  O
  C16      1.0000 0.75439  0.10334  0.38576  Biso   1.000  C
  C17      1.0000 0.74644  0.86088  0.56801  Biso   1.000  C
  C18      1.0000 0.68838  0.88540  0.43179  Biso   1.000  C
  H11      1.0000 0.65109  0.77600  0.65842  Biso   1.000  H
  H12      1.0000 0.65581  0.85119  0.70751  Biso   1.000  H
  H13      1.0000 0.58918  0.81481  0.69285  Biso   1.000  H
  C19      1.0000 0.81164  0.11460  0.43179  Biso   1.000  C
  C20      1.0000 0.87574  0.13945  0.57469  Biso   1.000  C
  H14      1.0000 0.64590  0.06788  0.34622  Biso   1.000  H
  H15      1.0000 0.75468  0.09170  0.32413  Biso   1.000  H
  C21      1.0000 0.80512  0.87127  0.52451  Biso   1.000  C
  H16      1.0000 0.74668  0.84859  0.62951  Biso   1.000  H
  O4       1.0000 0.63133  0.89190  0.38679  Biso   1.000  O
  C22      1.0000 0.74558  0.89666  0.38576  Biso   1.000  C
  O5       1.0000 0.86865  0.10816  0.38679  Biso   1.000  O
  C23      1.0000 0.86931  0.17794  0.66701  Biso   1.000  C
  H17      1.0000 0.90370  0.16922  0.53651  Biso   1.000  H
  C24      1.0000 0.90818  0.06599  0.58669  Biso   1.000  C
  C25      1.0000 0.86851  0.86174  0.57340  Biso   1.000  C
  C26      1.0000 0.80335  0.89043  0.43233  Biso   1.000  C
  H18      1.0000 0.63447  0.92270  0.34683  Biso   1.000  H
  H19      1.0000 0.74530  0.90830  0.32413  Biso   1.000  H
  H20      1.0000 0.86550  0.07730  0.34683  Biso   1.000  H
  H21      1.0000 0.84888  0.22400  0.65842  Biso   1.000  H
  H22      1.0000 0.84417  0.14881  0.70751  Biso   1.000  H
  H23      1.0000 0.91080  0.18519  0.69285  Biso   1.000  H
  C27      1.0000 0.97395  0.06198  0.60258  Biso   1.000  C
  C28      1.0000 0.87508  0.00049  0.58008  Biso   1.000  C
  C29      1.0000 0.86274  0.82147  0.66476  Biso   1.000  C
  C30      1.0000 0.90437  0.93282  0.58635  Biso   1.000  C
  H24      1.0000 0.89451  0.83083  0.53412  Biso   1.000  H
  O6       1.0000 0.85974  0.90224  0.38672  Biso   1.000  O
  C31      1.0000 0.00448  0.99556  0.61219  Biso   1.000  C
  O7       1.0000 0.00800  0.12543  0.60708  Biso   1.000  O
  H25      1.0000 0.83131  0.00211  0.57094  Biso   1.000  H
  H26      1.0000 0.90408  0.81708  0.69223  Biso   1.000  H
  H27      1.0000 0.83507  0.84799  0.70485  Biso   1.000  H
  H28      1.0000 0.84541  0.77410  0.65439  Biso   1.000  H
  C32      1.0000 0.97033  0.93158  0.60251  Biso   1.000  C
  H29      1.0000 0.85407  0.93212  0.34622  Biso   1.000  H
  H30      1.0000 0.04782  0.99399  0.62521  Biso   1.000  H
  H31      1.0000 0.04620  0.11628  0.60885  Biso   1.000  H
  O8       1.0000 0.00000  0.86543  0.60783  Biso   1.000  O
  H32      1.0000 0.03872  0.87133  0.60974  Biso   1.000  H
  O9       1.0000 0.50802  0.12543  0.39299  Biso   1.000  O
  C33      1.0000 0.47397  0.06198  0.39749  Biso   1.000  C
  H33      1.0000 0.54617  0.11628  0.39122  Biso   1.000  H
  C34      1.0000 0.40815  0.06599  0.41331  Biso   1.000  C
  C35      1.0000 0.50445  0.99556  0.38781  Biso   1.000  C
  C36      1.0000 0.37572  0.13945  0.42538  Biso   1.000  C
  C37      1.0000 0.37510  0.00049  0.41999  Biso   1.000  C
  H34      1.0000 0.54779  0.99399  0.37479  Biso   1.000  H
  C38      1.0000 0.47035  0.93158  0.39749  Biso   1.000  C
  C39      1.0000 0.36929  0.17794  0.33306  Biso   1.000  C
  C40      1.0000 0.31247  0.13219  0.47542  Biso   1.000  C
  H35      1.0000 0.40368  0.16922  0.46349  Biso   1.000  H
  H36      1.0000 0.33129  0.00211  0.42913  Biso   1.000  H
  C41      1.0000 0.40434  0.93282  0.41365  Biso   1.000  C
  O10      1.0000 0.49998  0.86543  0.39217  Biso   1.000  O
  H37      1.0000 0.34891  0.22400  0.34158  Biso   1.000  H
  H38      1.0000 0.34419  0.14881  0.29249  Biso   1.000  H
  H39      1.0000 0.41077  0.18519  0.30722  Biso   1.000  H
  C42      1.0000 0.25356  0.13918  0.43199  Biso   1.000  C
  C43      1.0000 0.31162  0.11460  0.56828  Biso   1.000  C
  C44      1.0000 0.36853  0.86174  0.42660  Biso   1.000  C
  H40      1.0000 0.53870  0.87133  0.39033  Biso   1.000  H
  C45      1.0000 0.19488  0.12878  0.47549  Biso   1.000  C
  H41      1.0000 0.25327  0.15141  0.37049  Biso   1.000  H
  O11      1.0000 0.36862  0.10816  0.61328  Biso   1.000  O
  C46      1.0000 0.25442  0.10334  0.61424  Biso   1.000  C
  C47      1.0000 0.36272  0.82147  0.33524  Biso   1.000  C
  C48      1.0000 0.30509  0.87127  0.47549  Biso   1.000  C
  H42      1.0000 0.39448  0.83083  0.46594  Biso   1.000  H
  C49      1.0000 0.13149  0.13831  0.42660  Biso   1.000  C
  C50      1.0000 0.19665  0.10962  0.56774  Biso   1.000  C
  H43      1.0000 0.36548  0.07730  0.65324  Biso   1.000  H
  H44      1.0000 0.25470  0.09170  0.67594  Biso   1.000  H
  H45      1.0000 0.40411  0.81708  0.30783  Biso   1.000  H
  H46      1.0000 0.33510  0.84799  0.29522  Biso   1.000  H
  H47      1.0000 0.34538  0.77410  0.34561  Biso   1.000  H
  C51      1.0000 0.24646  0.86088  0.43199  Biso   1.000  C
  C52      1.0000 0.30338  0.89043  0.56774  Biso   1.000  C
  C53      1.0000 0.13726  0.17853  0.33524  Biso   1.000  C
  C54      1.0000 0.09563  0.06718  0.41365  Biso   1.000  C
  H48      1.0000 0.10549  0.16922  0.46594  Biso   1.000  H
  O12      1.0000 0.14026  0.09776  0.61328  Biso   1.000  O
  H49      1.0000 0.24670  0.84859  0.37049  Biso   1.000  H
  C55      1.0000 0.18750  0.86781  0.47542  Biso   1.000  C
  O13      1.0000 0.35977  0.90224  0.61328  Biso   1.000  O
  C56      1.0000 0.24561  0.89666  0.61424  Biso   1.000  C
  H50      1.0000 0.09592  0.18292  0.30783  Biso   1.000  H
  H51      1.0000 0.16488  0.15201  0.29522  Biso   1.000  H
  H52      1.0000 0.15459  0.22590  0.34561  Biso   1.000  H
  C57      1.0000 0.02967  0.06842  0.39749  Biso   1.000  C
  C58      1.0000 0.12492  0.99957  0.41999  Biso   1.000  C
  H53      1.0000 0.14588  0.06788  0.65385  Biso   1.000  H
  C59      1.0000 0.12426  0.86055  0.42538  Biso   1.000  C
  C60      1.0000 0.18836  0.88540  0.56828  Biso   1.000  C
  H54      1.0000 0.35410  0.93212  0.65385  Biso   1.000  H
  H55      1.0000 0.24532  0.90830  0.67594  Biso   1.000  H
  O14      1.0000 0.00000  0.13457  0.39217  Biso   1.000  O
  C61      1.0000 0.99552  0.00444  0.38781  Biso   1.000  C
  C62      1.0000 0.09182  0.93407  0.41331  Biso   1.000  C
  H56      1.0000 0.16869  0.99789  0.42913  Biso   1.000  H
  C63      1.0000 0.13069  0.82206  0.33306  Biso   1.000  C
  H57      1.0000 0.09630  0.83083  0.46349  Biso   1.000  H
  O15      1.0000 0.13135  0.89190  0.61328  Biso   1.000  O
  H58      1.0000 0.96128  0.12873  0.39033  Biso   1.000  H
  H59      1.0000 0.95218  0.00601  0.37479  Biso   1.000  H
  C64      1.0000 0.02605  0.93802  0.39749  Biso   1.000  C
  H60      1.0000 0.15112  0.77600  0.34158  Biso   1.000  H
  H61      1.0000 0.15578  0.85119  0.29249  Biso   1.000  H
  H62      1.0000 0.08920  0.81481  0.30722  Biso   1.000  H
  H63      1.0000 0.13450  0.92270  0.65324  Biso   1.000  H
  O16      1.0000 0.99200  0.87457  0.39299  Biso   1.000  O
  H64      1.0000 0.95380  0.88372  0.39122  Biso   1.000  H
  C65      1.0000 0.36929  0.32204  0.16697  Biso   1.000  C
  H65      1.0000 0.34891  0.27602  0.15838  Biso   1.000  H
  H66      1.0000 0.34419  0.35122  0.20747  Biso   1.000  H
  H67      1.0000 0.41077  0.31478  0.19281  Biso   1.000  H
  C66      1.0000 0.37572  0.36058  0.07466  Biso   1.000  C
  C67      1.0000 0.31247  0.36783  0.02454  Biso   1.000  C
  H68      1.0000 0.40368  0.33081  0.03648  Biso   1.000  H
  C68      1.0000 0.40815  0.43404  0.08666  Biso   1.000  C
  C69      1.0000 0.25356  0.36085  0.06798  Biso   1.000  C
  C70      1.0000 0.31162  0.38543  0.93175  Biso   1.000  C
  C71      1.0000 0.47397  0.43799  0.10254  Biso   1.000  C
  C72      1.0000 0.37510  0.49954  0.08004  Biso   1.000  C
  C73      1.0000 0.19488  0.37124  0.02454  Biso   1.000  C
  H69      1.0000 0.25327  0.34862  0.12947  Biso   1.000  H
  O17      1.0000 0.36862  0.39187  0.88675  Biso   1.000  O
  C74      1.0000 0.25442  0.39669  0.88580  Biso   1.000  C
  O18      1.0000 0.50802  0.37455  0.10704  Biso   1.000  O
  C75      1.0000 0.50445  0.50441  0.11222  Biso   1.000  C
  C76      1.0000 0.40434  0.56715  0.08632  Biso   1.000  C
  H70      1.0000 0.33129  0.49792  0.07091  Biso   1.000  H
  C77      1.0000 0.13149  0.36172  0.07343  Biso   1.000  C
  C78      1.0000 0.19665  0.39041  0.93230  Biso   1.000  C
  H71      1.0000 0.36548  0.42273  0.84680  Biso   1.000  H
  H72      1.0000 0.25470  0.40833  0.82409  Biso   1.000  H
  H73      1.0000 0.54617  0.38370  0.10882  Biso   1.000  H
  H74      1.0000 0.54779  0.50598  0.12518  Biso   1.000  H
  C79      1.0000 0.47035  0.56845  0.10247  Biso   1.000  C
  C80      1.0000 0.36853  0.63828  0.07343  Biso   1.000  C
  C81      1.0000 0.13726  0.32144  0.16479  Biso   1.000  C
  C82      1.0000 0.09563  0.43285  0.08632  Biso   1.000  C
  H75      1.0000 0.10549  0.33081  0.03409  Biso   1.000  H
  O19      1.0000 0.14026  0.40221  0.88675  Biso   1.000  O
  O20      1.0000 0.49998  0.63460  0.10786  Biso   1.000  O
  C83      1.0000 0.36272  0.67856  0.16479  Biso   1.000  C
  C84      1.0000 0.30509  0.62876  0.02454  Biso   1.000  C
  H76      1.0000 0.39448  0.66919  0.03409  Biso   1.000  H
  H77      1.0000 0.09592  0.31711  0.19220  Biso   1.000  H
  H78      1.0000 0.16488  0.34802  0.20481  Biso   1.000  H
  H79      1.0000 0.15459  0.27413  0.15443  Biso   1.000  H
  C85      1.0000 0.02967  0.43160  0.10247  Biso   1.000  C
  C86      1.0000 0.12492  0.50046  0.08004  Biso   1.000  C
  H80      1.0000 0.14588  0.43209  0.84625  Biso   1.000  H
  H81      1.0000 0.53870  0.62870  0.10970  Biso   1.000  H
  H82      1.0000 0.40411  0.68289  0.19220  Biso   1.000  H
  H83      1.0000 0.33510  0.65203  0.20481  Biso   1.000  H
  H84      1.0000 0.34538  0.72592  0.15443  Biso   1.000  H
  C87      1.0000 0.24646  0.63915  0.06798  Biso   1.000  C
  C88      1.0000 0.30338  0.60959  0.93230  Biso   1.000  C
  O21      1.0000 0.00000  0.36545  0.10786  Biso   1.000  O
  C89      1.0000 0.99552  0.49559  0.11222  Biso   1.000  C
  C90      1.0000 0.09182  0.56596  0.08666  Biso   1.000  C
  H85      1.0000 0.16869  0.50208  0.07091  Biso   1.000  H
  H86      1.0000 0.24670  0.65138  0.12947  Biso   1.000  H
  C91      1.0000 0.18750  0.63217  0.02454  Biso   1.000  C
  O22      1.0000 0.35977  0.59779  0.88675  Biso   1.000  O
  C92      1.0000 0.24561  0.60337  0.88580  Biso   1.000  C
  H87      1.0000 0.96128  0.37130  0.10970  Biso   1.000  H
  C93      1.0000 0.02605  0.56201  0.10254  Biso   1.000  C
  H88      1.0000 0.95218  0.49402  0.12518  Biso   1.000  H
  C94      1.0000 0.12426  0.63942  0.07466  Biso   1.000  C
  C95      1.0000 0.18836  0.61457  0.93175  Biso   1.000  C
  H89      1.0000 0.35410  0.56791  0.84625  Biso   1.000  H
  H90      1.0000 0.24532  0.59173  0.82409  Biso   1.000  H
  O23      1.0000 0.99200  0.62545  0.10704  Biso   1.000  O
  C96      1.0000 0.13069  0.67796  0.16697  Biso   1.000  C
  H91      1.0000 0.09630  0.66919  0.03648  Biso   1.000  H
  O24      1.0000 0.13135  0.60813  0.88675  Biso   1.000  O
  H92      1.0000 0.95380  0.61630  0.10882  Biso   1.000  H
  H93      1.0000 0.15112  0.72403  0.15838  Biso   1.000  H
  H94      1.0000 0.15578  0.64878  0.20747  Biso   1.000  H
  H95      1.0000 0.08920  0.68522  0.19281  Biso   1.000  H
  H96      1.0000 0.13450  0.57733  0.84680  Biso   1.000  H
  C97      1.0000 0.63728  0.32144  0.83528  Biso   1.000  C
  C98      1.0000 0.63147  0.36172  0.92664  Biso   1.000  C
  H97      1.0000 0.59589  0.31711  0.80780  Biso   1.000  H
  H98      1.0000 0.66490  0.34802  0.79525  Biso   1.000  H
  H99      1.0000 0.65462  0.27413  0.84564  Biso   1.000  H
  C99      1.0000 0.59561  0.43285  0.91368  Biso   1.000  C
  C100     1.0000 0.69491  0.37124  0.97552  Biso   1.000  C
  H100     1.0000 0.60552  0.33081  0.96591  Biso   1.000  H
  C101     1.0000 0.52965  0.43160  0.89753  Biso   1.000  C
  C102     1.0000 0.62490  0.50046  0.92002  Biso   1.000  C
  C103     1.0000 0.75354  0.36085  0.93202  Biso   1.000  C
  C104     1.0000 0.69662  0.39041  0.06770  Biso   1.000  C
  O25      1.0000 0.50002  0.36545  0.89221  Biso   1.000  O
  C105     1.0000 0.49550  0.49559  0.88784  Biso   1.000  C
  C106     1.0000 0.59180  0.56596  0.91334  Biso   1.000  C
  H101     1.0000 0.66871  0.50208  0.92909  Biso   1.000  H
  H102     1.0000 0.75330  0.34862  0.87053  Biso   1.000  H
  C107     1.0000 0.81250  0.36783  0.97546  Biso   1.000  C
  O26      1.0000 0.64023  0.40221  0.11332  Biso   1.000  O
  C108     1.0000 0.75439  0.39669  0.11427  Biso   1.000  C
  H103     1.0000 0.46130  0.37130  0.89030  Biso   1.000  H
  C109     1.0000 0.52603  0.56201  0.89753  Biso   1.000  C
  H104     1.0000 0.45221  0.49402  0.87482  Biso   1.000  H
  C110     1.0000 0.62428  0.63942  0.92534  Biso   1.000  C
  C111     1.0000 0.87574  0.36058  0.92534  Biso   1.000  C
  C112     1.0000 0.81164  0.38543  0.06825  Biso   1.000  C
  H105     1.0000 0.64590  0.43209  0.15381  Biso   1.000  H
  H106     1.0000 0.75468  0.40833  0.17591  Biso   1.000  H
  O27      1.0000 0.49198  0.62545  0.89303  Biso   1.000  O
  C113     1.0000 0.68748  0.63217  0.97546  Biso   1.000  C
  C114     1.0000 0.63066  0.67796  0.83303  Biso   1.000  C
  H107     1.0000 0.59628  0.66919  0.96352  Biso   1.000  H
  C115     1.0000 0.86931  0.32204  0.83303  Biso   1.000  C
  H108     1.0000 0.90370  0.33081  0.96352  Biso   1.000  H
  C116     1.0000 0.90818  0.43404  0.91334  Biso   1.000  C
  O28      1.0000 0.86865  0.39187  0.11325  Biso   1.000  O
  H109     1.0000 0.45378  0.61630  0.89125  Biso   1.000  H
  C117     1.0000 0.74644  0.63915  0.93202  Biso   1.000  C
  C118     1.0000 0.68838  0.61457  0.06825  Biso   1.000  C
  H110     1.0000 0.65109  0.72403  0.84162  Biso   1.000  H
  H111     1.0000 0.65581  0.64878  0.79253  Biso   1.000  H
  H112     1.0000 0.58918  0.68522  0.80725  Biso   1.000  H
  H113     1.0000 0.84888  0.27602  0.84162  Biso   1.000  H
  H114     1.0000 0.84417  0.35122  0.79253  Biso   1.000  H
  H115     1.0000 0.91080  0.31478  0.80725  Biso   1.000  H
  C119     1.0000 0.97395  0.43799  0.89753  Biso   1.000  C
  C120     1.0000 0.87508  0.49954  0.92002  Biso   1.000  C
  H116     1.0000 0.86550  0.42273  0.15320  Biso   1.000  H
  C121     1.0000 0.80512  0.62876  0.97552  Biso   1.000  C
  H117     1.0000 0.74668  0.65138  0.87053  Biso   1.000  H
  O29      1.0000 0.63133  0.60813  0.11325  Biso   1.000  O
  C122     1.0000 0.74558  0.60337  0.11427  Biso   1.000  C
  O30      1.0000 0.00800  0.37455  0.89303  Biso   1.000  O
  C123     1.0000 0.00448  0.50441  0.88784  Biso   1.000  C
  C124     1.0000 0.90437  0.56715  0.91368  Biso   1.000  C
  H118     1.0000 0.83131  0.49792  0.92909  Biso   1.000  H
  C125     1.0000 0.86851  0.63828  0.92664  Biso   1.000  C
  C126     1.0000 0.80335  0.60959  0.06770  Biso   1.000  C
  H119     1.0000 0.63447  0.57733  0.15320  Biso   1.000  H
  H120     1.0000 0.74530  0.59173  0.17591  Biso   1.000  H
  H121     1.0000 0.04620  0.38370  0.89125  Biso   1.000  H
  C127     1.0000 0.97033  0.56845  0.89753  Biso   1.000  C
  H122     1.0000 0.04782  0.50598  0.87482  Biso   1.000  H
  C128     1.0000 0.86274  0.67856  0.83528  Biso   1.000  C
  H123     1.0000 0.89451  0.66919  0.96591  Biso   1.000  H
  O31      1.0000 0.85974  0.59779  0.11332  Biso   1.000  O
  O32      1.0000 0.00000  0.63460  0.89221  Biso   1.000  O
  H124     1.0000 0.90408  0.68289  0.80780  Biso   1.000  H
  H125     1.0000 0.83507  0.65203  0.79525  Biso   1.000  H
  H126     1.0000 0.84541  0.72592  0.84564  Biso   1.000  H
  H127     1.0000 0.85407  0.56791  0.15381  Biso   1.000  H
  H128     1.0000 0.03872  0.62870  0.89030  Biso   1.000  H
