data_image0
_cell_length_a       8.957
_cell_length_b       10.246
_cell_length_c       13.728
_cell_angle_alpha    108.56
_cell_angle_beta     91.15
_cell_angle_gamma    96.44

_symmetry_space_group_name_H-M    "P 1"
_symmetry_int_tables_number       1

loop_
  _symmetry_equiv_pos_as_xyz
  'x, y, z'

loop_
  _atom_site_label
  _atom_site_occupancy
  _atom_site_fract_x
  _atom_site_fract_y
  _atom_site_fract_z
  _atom_site_thermal_displace_type
  _atom_site_B_iso_or_equiv
  _atom_site_type_symbol
  C1       1.0000 0.75169  0.59783  0.50757  Biso   1.000  C
  C2       1.0000 0.72308  0.62967  0.41728  Biso   1.000  C
  C3       1.0000 0.76531  0.70804  0.59948  Biso   1.000  C
  C4       1.0000 0.78247  0.46183  0.50742  Biso   1.000  C
  N1       1.0000 0.69247  0.52388  0.32083  Biso   1.000  N
  N2       1.0000 0.72425  0.75924  0.41597  Biso   1.000  N
  C5       1.0000 0.76400  0.84189  0.60102  Biso   1.000  C
  H1       1.0000 0.77551  0.69007  0.66137  Biso   1.000  H
  O1       1.0000 0.80968  0.43398  0.58632  Biso   1.000  O
  H2       1.0000 0.78160  0.39188  0.44438  Biso   1.000  H
  C6       1.0000 0.55092  0.43313  0.31136  Biso   1.000  C
  C7       1.0000 0.72748  0.56796  0.23362  Biso   1.000  C
  C8       1.0000 0.75101  0.86388  0.50457  Biso   1.000  C
  H3       1.0000 0.77116  0.91520  0.66253  Biso   1.000  H
  H4       1.0000 0.46784  0.48500  0.31229  Biso   1.000  H
  H5       1.0000 0.54681  0.39711  0.36810  Biso   1.000  H
  H6       1.0000 0.54519  0.35761  0.24794  Biso   1.000  H
  C9       1.0000 0.87848  0.61135  0.22477  Biso   1.000  C
  C10      1.0000 0.62104  0.57080  0.16203  Biso   1.000  C
  N3       1.0000 0.76524  0.99474  0.49764  Biso   1.000  N
  C11      1.0000 0.92134  0.66062  0.14610  Biso   1.000  C
  H7       1.0000 0.95097  0.60710  0.27280  Biso   1.000  H
  C12      1.0000 0.66395  0.62069  0.08252  Biso   1.000  C
  H8       1.0000 0.52060  0.53965  0.16650  Biso   1.000  H
  C13      1.0000 0.73120  0.01611  0.40158  Biso   1.000  C
  C14      1.0000 0.82184  0.11532  0.58609  Biso   1.000  C
  C15      1.0000 0.81067  0.66543  0.07428  Biso   1.000  C
  N4       1.0000 0.07435  0.70509  0.13317  Biso   1.000  N
  H9       1.0000 0.59135  0.62336  0.03402  Biso   1.000  H
  C16      1.0000 0.58508  0.98233  0.35801  Biso   1.000  C
  C17      1.0000 0.84245  0.07087  0.35270  Biso   1.000  C
  H10      1.0000 0.75151  0.12699  0.63913  Biso   1.000  H
  H11      1.0000 0.83433  0.19674  0.56531  Biso   1.000  H
  H12      1.0000 0.91707  0.10129  0.61188  Biso   1.000  H
  H13      1.0000 0.83727  0.69932  0.02101  Biso   1.000  H
  C18      1.0000 0.10709  0.83802  0.12401  Biso   1.000  C
  C19      1.0000 0.19253  0.63845  0.16604  Biso   1.000  C
  H14      1.0000 0.50892  0.94644  0.39088  Biso   1.000  H
  C20      1.0000 0.55420  0.00217  0.26587  Biso   1.000  C
  C21      1.0000 0.81012  0.08913  0.25987  Biso   1.000  C
  H15      1.0000 0.93987  0.09555  0.38257  Biso   1.000  H
  N5       1.0000 0.01262  0.92730  0.16827  Biso   1.000  N
  C22      1.0000 0.23053  0.87139  0.07066  Biso   1.000  C
  H16      1.0000 0.28849  0.69157  0.16781  Biso   1.000  H
  H17      1.0000 0.19232  0.54645  0.11846  Biso   1.000  H
  H18      1.0000 0.17450  0.63321  0.23347  Biso   1.000  H
  H19      1.0000 0.45646  0.97926  0.23647  Biso   1.000  H
  C23      1.0000 0.66499  0.05531  0.21599  Biso   1.000  C
  N6       1.0000 0.92906  0.13950  0.20722  Biso   1.000  N
  C24      1.0000 0.03488  0.05658  0.16403  Biso   1.000  C
  C25      1.0000 0.31788  0.77059  0.00623  Biso   1.000  C
  C26      1.0000 0.25705  0.01112  0.07397  Biso   1.000  C
  H20      1.0000 0.64249  0.06810  0.15349  Biso   1.000  H
  C27      1.0000 0.93293  0.28040  0.20237  Biso   1.000  C
  C28      1.0000 0.16234  0.10352  0.11931  Biso   1.000  C
  O2       1.0000 0.43059  0.79756  0.96459  Biso   1.000  O
  H21      1.0000 0.28550  0.67737  0.99561  Biso   1.000  H
  H22      1.0000 0.34138  0.04024  0.04449  Biso   1.000  H
  H23      1.0000 0.83805  0.31345  0.22123  Biso   1.000  H
  H24      1.0000 0.95152  0.27990  0.13371  Biso   1.000  H
  H25      1.0000 0.01171  0.34021  0.24932  Biso   1.000  H
  H26      1.0000 0.18031  0.19537  0.12093  Biso   1.000  H
  C29      1.0000 0.24850  0.40217  0.49241  Biso   1.000  C
  C30      1.0000 0.23489  0.29197  0.40050  Biso   1.000  C
  C31      1.0000 0.27712  0.37033  0.58270  Biso   1.000  C
  C32      1.0000 0.21762  0.53817  0.49256  Biso   1.000  C
  H27      1.0000 0.22468  0.30993  0.33861  Biso   1.000  H
  C33      1.0000 0.23620  0.15814  0.39904  Biso   1.000  C
  N7       1.0000 0.27582  0.24066  0.58401  Biso   1.000  N
  N8       1.0000 0.30773  0.47616  0.67923  Biso   1.000  N
  O3       1.0000 0.19041  0.56602  0.41366  Biso   1.000  O
  H28      1.0000 0.21859  0.60812  0.55561  Biso   1.000  H
  C34      1.0000 0.24907  0.13612  0.49541  Biso   1.000  C
  H29      1.0000 0.22893  0.08484  0.33754  Biso   1.000  H
  C35      1.0000 0.27259  0.43195  0.76637  Biso   1.000  C
  C36      1.0000 0.44917  0.56687  0.68862  Biso   1.000  C
  N9       1.0000 0.23483  0.00516  0.50234  Biso   1.000  N
  C37      1.0000 0.12172  0.38865  0.77522  Biso   1.000  C
  C38      1.0000 0.37905  0.42923  0.83803  Biso   1.000  C
  H30      1.0000 0.53225  0.51500  0.68770  Biso   1.000  H
  H31      1.0000 0.45327  0.60290  0.63189  Biso   1.000  H
  H32      1.0000 0.45490  0.64242  0.75213  Biso   1.000  H
  C39      1.0000 0.26899  0.98389  0.59841  Biso   1.000  C
  C40      1.0000 0.17824  0.88468  0.41390  Biso   1.000  C
  C41      1.0000 0.07874  0.33938  0.85389  Biso   1.000  C
  H33      1.0000 0.04922  0.39290  0.72719  Biso   1.000  H
  C42      1.0000 0.33624  0.37932  0.91747  Biso   1.000  C
  H34      1.0000 0.47947  0.46026  0.83349  Biso   1.000  H
  C43      1.0000 0.41512  0.01767  0.64197  Biso   1.000  C
  C44      1.0000 0.15763  0.92913  0.64728  Biso   1.000  C
  H35      1.0000 0.24869  0.87304  0.36094  Biso   1.000  H
  H36      1.0000 0.16587  0.80326  0.43468  Biso   1.000  H
  H37      1.0000 0.08301  0.89871  0.38811  Biso   1.000  H
  C45      1.0000 0.18952  0.33457  0.92570  Biso   1.000  C
  N10      1.0000 0.92584  0.29492  0.86682  Biso   1.000  N
  H38      1.0000 0.40872  0.37658  0.96604  Biso   1.000  H
  H39      1.0000 0.49115  0.05347  0.60911  Biso   1.000  H
  C46      1.0000 0.44588  0.99784  0.73411  Biso   1.000  C
  C47      1.0000 0.18995  0.91077  0.74012  Biso   1.000  C
  H40      1.0000 0.06032  0.90445  0.61742  Biso   1.000  H
  H41      1.0000 0.16281  0.30068  0.97897  Biso   1.000  H
  C48      1.0000 0.89299  0.16198  0.87598  Biso   1.000  C
  C49      1.0000 0.80756  0.36159  0.83403  Biso   1.000  C
  H42      1.0000 0.54373  0.02074  0.76352  Biso   1.000  H
  C50      1.0000 0.33509  0.94469  0.78399  Biso   1.000  C
  N11      1.0000 0.07113  0.86050  0.79277  Biso   1.000  N
  N12      1.0000 0.98746  0.07270  0.83172  Biso   1.000  N
  C51      1.0000 0.76955  0.12861  0.92932  Biso   1.000  C
  H43      1.0000 0.71170  0.30843  0.83218  Biso   1.000  H
  H44      1.0000 0.80776  0.45355  0.88152  Biso   1.000  H
  H45      1.0000 0.82569  0.36680  0.76652  Biso   1.000  H
  H46      1.0000 0.35759  0.93190  0.84650  Biso   1.000  H
  C52      1.0000 0.96521  0.94346  0.83603  Biso   1.000  C
  C53      1.0000 0.06716  0.71960  0.79762  Biso   1.000  C
  C54      1.0000 0.74303  0.98888  0.92601  Biso   1.000  C
  C55      1.0000 0.68220  0.22945  0.99383  Biso   1.000  C
  C56      1.0000 0.83774  0.89648  0.88067  Biso   1.000  C
  H47      1.0000 0.98838  0.65983  0.75074  Biso   1.000  H
  H48      1.0000 0.16214  0.68649  0.77884  Biso   1.000  H
  H49      1.0000 0.04857  0.72010  0.86628  Biso   1.000  H
  H50      1.0000 0.65869  0.95967  0.95549  Biso   1.000  H
  O4       1.0000 0.56948  0.20238  0.03547  Biso   1.000  O
  H51      1.0000 0.71458  0.32263  0.00437  Biso   1.000  H
  H52      1.0000 0.81978  0.80466  0.87913  Biso   1.000  H
