data_image0
_cell_length_a       13.062
_cell_length_b       13.076
_cell_length_c       24.515
_cell_angle_alpha    87.87
_cell_angle_beta     79.3
_cell_angle_gamma    89.8

_symmetry_space_group_name_H-M    "P 1"
_symmetry_int_tables_number       1

loop_
  _symmetry_equiv_pos_as_xyz
  'x, y, z'

loop_
  _atom_site_label
  _atom_site_occupancy
  _atom_site_fract_x
  _atom_site_fract_y
  _atom_site_fract_z
  _atom_site_thermal_displace_type
  _atom_site_B_iso_or_equiv
  _atom_site_type_symbol
  C1       1.0000 0.58766  0.37266  0.48047  Biso   1.000  C
  C2       1.0000 0.62985  0.43894  0.42838  Biso   1.000  C
  C3       1.0000 0.47738  0.33473  0.47590  Biso   1.000  C
  H1       1.0000 0.58400  0.41311  0.51408  Biso   1.000  H
  H2       1.0000 0.63420  0.31358  0.48330  Biso   1.000  H
  C4       1.0000 0.63338  0.37946  0.37558  Biso   1.000  C
  H3       1.0000 0.58504  0.49989  0.42717  Biso   1.000  H
  H4       1.0000 0.70094  0.46298  0.43021  Biso   1.000  H
  C5       1.0000 0.47805  0.27827  0.42381  Biso   1.000  C
  H5       1.0000 0.44999  0.28915  0.50839  Biso   1.000  H
  H6       1.0000 0.43004  0.39412  0.47649  Biso   1.000  H
  C6       1.0000 0.52639  0.34179  0.37167  Biso   1.000  C
  H7       1.0000 0.67905  0.31852  0.37762  Biso   1.000  H
  N1       1.0000 0.67951  0.44337  0.32561  Biso   1.000  N
  H8       1.0000 0.40576  0.25962  0.42140  Biso   1.000  H
  H9       1.0000 0.51803  0.21414  0.42551  Biso   1.000  H
  H10      1.0000 0.53091  0.29939  0.33869  Biso   1.000  H
  H11      1.0000 0.48092  0.40093  0.36690  Biso   1.000  H
  C7       1.0000 0.71174  0.38625  0.27521  Biso   1.000  C
  H12      1.0000 0.63204  0.49130  0.31921  Biso   1.000  H
  H13      1.0000 0.73592  0.47705  0.33300  Biso   1.000  H
  C8       1.0000 0.75650  0.45791  0.22491  Biso   1.000  C
  H14      1.0000 0.65104  0.34858  0.26699  Biso   1.000  H
  H15      1.0000 0.76523  0.33544  0.28128  Biso   1.000  H
  C9       1.0000 0.68264  0.51688  0.20031  Biso   1.000  C
  C10      1.0000 0.86160  0.46546  0.20181  Biso   1.000  C
  C11      1.0000 0.71717  0.58023  0.15528  Biso   1.000  C
  O1       1.0000 0.58165  0.50241  0.22620  Biso   1.000  O
  C12      1.0000 0.89651  0.52706  0.15549  Biso   1.000  C
  O2       1.0000 0.93242  0.40766  0.22391  Biso   1.000  O
  C13      1.0000 0.82533  0.58480  0.13310  Biso   1.000  C
  C14      1.0000 0.63868  0.64489  0.12899  Biso   1.000  C
  H16      1.0000 0.54157  0.52306  0.20501  Biso   1.000  H
  C15      1.0000 0.01269  0.53517  0.13090  Biso   1.000  C
  H17      1.0000 0.92275  0.41471  0.25839  Biso   1.000  H
  H18      1.0000 0.84929  0.62909  0.10169  Biso   1.000  H
  C16      1.0000 0.62058  0.75106  0.15549  Biso   1.000  C
  H19      1.0000 0.57058  0.60776  0.13850  Biso   1.000  H
  C17      1.0000 0.66517  0.65362  0.06630  Biso   1.000  C
  H20      1.0000 0.04567  0.46999  0.14128  Biso   1.000  H
  C18      1.0000 0.03076  0.54327  0.06842  Biso   1.000  C
  C19      1.0000 0.06337  0.62197  0.15661  Biso   1.000  C
  C20      1.0000 0.54471  0.76677  0.20189  Biso   1.000  C
  C21      1.0000 0.68625  0.83279  0.13231  Biso   1.000  C
  H21      1.0000 0.60875  0.68908  0.05209  Biso   1.000  H
  H22      1.0000 0.67366  0.58504  0.05139  Biso   1.000  H
  H23      1.0000 0.73021  0.69234  0.05479  Biso   1.000  H
  H24      1.0000 0.99787  0.60573  0.05650  Biso   1.000  H
  H25      1.0000 0.00037  0.48351  0.05430  Biso   1.000  H
  H26      1.0000 0.10574  0.54589  0.05359  Biso   1.000  H
  C22      1.0000 0.10940  0.60151  0.20181  Biso   1.000  C
  C23      1.0000 0.06725  0.72023  0.13439  Biso   1.000  C
  C24      1.0000 0.53221  0.86062  0.22628  Biso   1.000  C
  O3       1.0000 0.48219  0.68449  0.22308  Biso   1.000  O
  C25      1.0000 0.67379  0.92901  0.15678  Biso   1.000  C
  H27      1.0000 0.73855  0.82329  0.10028  Biso   1.000  H
  C26      1.0000 0.16041  0.67932  0.22711  Biso   1.000  C
  O4       1.0000 0.11248  0.50639  0.22732  Biso   1.000  O
  C27      1.0000 0.11809  0.80112  0.15599  Biso   1.000  C
  H28      1.0000 0.03467  0.73459  0.10340  Biso   1.000  H
  C28      1.0000 0.59944  0.94110  0.20239  Biso   1.000  C
  C29      1.0000 0.44785  0.88028  0.27530  Biso   1.000  C
  H29      1.0000 0.47029  0.68486  0.25789  Biso   1.000  H
  C30      1.0000 0.74754  0.02159  0.13160  Biso   1.000  C
  C31      1.0000 0.16398  0.77635  0.20380  Biso   1.000  C
  C32      1.0000 0.20712  0.64998  0.27351  Biso   1.000  C
  H30      1.0000 0.05832  0.47350  0.22512  Biso   1.000  H
  C33      1.0000 0.11992  0.90837  0.13098  Biso   1.000  C
  O5       1.0000 0.57725  0.03206  0.22890  Biso   1.000  O
  H31      1.0000 0.39812  0.82229  0.28128  Biso   1.000  H
  H32      1.0000 0.40939  0.94292  0.26749  Biso   1.000  H
  N2       1.0000 0.49242  0.89327  0.32698  Biso   1.000  N
  C34      1.0000 0.84430  0.02086  0.15670  Biso   1.000  C
  H33      1.0000 0.70906  0.08571  0.14340  Biso   1.000  H
  C35      1.0000 0.76754  0.02436  0.06759  Biso   1.000  C
  O6       1.0000 0.21045  0.85589  0.22499  Biso   1.000  O
  H34      1.0000 0.25542  0.70478  0.27958  Biso   1.000  H
  H35      1.0000 0.24839  0.58710  0.26491  Biso   1.000  H
  N3       1.0000 0.12752  0.63044  0.32660  Biso   1.000  N
  H36      1.0000 0.18013  0.94298  0.14261  Biso   1.000  H
  C36      1.0000 0.14310  0.91339  0.06879  Biso   1.000  C
  C37      1.0000 0.02261  0.96889  0.15740  Biso   1.000  C
  H37      1.0000 0.63140  0.06839  0.22428  Biso   1.000  H
  C38      1.0000 0.41386  0.91657  0.37641  Biso   1.000  C
  H38      1.0000 0.52598  0.83480  0.33429  Biso   1.000  H
  H39      1.0000 0.54028  0.94464  0.32050  Biso   1.000  H
  C39      1.0000 0.93385  0.96628  0.13509  Biso   1.000  C
  C40      1.0000 0.84624  0.08079  0.20522  Biso   1.000  C
  H40      1.0000 0.81625  0.96992  0.05400  Biso   1.000  H
  H41      1.0000 0.79747  0.09088  0.05330  Biso   1.000  H
  H42      1.0000 0.70168  0.01423  0.05479  Biso   1.000  H
  H43      1.0000 0.18178  0.86326  0.25818  Biso   1.000  H
  C41      1.0000 0.17251  0.59884  0.37708  Biso   1.000  C
  H44      1.0000 0.08960  0.68850  0.33420  Biso   1.000  H
  H45      1.0000 0.08302  0.58061  0.32058  Biso   1.000  H
  H46      1.0000 0.08654  0.88064  0.05459  Biso   1.000  H
  H47      1.0000 0.20872  0.87782  0.05550  Biso   1.000  H
  H48      1.0000 0.14940  0.98512  0.05550  Biso   1.000  H
  C42      1.0000 0.02476  0.02759  0.20360  Biso   1.000  C
  H49      1.0000 0.35308  0.86948  0.37840  Biso   1.000  H
  C43      1.0000 0.45953  0.89875  0.42788  Biso   1.000  C
  C44      1.0000 0.37556  0.02804  0.37251  Biso   1.000  C
  H50      1.0000 0.93334  0.92583  0.10381  Biso   1.000  H
  C45      1.0000 0.93589  0.08399  0.22761  Biso   1.000  C
  O7       1.0000 0.75986  0.13470  0.22541  Biso   1.000  O
  H51      1.0000 0.23325  0.64397  0.37919  Biso   1.000  H
  C46      1.0000 0.09059  0.61017  0.42838  Biso   1.000  C
  C47      1.0000 0.21003  0.48657  0.37051  Biso   1.000  C
  O8       1.0000 0.10890  0.03700  0.22811  Biso   1.000  O
  H52      1.0000 0.52127  0.94324  0.42580  Biso   1.000  H
  H53      1.0000 0.48240  0.82679  0.43000  Biso   1.000  H
  C48      1.0000 0.37928  0.92165  0.48089  Biso   1.000  C
  C49      1.0000 0.29974  0.05233  0.42418  Biso   1.000  C
  H54      1.0000 0.43579  0.07555  0.36769  Biso   1.000  H
  H55      1.0000 0.34160  0.03739  0.33981  Biso   1.000  H
  C50      1.0000 0.94476  0.14844  0.27488  Biso   1.000  C
  H56      1.0000 0.75391  0.13837  0.26001  Biso   1.000  H
  H57      1.0000 0.03004  0.56627  0.42618  Biso   1.000  H
  H58      1.0000 0.06664  0.68206  0.43050  Biso   1.000  H
  C51      1.0000 0.13386  0.57953  0.48159  Biso   1.000  C
  C52      1.0000 0.25421  0.45597  0.42418  Biso   1.000  C
  H59      1.0000 0.26506  0.48106  0.33699  Biso   1.000  H
  H60      1.0000 0.15132  0.44115  0.36698  Biso   1.000  H
  H61      1.0000 0.14803  0.98641  0.22088  Biso   1.000  H
  H62      1.0000 0.31908  0.87453  0.48450  Biso   1.000  H
  H63      1.0000 0.41184  0.91105  0.51408  Biso   1.000  H
  C53      1.0000 0.34354  0.03013  0.47711  Biso   1.000  C
  H64      1.0000 0.23552  0.01138  0.42589  Biso   1.000  H
  H65      1.0000 0.28059  0.12557  0.42240  Biso   1.000  H
  H66      1.0000 0.88700  0.19838  0.28041  Biso   1.000  H
  N4       1.0000 0.94089  0.08213  0.32752  Biso   1.000  N
  H67      1.0000 0.01128  0.18709  0.26662  Biso   1.000  H
  H68      1.0000 0.19075  0.62681  0.48571  Biso   1.000  H
  H69      1.0000 0.07790  0.58453  0.51470  Biso   1.000  H
  C54      1.0000 0.17411  0.47234  0.47769  Biso   1.000  C
  H70      1.0000 0.27497  0.38302  0.42290  Biso   1.000  H
  H71      1.0000 0.31721  0.49722  0.42489  Biso   1.000  H
  H72      1.0000 0.40285  0.07682  0.47761  Biso   1.000  H
  H73      1.0000 0.28913  0.04364  0.50988  Biso   1.000  H
  C55      1.0000 0.95364  0.14009  0.37778  Biso   1.000  C
  H74      1.0000 0.87884  0.04835  0.33499  Biso   1.000  H
  H75      1.0000 0.99214  0.03439  0.32108  Biso   1.000  H
  H76      1.0000 0.11491  0.42468  0.47910  Biso   1.000  H
  H77      1.0000 0.20705  0.45566  0.51030  Biso   1.000  H
  H78      1.0000 0.90698  0.20130  0.37969  Biso   1.000  H
  C56      1.0000 0.91870  0.07375  0.42971  Biso   1.000  C
  C57      1.0000 0.06510  0.17794  0.37238  Biso   1.000  C
  H79      1.0000 0.84535  0.05258  0.43170  Biso   1.000  H
  H80      1.0000 0.96201  0.01123  0.42801  Biso   1.000  H
  C58      1.0000 0.92780  0.12986  0.48039  Biso   1.000  C
  C59      1.0000 0.07368  0.23404  0.42539  Biso   1.000  C
  H81      1.0000 0.08316  0.22493  0.33940  Biso   1.000  H
  H82      1.0000 0.11390  0.11936  0.36781  Biso   1.000  H
  H83      1.0000 0.90762  0.08406  0.51371  Biso   1.000  H
  H84      1.0000 0.87983  0.18896  0.48388  Biso   1.000  H
  C60      1.0000 0.04096  0.16801  0.47711  Biso   1.000  C
  H85      1.0000 0.14668  0.25643  0.42331  Biso   1.000  H
  H86      1.0000 0.02937  0.29583  0.42759  Biso   1.000  H
  H87      1.0000 0.04538  0.20781  0.51018  Biso   1.000  H
  H88      1.0000 0.08848  0.10877  0.47669  Biso   1.000  H
  C61      1.0000 0.41249  0.62725  0.51948  Biso   1.000  C
  C62      1.0000 0.37030  0.56090  0.57157  Biso   1.000  C
  H89      1.0000 0.41615  0.58673  0.48587  Biso   1.000  H
  H90      1.0000 0.36594  0.68633  0.51670  Biso   1.000  H
  C63      1.0000 0.52275  0.66518  0.52409  Biso   1.000  C
  C64      1.0000 0.36677  0.62045  0.62437  Biso   1.000  C
  H91      1.0000 0.41511  0.50002  0.57278  Biso   1.000  H
  H92      1.0000 0.29919  0.53693  0.56979  Biso   1.000  H
  H93      1.0000 0.55014  0.71076  0.49161  Biso   1.000  H
  H94      1.0000 0.57001  0.60572  0.52351  Biso   1.000  H
  C65      1.0000 0.52209  0.72164  0.57619  Biso   1.000  C
  H95      1.0000 0.32109  0.68131  0.62238  Biso   1.000  H
  C66      1.0000 0.47376  0.65812  0.62828  Biso   1.000  C
  N5       1.0000 0.32055  0.55654  0.67439  Biso   1.000  N
  H96      1.0000 0.59437  0.74022  0.57859  Biso   1.000  H
  H97      1.0000 0.48203  0.78577  0.57448  Biso   1.000  H
  H98      1.0000 0.46915  0.70052  0.66130  Biso   1.000  H
  H99      1.0000 0.51914  0.59890  0.63310  Biso   1.000  H
  C67      1.0000 0.28840  0.61358  0.72478  Biso   1.000  C
  H100     1.0000 0.36810  0.50861  0.68079  Biso   1.000  H
  H101     1.0000 0.26414  0.52286  0.66700  Biso   1.000  H
  C68      1.0000 0.24356  0.54200  0.77509  Biso   1.000  C
  H102     1.0000 0.34910  0.65133  0.73301  Biso   1.000  H
  H103     1.0000 0.23485  0.66440  0.71867  Biso   1.000  H
  C69      1.0000 0.31749  0.48303  0.79968  Biso   1.000  C
  C70      1.0000 0.13846  0.53437  0.79819  Biso   1.000  C
  C71      1.0000 0.28290  0.41969  0.84467  Biso   1.000  C
  O9       1.0000 0.41848  0.49750  0.77380  Biso   1.000  O
  C72      1.0000 0.10363  0.47277  0.84450  Biso   1.000  C
  O10      1.0000 0.06772  0.59225  0.77608  Biso   1.000  O
  C73      1.0000 0.17480  0.41511  0.86690  Biso   1.000  C
  C74      1.0000 0.36145  0.35502  0.87101  Biso   1.000  C
  H104     1.0000 0.45849  0.47678  0.79499  Biso   1.000  H
  C75      1.0000 0.98744  0.46467  0.86910  Biso   1.000  C
  H105     1.0000 0.07738  0.58520  0.74161  Biso   1.000  H
  H106     1.0000 0.15085  0.37082  0.89830  Biso   1.000  H
  C76      1.0000 0.37956  0.24877  0.84450  Biso   1.000  C
  H107     1.0000 0.42948  0.39207  0.86149  Biso   1.000  H
  C77      1.0000 0.33497  0.34629  0.93369  Biso   1.000  C
  H108     1.0000 0.95441  0.52993  0.85867  Biso   1.000  H
  C78      1.0000 0.96938  0.45656  0.93158  Biso   1.000  C
  C79      1.0000 0.93676  0.37787  0.84338  Biso   1.000  C
  C80      1.0000 0.45542  0.23306  0.79810  Biso   1.000  C
  C81      1.0000 0.31381  0.16712  0.86768  Biso   1.000  C
  H109     1.0000 0.39131  0.31075  0.94790  Biso   1.000  H
  H110     1.0000 0.32641  0.41487  0.94857  Biso   1.000  H
  H111     1.0000 0.26993  0.30757  0.94520  Biso   1.000  H
  H112     1.0000 0.00219  0.39418  0.94350  Biso   1.000  H
  H113     1.0000 0.99977  0.51640  0.94570  Biso   1.000  H
  H114     1.0000 0.89432  0.45402  0.94641  Biso   1.000  H
  C82      1.0000 0.89074  0.39840  0.79819  Biso   1.000  C
  C83      1.0000 0.93281  0.27968  0.86561  Biso   1.000  C
  C84      1.0000 0.46794  0.13929  0.77368  Biso   1.000  C
  O11      1.0000 0.51796  0.31543  0.77687  Biso   1.000  O
  C85      1.0000 0.32636  0.07090  0.84317  Biso   1.000  C
  H115     1.0000 0.26152  0.17655  0.89967  Biso   1.000  H
  C86      1.0000 0.83972  0.32059  0.77289  Biso   1.000  C
  O12      1.0000 0.88765  0.49352  0.77268  Biso   1.000  O
  C87      1.0000 0.88205  0.19879  0.84401  Biso   1.000  C
  H116     1.0000 0.96547  0.26532  0.89660  Biso   1.000  H
  C88      1.0000 0.40062  0.05881  0.79760  Biso   1.000  C
  C89      1.0000 0.55221  0.11962  0.72470  Biso   1.000  C
  H117     1.0000 0.52977  0.31498  0.74210  Biso   1.000  H
  C90      1.0000 0.25252  0.97832  0.86839  Biso   1.000  C
  C91      1.0000 0.83615  0.22348  0.79619  Biso   1.000  C
  C92      1.0000 0.79301  0.34993  0.72648  Biso   1.000  C
  H118     1.0000 0.94182  0.52641  0.77488  Biso   1.000  H
  C93      1.0000 0.88016  0.09147  0.86897  Biso   1.000  C
  O13      1.0000 0.42281  0.96778  0.77110  Biso   1.000  O
  H119     1.0000 0.60203  0.17762  0.71867  Biso   1.000  H
  H120     1.0000 0.59074  0.05699  0.73251  Biso   1.000  H
  N6       1.0000 0.50773  0.10665  0.67298  Biso   1.000  N
  C94      1.0000 0.15584  0.97897  0.84330  Biso   1.000  C
  H121     1.0000 0.29108  0.91420  0.85659  Biso   1.000  H
  C95      1.0000 0.23252  0.97547  0.93241  Biso   1.000  C
  O14      1.0000 0.78961  0.14402  0.77500  Biso   1.000  O
  H122     1.0000 0.74473  0.29513  0.72038  Biso   1.000  H
  H123     1.0000 0.75175  0.41281  0.73508  Biso   1.000  H
  N7       1.0000 0.87262  0.36939  0.67339  Biso   1.000  N
  H124     1.0000 0.81993  0.05685  0.85738  Biso   1.000  H
  C96      1.0000 0.85696  0.08644  0.93120  Biso   1.000  C
  C97      1.0000 0.97745  0.03102  0.84259  Biso   1.000  C
  H125     1.0000 0.36875  0.93152  0.77567  Biso   1.000  H
  C98      1.0000 0.58619  0.08334  0.62358  Biso   1.000  C
  H126     1.0000 0.47408  0.16511  0.66571  Biso   1.000  H
  H127     1.0000 0.45978  0.05519  0.67950  Biso   1.000  H
  C99      1.0000 0.06620  0.03355  0.86490  Biso   1.000  C
  C100     1.0000 0.15382  0.91912  0.79478  Biso   1.000  C
  H128     1.0000 0.18388  0.02999  0.94599  Biso   1.000  H
  H129     1.0000 0.20266  0.90895  0.94670  Biso   1.000  H
  H130     1.0000 0.29846  0.98568  0.94520  Biso   1.000  H
  H131     1.0000 0.81837  0.13658  0.74177  Biso   1.000  H
  C101     1.0000 0.82756  0.40099  0.62288  Biso   1.000  C
  H132     1.0000 0.91053  0.31141  0.66579  Biso   1.000  H
  H133     1.0000 0.91713  0.41930  0.67938  Biso   1.000  H
  H134     1.0000 0.91361  0.11928  0.94537  Biso   1.000  H
  H135     1.0000 0.79134  0.12209  0.94450  Biso   1.000  H
  H136     1.0000 0.85066  0.01479  0.94450  Biso   1.000  H
  C102     1.0000 0.97538  0.97232  0.79640  Biso   1.000  C
  H137     1.0000 0.64698  0.13043  0.62159  Biso   1.000  H
  C103     1.0000 0.54062  0.10109  0.57207  Biso   1.000  C
  C104     1.0000 0.62450  0.97180  0.62749  Biso   1.000  C
  H138     1.0000 0.06672  0.07408  0.89618  Biso   1.000  H
  C105     1.0000 0.06425  0.91591  0.77239  Biso   1.000  C
  O15      1.0000 0.24020  0.86521  0.77459  Biso   1.000  O
  H139     1.0000 0.76689  0.35594  0.62080  Biso   1.000  H
  C106     1.0000 0.90948  0.38975  0.57157  Biso   1.000  C
  C107     1.0000 0.79011  0.51334  0.62948  Biso   1.000  C
  O16      1.0000 0.89124  0.96291  0.77189  Biso   1.000  O
  H140     1.0000 0.47879  0.05659  0.57419  Biso   1.000  H
  H141     1.0000 0.51766  0.17312  0.57000  Biso   1.000  H
  C108     1.0000 0.62078  0.07826  0.51911  Biso   1.000  C
  C109     1.0000 0.70039  0.94758  0.57581  Biso   1.000  C
  H142     1.0000 0.56434  0.92436  0.63231  Biso   1.000  H
  H143     1.0000 0.65854  0.96252  0.66018  Biso   1.000  H
  C110     1.0000 0.05532  0.85140  0.72507  Biso   1.000  C
  H144     1.0000 0.24623  0.86154  0.73998  Biso   1.000  H
  H145     1.0000 0.97011  0.43365  0.57378  Biso   1.000  H
  H146     1.0000 0.93350  0.31785  0.56950  Biso   1.000  H
  C111     1.0000 0.86627  0.42031  0.51840  Biso   1.000  C
  C112     1.0000 0.74585  0.54394  0.57581  Biso   1.000  C
  H147     1.0000 0.73508  0.51885  0.66301  Biso   1.000  H
  H148     1.0000 0.84876  0.55876  0.63297  Biso   1.000  H
  H149     1.0000 0.85204  0.01350  0.77908  Biso   1.000  H
  H150     1.0000 0.68098  0.12531  0.51549  Biso   1.000  H
  H151     1.0000 0.58830  0.08887  0.48587  Biso   1.000  H
  C113     1.0000 0.65659  0.96978  0.52289  Biso   1.000  C
  H152     1.0000 0.76462  0.98853  0.57411  Biso   1.000  H
  H153     1.0000 0.71955  0.87434  0.57760  Biso   1.000  H
  H154     1.0000 0.98886  0.81282  0.73338  Biso   1.000  H
  H155     1.0000 0.11314  0.80153  0.71959  Biso   1.000  H
  N8       1.0000 0.05925  0.91771  0.67248  Biso   1.000  N
  H156     1.0000 0.80938  0.37302  0.51429  Biso   1.000  H
  H157     1.0000 0.92215  0.41531  0.48529  Biso   1.000  H
  C114     1.0000 0.82595  0.52757  0.52231  Biso   1.000  C
  H158     1.0000 0.72517  0.61681  0.57710  Biso   1.000  H
  H159     1.0000 0.68285  0.50261  0.57511  Biso   1.000  H
  H160     1.0000 0.59729  0.92301  0.52239  Biso   1.000  H
  H161     1.0000 0.71101  0.95627  0.49011  Biso   1.000  H
  C115     1.0000 0.04651  0.85982  0.62217  Biso   1.000  C
  H162     1.0000 0.12130  0.95156  0.66500  Biso   1.000  H
  H163     1.0000 0.00801  0.96553  0.67888  Biso   1.000  H
  H164     1.0000 0.88515  0.57523  0.52089  Biso   1.000  H
  H165     1.0000 0.79308  0.54425  0.48970  Biso   1.000  H
  C116     1.0000 0.93505  0.82190  0.62757  Biso   1.000  C
  H166     1.0000 0.09308  0.79861  0.62030  Biso   1.000  H
  C117     1.0000 0.08135  0.92616  0.57029  Biso   1.000  C
  C118     1.0000 0.92645  0.76580  0.57461  Biso   1.000  C
  H167     1.0000 0.91697  0.77490  0.66060  Biso   1.000  H
  H168     1.0000 0.88623  0.88055  0.63218  Biso   1.000  H
  H169     1.0000 0.15478  0.94733  0.56829  Biso   1.000  H
  H170     1.0000 0.03805  0.98868  0.57199  Biso   1.000  H
  C119     1.0000 0.07226  0.87005  0.51961  Biso   1.000  C
  C120     1.0000 0.95909  0.83182  0.52289  Biso   1.000  C
  H171     1.0000 0.85346  0.74340  0.57668  Biso   1.000  H
  H172     1.0000 0.97077  0.70400  0.57241  Biso   1.000  H
  H173     1.0000 0.09252  0.91585  0.48629  Biso   1.000  H
  H174     1.0000 0.12032  0.81095  0.51607  Biso   1.000  H
  H175     1.0000 0.95469  0.79202  0.48978  Biso   1.000  H
  H176     1.0000 0.91158  0.89114  0.52330  Biso   1.000  H
