data_image0
_cell_length_a       16.799
_cell_length_b       20.013
_cell_length_c       24.328
_cell_angle_alpha    90.05
_cell_angle_beta     92.14
_cell_angle_gamma    97.41

_symmetry_space_group_name_H-M    "P 1"
_symmetry_int_tables_number       1

loop_
  _symmetry_equiv_pos_as_xyz
  'x, y, z'

loop_
  _atom_site_label
  _atom_site_occupancy
  _atom_site_fract_x
  _atom_site_fract_y
  _atom_site_fract_z
  _atom_site_thermal_displace_type
  _atom_site_B_iso_or_equiv
  _atom_site_type_symbol
  I1       1.0000 0.60663  0.53500  0.47000  Biso   1.000  I
  C1       1.0000 0.61045  0.44664  0.50879  Biso   1.000  C
  C2       1.0000 0.60835  0.39304  0.53191  Biso   1.000  C
  C3       1.0000 0.60263  0.32995  0.56029  Biso   1.000  C
  C4       1.0000 0.58472  0.27008  0.53022  Biso   1.000  C
  C5       1.0000 0.61994  0.32647  0.61611  Biso   1.000  C
  C6       1.0000 0.58123  0.20803  0.55609  Biso   1.000  C
  O1       1.0000 0.57316  0.27275  0.47280  Biso   1.000  O
  C7       1.0000 0.61843  0.26574  0.64309  Biso   1.000  C
  O2       1.0000 0.64475  0.38623  0.64540  Biso   1.000  O
  C8       1.0000 0.56527  0.14145  0.52393  Biso   1.000  C
  C9       1.0000 0.59806  0.20717  0.61220  Biso   1.000  C
  C10      1.0000 0.49704  0.29005  0.45371  Biso   1.000  C
  C11      1.0000 0.64101  0.26274  0.70471  Biso   1.000  C
  C12      1.0000 0.58184  0.42457  0.65881  Biso   1.000  C
  C13      1.0000 0.47863  0.10926  0.53331  Biso   1.000  C
  H1       1.0000 0.56854  0.15275  0.48390  Biso   1.000  H
  C14      1.0000 0.62663  0.09614  0.53672  Biso   1.000  C
  H2       1.0000 0.59552  0.16487  0.63030  Biso   1.000  H
  C15      1.0000 0.42815  0.24707  0.47531  Biso   1.000  C
  H3       1.0000 0.49374  0.28714  0.41299  Biso   1.000  H
  H4       1.0000 0.49356  0.33734  0.46420  Biso   1.000  H
  H5       1.0000 0.66491  0.30903  0.71681  Biso   1.000  H
  C16      1.0000 0.70461  0.21436  0.71722  Biso   1.000  C
  C17      1.0000 0.56664  0.24282  0.73783  Biso   1.000  C
  H6       1.0000 0.55822  0.44136  0.62450  Biso   1.000  H
  H7       1.0000 0.60479  0.46413  0.68131  Biso   1.000  H
  C18      1.0000 0.51592  0.38433  0.69011  Biso   1.000  C
  C19      1.0000 0.41403  0.13096  0.50229  Biso   1.000  C
  C20      1.0000 0.46045  0.05915  0.57279  Biso   1.000  C
  H8       1.0000 0.61074  0.05257  0.51751  Biso   1.000  H
  H9       1.0000 0.62796  0.08725  0.57670  Biso   1.000  H
  C21      1.0000 0.71112  0.12514  0.51969  Biso   1.000  C
  O3       1.0000 0.43156  0.17829  0.46070  Biso   1.000  O
  H10      1.0000 0.42867  0.25164  0.51591  Biso   1.000  H
  H11      1.0000 0.37763  0.26148  0.46009  Biso   1.000  H
  H12      1.0000 0.71461  0.21252  0.75753  Biso   1.000  H
  H13      1.0000 0.68253  0.16846  0.70451  Biso   1.000  H
  C22      1.0000 0.78353  0.23452  0.69040  Biso   1.000  C
  C23      1.0000 0.53880  0.17772  0.75251  Biso   1.000  C
  C24      1.0000 0.52315  0.29493  0.75313  Biso   1.000  C
  O4       1.0000 0.54935  0.36055  0.74083  Biso   1.000  O
  H14      1.0000 0.47384  0.41295  0.69813  Biso   1.000  H
  H15      1.0000 0.49104  0.34547  0.66740  Biso   1.000  H
  C25      1.0000 0.33826  0.10457  0.51130  Biso   1.000  C
  C26      1.0000 0.38226  0.03044  0.58131  Biso   1.000  C
  H16      1.0000 0.50293  0.04444  0.59451  Biso   1.000  H
  H17      1.0000 0.71245  0.12486  0.47909  Biso   1.000  H
  H18      1.0000 0.72202  0.17274  0.53211  Biso   1.000  H
  C27      1.0000 0.77802  0.08706  0.54301  Biso   1.000  C
  H19      1.0000 0.80522  0.28087  0.70233  Biso   1.000  H
  H20      1.0000 0.77404  0.23505  0.65000  Biso   1.000  H
  C28      1.0000 0.84542  0.18766  0.70430  Biso   1.000  C
  C29      1.0000 0.47084  0.16203  0.78529  Biso   1.000  C
  H21      1.0000 0.56625  0.14216  0.74029  Biso   1.000  H
  C30      1.0000 0.45215  0.28073  0.78390  Biso   1.000  C
  C31      1.0000 0.27264  0.12986  0.48102  Biso   1.000  C
  C32      1.0000 0.31994  0.05456  0.55029  Biso   1.000  C
  C33      1.0000 0.36168  0.97283  0.62191  Biso   1.000  C
  H22      1.0000 0.78055  0.09077  0.58361  Biso   1.000  H
  H23      1.0000 0.76554  0.03877  0.53310  Biso   1.000  H
  C34      1.0000 0.85606  0.11347  0.52191  Biso   1.000  C
  H24      1.0000 0.84944  0.18407  0.74490  Biso   1.000  H
  H25      1.0000 0.82393  0.14236  0.68990  Biso   1.000  H
  C35      1.0000 0.92642  0.20365  0.68501  Biso   1.000  C
  C36      1.0000 0.44334  0.09015  0.80352  Biso   1.000  C
  C37      1.0000 0.42982  0.21444  0.80043  Biso   1.000  C
  C38      1.0000 0.40711  0.33302  0.79632  Biso   1.000  C
  C39      1.0000 0.22916  0.15466  0.45400  Biso   1.000  C
  O5       1.0000 0.24106  0.02598  0.55651  Biso   1.000  O
  C40      1.0000 0.33777  0.00083  0.67703  Biso   1.000  C
  H26      1.0000 0.31367  0.94334  0.60611  Biso   1.000  H
  C41      1.0000 0.42820  0.92995  0.62981  Biso   1.000  C
  H27      1.0000 0.86995  0.16077  0.53429  Biso   1.000  H
  H28      1.0000 0.85176  0.11338  0.48119  Biso   1.000  H
  C42      1.0000 0.92475  0.07323  0.54030  Biso   1.000  C
  H29      1.0000 0.94753  0.25014  0.69669  Biso   1.000  H
  H30      1.0000 0.92423  0.20256  0.64433  Biso   1.000  H
  C43      1.0000 0.98501  0.15563  0.70619  Biso   1.000  C
  C44      1.0000 0.37715  0.05682  0.76403  Biso   1.000  C
  H31      1.0000 0.41884  0.09333  0.84013  Biso   1.000  H
  C45      1.0000 0.50931  0.04536  0.81113  Biso   1.000  C
  O6       1.0000 0.36432  0.20192  0.83330  Biso   1.000  O
  C46      1.0000 0.36611  0.37626  0.80380  Biso   1.000  C
  I2       1.0000 0.16088  0.20644  0.40155  Biso   1.000  I
  C47      1.0000 0.19863  0.05543  0.59530  Biso   1.000  C
  C48      1.0000 0.39455  0.03394  0.71372  Biso   1.000  C
  C49      1.0000 0.25872  0.99182  0.69270  Biso   1.000  C
  H32      1.0000 0.47319  0.95515  0.65161  Biso   1.000  H
  H33      1.0000 0.44819  0.91902  0.59353  Biso   1.000  H
  C50      1.0000 0.39771  0.86386  0.65992  Biso   1.000  C
  H34      1.0000 0.93136  0.07564  0.58090  Biso   1.000  H
  H35      1.0000 0.90956  0.02534  0.52981  Biso   1.000  H
  C51      1.0000 0.00503  0.09896  0.51529  Biso   1.000  C
  H36      1.0000 0.98830  0.15803  0.74692  Biso   1.000  H
  H37      1.0000 0.96252  0.10904  0.69570  Biso   1.000  H
  C52      1.0000 0.06406  0.16864  0.68670  Biso   1.000  C
  C53      1.0000 0.29634  0.04744  0.77801  Biso   1.000  C
  H38      1.0000 0.53446  0.04113  0.77530  Biso   1.000  H
  C54      1.0000 0.57302  0.06883  0.85263  Biso   1.000  C
  H39      1.0000 0.48435  0.99973  0.82149  Biso   1.000  H
  C55      1.0000 0.28771  0.18726  0.80463  Biso   1.000  C
  I3       1.0000 0.30044  0.45033  0.81763  Biso   1.000  I
  C56      1.0000 0.14854  0.00075  0.63001  Biso   1.000  C
  H40      1.0000 0.16228  0.08417  0.57670  Biso   1.000  H
  H41      1.0000 0.23654  0.08463  0.62002  Biso   1.000  H
  H42      1.0000 0.44883  0.04107  0.70319  Biso   1.000  H
  O7       1.0000 0.20037  0.95712  0.65901  Biso   1.000  O
  C57      1.0000 0.23537  0.01455  0.74350  Biso   1.000  C
  H43      1.0000 0.35919  0.83531  0.63520  Biso   1.000  H
  H44      1.0000 0.36891  0.87482  0.69282  Biso   1.000  H
  C58      1.0000 0.46742  0.82342  0.67802  Biso   1.000  C
  H45      1.0000 0.99562  0.11305  0.47732  Biso   1.000  H
  H46      1.0000 0.03926  0.06278  0.51570  Biso   1.000  H
  H47      1.0000 0.03169  0.13736  0.53693  Biso   1.000  H
  H48      1.0000 0.06144  0.17345  0.64659  Biso   1.000  H
  H49      1.0000 0.09376  0.13107  0.69653  Biso   1.000  H
  H50      1.0000 0.09142  0.21023  0.70352  Biso   1.000  H
  O8       1.0000 0.27652  0.06782  0.83021  Biso   1.000  O
  H51      1.0000 0.54740  0.07563  0.88792  Biso   1.000  H
  H52      1.0000 0.59994  0.11324  0.84103  Biso   1.000  H
  C59      1.0000 0.63695  0.02254  0.86291  Biso   1.000  C
  C60      1.0000 0.23796  0.12854  0.83071  Biso   1.000  C
  H53      1.0000 0.29585  0.17645  0.76559  Biso   1.000  H
  H54      1.0000 0.25891  0.22732  0.80541  Biso   1.000  H
  H55      1.0000 0.11818  0.02296  0.65720  Biso   1.000  H
  H56      1.0000 0.10933  0.97271  0.60541  Biso   1.000  H
  C61      1.0000 0.15481  0.99854  0.75991  Biso   1.000  C
  H57      1.0000 0.44459  0.77672  0.68682  Biso   1.000  H
  H58      1.0000 0.50328  0.82134  0.64692  Biso   1.000  H
  C62      1.0000 0.51678  0.85400  0.72783  Biso   1.000  C
  H59      1.0000 0.65786  0.00915  0.82762  Biso   1.000  H
  C63      1.0000 0.70660  0.06271  0.89973  Biso   1.000  C
  H60      1.0000 0.61390  0.98121  0.88212  Biso   1.000  H
  H61      1.0000 0.22834  0.14035  0.86921  Biso   1.000  H
  H62      1.0000 0.18512  0.11983  0.81080  Biso   1.000  H
  C64      1.0000 0.08899  0.97993  0.77139  Biso   1.000  C
  H63      1.0000 0.54181  0.90004  0.71862  Biso   1.000  H
  H64      1.0000 0.48082  0.85785  0.75860  Biso   1.000  H
  C65      1.0000 0.58038  0.81281  0.74523  Biso   1.000  C
  H65      1.0000 0.71304  0.11091  0.88961  Biso   1.000  H
  H66      1.0000 0.69323  0.05911  0.93901  Biso   1.000  H
  C66      1.0000 0.78462  0.03322  0.89072  Biso   1.000  C
  I4       1.0000 0.97643  0.93591  0.78867  Biso   1.000  I
  H67      1.0000 0.61841  0.80963  0.71553  Biso   1.000  H
  H68      1.0000 0.55692  0.76693  0.75551  Biso   1.000  H
  C67      1.0000 0.62087  0.85034  0.79401  Biso   1.000  C
  H69      1.0000 0.83073  0.06923  0.89471  Biso   1.000  H
  H70      1.0000 0.78370  0.01451  0.85300  Biso   1.000  H
  C68      1.0000 0.79384  0.97718  0.93301  Biso   1.000  C
  H71      1.0000 0.67746  0.84174  0.79710  Biso   1.000  H
  H72      1.0000 0.59398  0.83480  0.82750  Biso   1.000  H
  H73      1.0000 0.61937  0.89873  0.78941  Biso   1.000  H
  H74      1.0000 0.78314  0.99301  0.96982  Biso   1.000  H
  H75      1.0000 0.84917  0.96580  0.93293  Biso   1.000  H
  H76      1.0000 0.75614  0.93711  0.92330  Biso   1.000  H
  I5       1.0000 0.39321  0.46493  0.53002  Biso   1.000  I
  C69      1.0000 0.38944  0.55324  0.49123  Biso   1.000  C
  C70      1.0000 0.39154  0.60684  0.46811  Biso   1.000  C
  C71      1.0000 0.39721  0.66998  0.43973  Biso   1.000  C
  C72      1.0000 0.37990  0.67347  0.38391  Biso   1.000  C
  C73      1.0000 0.41512  0.72985  0.46979  Biso   1.000  C
  O9       1.0000 0.35514  0.61365  0.35462  Biso   1.000  O
  C74      1.0000 0.38140  0.73415  0.35692  Biso   1.000  C
  C75      1.0000 0.41860  0.79185  0.44392  Biso   1.000  C
  O10      1.0000 0.42673  0.72713  0.52722  Biso   1.000  O
  C76      1.0000 0.41806  0.57537  0.34121  Biso   1.000  C
  C77      1.0000 0.40184  0.79277  0.38781  Biso   1.000  C
  C78      1.0000 0.35882  0.73714  0.29530  Biso   1.000  C
  C79      1.0000 0.43462  0.85844  0.47609  Biso   1.000  C
  C80      1.0000 0.50279  0.70983  0.54630  Biso   1.000  C
  H77      1.0000 0.44162  0.55858  0.37551  Biso   1.000  H
  H78      1.0000 0.39504  0.53575  0.31871  Biso   1.000  H
  C81      1.0000 0.48392  0.61556  0.30991  Biso   1.000  C
  H79      1.0000 0.40432  0.83507  0.36971  Biso   1.000  H
  C82      1.0000 0.43325  0.75706  0.26219  Biso   1.000  C
  H80      1.0000 0.33492  0.69085  0.28321  Biso   1.000  H
  C83      1.0000 0.29523  0.78558  0.28280  Biso   1.000  C
  C84      1.0000 0.52121  0.89067  0.46671  Biso   1.000  C
  H81      1.0000 0.43130  0.84713  0.51611  Biso   1.000  H
  C85      1.0000 0.37321  0.90375  0.46330  Biso   1.000  C
  C86      1.0000 0.57169  0.75286  0.52471  Biso   1.000  C
  H82      1.0000 0.50610  0.71274  0.58703  Biso   1.000  H
  H83      1.0000 0.50633  0.66254  0.53581  Biso   1.000  H
  O11      1.0000 0.45055  0.63939  0.25919  Biso   1.000  O
  H84      1.0000 0.52606  0.58698  0.30188  Biso   1.000  H
  H85      1.0000 0.50886  0.65446  0.33261  Biso   1.000  H
  C87      1.0000 0.47674  0.70496  0.24689  Biso   1.000  C
  C88      1.0000 0.46103  0.82216  0.24750  Biso   1.000  C
  H86      1.0000 0.28523  0.78736  0.24249  Biso   1.000  H
  H87      1.0000 0.31731  0.83147  0.29551  Biso   1.000  H
  C89      1.0000 0.21630  0.76536  0.30962  Biso   1.000  C
  C90      1.0000 0.53939  0.94073  0.42722  Biso   1.000  C
  C91      1.0000 0.58581  0.86897  0.49772  Biso   1.000  C
  H88      1.0000 0.38910  0.94737  0.48250  Biso   1.000  H
  H89      1.0000 0.37193  0.91264  0.42331  Biso   1.000  H
  C92      1.0000 0.28871  0.87474  0.48032  Biso   1.000  C
  O12      1.0000 0.56829  0.82165  0.53931  Biso   1.000  O
  H90      1.0000 0.57123  0.74824  0.48411  Biso   1.000  H
  H91      1.0000 0.62221  0.73846  0.53993  Biso   1.000  H
  C93      1.0000 0.54774  0.71915  0.21612  Biso   1.000  C
  H92      1.0000 0.43365  0.85777  0.25972  Biso   1.000  H
  C94      1.0000 0.52906  0.83786  0.21472  Biso   1.000  C
  H93      1.0000 0.19462  0.71907  0.29769  Biso   1.000  H
  H94      1.0000 0.22586  0.76489  0.35001  Biso   1.000  H
  C95      1.0000 0.15442  0.81227  0.29571  Biso   1.000  C
  C96      1.0000 0.61763  0.96944  0.41871  Biso   1.000  C
  H95      1.0000 0.49690  0.95544  0.40550  Biso   1.000  H
  C97      1.0000 0.66158  0.89536  0.48872  Biso   1.000  C
  H96      1.0000 0.28738  0.87503  0.52092  Biso   1.000  H
  H97      1.0000 0.27781  0.82714  0.46790  Biso   1.000  H
  C98      1.0000 0.22182  0.91287  0.45700  Biso   1.000  C
  C99      1.0000 0.57002  0.78550  0.19958  Biso   1.000  C
  C100     1.0000 0.59273  0.66686  0.20370  Biso   1.000  C
  C101     1.0000 0.55650  0.90978  0.19650  Biso   1.000  C
  H98      1.0000 0.15046  0.81587  0.25511  Biso   1.000  H
  H99      1.0000 0.17591  0.85757  0.31011  Biso   1.000  H
  C102     1.0000 0.07342  0.79628  0.31501  Biso   1.000  C
  C103     1.0000 0.67990  0.94537  0.44972  Biso   1.000  C
  C104     1.0000 0.63816  0.02710  0.37811  Biso   1.000  C
  C105     1.0000 0.72719  0.87003  0.51899  Biso   1.000  C
  H100     1.0000 0.21929  0.90916  0.41640  Biso   1.000  H
  H101     1.0000 0.23430  0.96117  0.46692  Biso   1.000  H
  C106     1.0000 0.14384  0.88647  0.47810  Biso   1.000  C
  O13      1.0000 0.63552  0.79796  0.16672  Biso   1.000  O
  C107     1.0000 0.63373  0.62368  0.19621  Biso   1.000  C
  C108     1.0000 0.62274  0.94306  0.23599  Biso   1.000  C
  H102     1.0000 0.58099  0.90655  0.15989  Biso   1.000  H
  C109     1.0000 0.49053  0.95457  0.18889  Biso   1.000  C
  H103     1.0000 0.05231  0.74974  0.30332  Biso   1.000  H
  H104     1.0000 0.07561  0.79738  0.35569  Biso   1.000  H
  C110     1.0000 0.01482  0.84426  0.29382  Biso   1.000  C
  O14      1.0000 0.75878  0.97395  0.44351  Biso   1.000  O
  C111     1.0000 0.66212  0.99905  0.32299  Biso   1.000  C
  H105     1.0000 0.68617  0.05659  0.39390  Biso   1.000  H
  C112     1.0000 0.57164  0.06998  0.37021  Biso   1.000  C
  C113     1.0000 0.77068  0.84522  0.54602  Biso   1.000  C
  H106     1.0000 0.12995  0.83917  0.46572  Biso   1.000  H
  H107     1.0000 0.14814  0.88655  0.51883  Biso   1.000  H
  C114     1.0000 0.07514  0.92665  0.45972  Biso   1.000  C
  C115     1.0000 0.71213  0.81268  0.19539  Biso   1.000  C
  I6       1.0000 0.69940  0.54961  0.18239  Biso   1.000  I
  C116     1.0000 0.70350  0.95249  0.22200  Biso   1.000  C
  C117     1.0000 0.60529  0.96594  0.28629  Biso   1.000  C
  H108     1.0000 0.46543  0.95876  0.22472  Biso   1.000  H
  C118     1.0000 0.42681  0.93105  0.14738  Biso   1.000  C
  H109     1.0000 0.51549  0.00020  0.17852  Biso   1.000  H
  H110     1.0000 0.01154  0.84185  0.25310  Biso   1.000  H
  H111     1.0000 0.03731  0.89084  0.30431  Biso   1.000  H
  C119     1.0000 0.93584  0.83124  0.31332  Biso   1.000  C
  C120     1.0000 0.80120  0.94445  0.40472  Biso   1.000  C
  C121     1.0000 0.74118  0.00806  0.30731  Biso   1.000  C
  H112     1.0000 0.52665  0.04478  0.34841  Biso   1.000  H
  H113     1.0000 0.55164  0.08087  0.40649  Biso   1.000  H
  C122     1.0000 0.60219  0.13608  0.34010  Biso   1.000  C
  I7       1.0000 0.83895  0.79344  0.59846  Biso   1.000  I
  H114     1.0000 0.06853  0.92425  0.41912  Biso   1.000  H
  H115     1.0000 0.09033  0.97454  0.47021  Biso   1.000  H
  C123     1.0000 0.99480  0.90093  0.48473  Biso   1.000  C
  H116     1.0000 0.70405  0.82348  0.23438  Biso   1.000  H
  H117     1.0000 0.74093  0.77256  0.19461  Biso   1.000  H
  C124     1.0000 0.76195  0.87140  0.16931  Biso   1.000  C
  O15      1.0000 0.72332  0.93207  0.16980  Biso   1.000  O
  C125     1.0000 0.76453  0.98538  0.25651  Biso   1.000  C
  H118     1.0000 0.55102  0.95886  0.29682  Biso   1.000  H
  H119     1.0000 0.45243  0.92426  0.11209  Biso   1.000  H
  H120     1.0000 0.39991  0.88669  0.15898  Biso   1.000  H
  C126     1.0000 0.36295  0.97739  0.13710  Biso   1.000  C
  H121     1.0000 0.93841  0.82649  0.35343  Biso   1.000  H
  H122     1.0000 0.90614  0.86886  0.30349  Biso   1.000  H
  H123     1.0000 0.90842  0.78965  0.29650  Biso   1.000  H
  C127     1.0000 0.85130  0.99913  0.37000  Biso   1.000  C
  H124     1.0000 0.83762  0.91576  0.42331  Biso   1.000  H
  H125     1.0000 0.76329  0.91526  0.38000  Biso   1.000  H
  O16      1.0000 0.79946  0.04277  0.34100  Biso   1.000  O
  H126     1.0000 0.64065  0.16457  0.36482  Biso   1.000  H
  H127     1.0000 0.63098  0.12506  0.30719  Biso   1.000  H
  C128     1.0000 0.53247  0.17646  0.32200  Biso   1.000  C
  H128     1.0000 0.00421  0.88683  0.52269  Biso   1.000  H
  H129     1.0000 0.96058  0.93715  0.48431  Biso   1.000  H
  H130     1.0000 0.96821  0.86253  0.46309  Biso   1.000  H
  H131     1.0000 0.77150  0.85959  0.13081  Biso   1.000  H
  H132     1.0000 0.81471  0.88005  0.18922  Biso   1.000  H
  C129     1.0000 0.84510  0.00139  0.24010  Biso   1.000  C
  H133     1.0000 0.34204  0.99079  0.17239  Biso   1.000  H
  C130     1.0000 0.29323  0.93717  0.10029  Biso   1.000  C
  H134     1.0000 0.38600  0.01867  0.11789  Biso   1.000  H
  H135     1.0000 0.88172  0.97697  0.34281  Biso   1.000  H
  H136     1.0000 0.89057  0.02717  0.39460  Biso   1.000  H
  H137     1.0000 0.55525  0.22316  0.31320  Biso   1.000  H
  H138     1.0000 0.49656  0.17860  0.35310  Biso   1.000  H
  C131     1.0000 0.48305  0.14588  0.27219  Biso   1.000  C
  C132     1.0000 0.91085  0.02001  0.22858  Biso   1.000  C
  H139     1.0000 0.28685  0.88897  0.11040  Biso   1.000  H
  H140     1.0000 0.30666  0.94078  0.06100  Biso   1.000  H
  C133     1.0000 0.21521  0.96666  0.10929  Biso   1.000  C
  H141     1.0000 0.45809  0.09989  0.28140  Biso   1.000  H
  H142     1.0000 0.51908  0.14209  0.24142  Biso   1.000  H
  C134     1.0000 0.41945  0.18708  0.25479  Biso   1.000  C
  I8       1.0000 0.02341  0.06402  0.21135  Biso   1.000  I
  H143     1.0000 0.16916  0.93066  0.10530  Biso   1.000  H
  H144     1.0000 0.21613  0.98537  0.14701  Biso   1.000  H
  C135     1.0000 0.20600  0.02270  0.06701  Biso   1.000  C
  H145     1.0000 0.38148  0.19026  0.28448  Biso   1.000  H
  H146     1.0000 0.44298  0.23301  0.24450  Biso   1.000  H
  C136     1.0000 0.37897  0.14960  0.20600  Biso   1.000  C
  H147     1.0000 0.21670  0.00692  0.03019  Biso   1.000  H
  H148     1.0000 0.15072  0.03409  0.06709  Biso   1.000  H
  H149     1.0000 0.24369  0.06278  0.07672  Biso   1.000  H
  H150     1.0000 0.32238  0.15819  0.20292  Biso   1.000  H
  H151     1.0000 0.40585  0.16508  0.17252  Biso   1.000  H
  H152     1.0000 0.38047  0.10121  0.21061  Biso   1.000  H
  I9       1.0000 0.68136  0.60610  0.62059  Biso   1.000  I
  C137     1.0000 0.58939  0.62483  0.66872  Biso   1.000  C
  C138     1.0000 0.53849  0.62802  0.69920  Biso   1.000  C
  I10      1.0000 0.69592  0.63046  0.63022  Biso   1.000  I
  C139     1.0000 0.48001  0.62982  0.74091  Biso   1.000  C
  C140     1.0000 0.40054  0.63951  0.72869  Biso   1.000  C
  C141     1.0000 0.50657  0.62321  0.79632  Biso   1.000  C
  C142     1.0000 0.34581  0.64353  0.76970  Biso   1.000  C
  O17      1.0000 0.37609  0.65092  0.67473  Biso   1.000  O
  C143     1.0000 0.45191  0.62613  0.83832  Biso   1.000  C
  O18      1.0000 0.58542  0.61821  0.80882  Biso   1.000  O
  C144     1.0000 0.25888  0.65432  0.75642  Biso   1.000  C
  C145     1.0000 0.37359  0.63484  0.82380  Biso   1.000  C
  C146     1.0000 0.36204  0.59283  0.63939  Biso   1.000  C
  C147     1.0000 0.47970  0.62061  0.89903  Biso   1.000  C
  C148     1.0000 0.61009  0.55284  0.79920  Biso   1.000  C
  C149     1.0000 0.20313  0.58966  0.76111  Biso   1.000  C
  H153     1.0000 0.25641  0.66765  0.71681  Biso   1.000  H
  C150     1.0000 0.23643  0.71391  0.78941  Biso   1.000  C
  H154     1.0000 0.33639  0.63494  0.85230  Biso   1.000  H
  C151     1.0000 0.30022  0.53706  0.66181  Biso   1.000  C
  H155     1.0000 0.41335  0.57466  0.63470  Biso   1.000  H
  H156     1.0000 0.34260  0.60663  0.60270  Biso   1.000  H
  C152     1.0000 0.45122  0.55092  0.92042  Biso   1.000  C
  H157     1.0000 0.53967  0.62484  0.89961  Biso   1.000  H
  C153     1.0000 0.45828  0.67930  0.93391  Biso   1.000  C
  C154     1.0000 0.55722  0.49775  0.82672  Biso   1.000  C
  H158     1.0000 0.66623  0.55294  0.81322  Biso   1.000  H
  H159     1.0000 0.60850  0.54384  0.75909  Biso   1.000  H
  C155     1.0000 0.18822  0.54575  0.71582  Biso   1.000  C
  C156     1.0000 0.16290  0.57135  0.80891  Biso   1.000  C
  H160     1.0000 0.17839  0.71724  0.78320  Biso   1.000  H
  H161     1.0000 0.24640  0.70633  0.82910  Biso   1.000  H
  C157     1.0000 0.28458  0.77905  0.77271  Biso   1.000  C
  O19      1.0000 0.22504  0.56294  0.66650  Biso   1.000  O
  H162     1.0000 0.29340  0.49773  0.63651  Biso   1.000  H
  H163     1.0000 0.31920  0.52225  0.69821  Biso   1.000  H
  C158     1.0000 0.38051  0.53743  0.95111  Biso   1.000  C
  C159     1.0000 0.49490  0.49850  0.91170  Biso   1.000  C
  H164     1.0000 0.39949  0.68004  0.93112  Biso   1.000  H
  H165     1.0000 0.47329  0.67182  0.97291  Biso   1.000  H
  C160     1.0000 0.49847  0.74423  0.91680  Biso   1.000  C
  O20      1.0000 0.56702  0.51001  0.88500  Biso   1.000  O
  H166     1.0000 0.50043  0.49822  0.81442  Biso   1.000  H
  H167     1.0000 0.57310  0.45325  0.81742  Biso   1.000  H
  C161     1.0000 0.13375  0.48696  0.71771  Biso   1.000  C
  C162     1.0000 0.10653  0.51272  0.81273  Biso   1.000  C
  H168     1.0000 0.17392  0.59943  0.84050  Biso   1.000  H
  H169     1.0000 0.27732  0.78395  0.73240  Biso   1.000  H
  H170     1.0000 0.34210  0.77552  0.78073  Biso   1.000  H
  C163     1.0000 0.26462  0.84222  0.79981  Biso   1.000  C
  C164     1.0000 0.35703  0.47283  0.97241  Biso   1.000  C
  H171     1.0000 0.34873  0.57254  0.95719  Biso   1.000  H
  C165     1.0000 0.47202  0.43354  0.93173  Biso   1.000  C
  H172     1.0000 0.47361  0.75683  0.88143  Biso   1.000  H
  H173     1.0000 0.55556  0.73991  0.91051  Biso   1.000  H
  C166     1.0000 0.49468  0.80051  0.95880  Biso   1.000  C
  C167     1.0000 0.11631  0.44284  0.67020  Biso   1.000  C
  C168     1.0000 0.09390  0.47234  0.76641  Biso   1.000  C
  C169     1.0000 0.06102  0.49585  0.86440  Biso   1.000  C
  H174     1.0000 0.20638  0.84475  0.79443  Biso   1.000  H
  H175     1.0000 0.29380  0.88195  0.78180  Biso   1.000  H
  C170     1.0000 0.28729  0.84534  0.86333  Biso   1.000  C
  C171     1.0000 0.28177  0.45816  0.00713  Biso   1.000  C
  C172     1.0000 0.40283  0.42232  0.96230  Biso   1.000  C
  C173     1.0000 0.51720  0.38131  0.92063  Biso   1.000  C
  H176     1.0000 0.43749  0.80683  0.96201  Biso   1.000  H
  H177     1.0000 0.51349  0.78464  0.99500  Biso   1.000  H
  C174     1.0000 0.53768  0.86363  0.94930  Biso   1.000  C
  C175     1.0000 0.09823  0.40665  0.63252  Biso   1.000  C
  O21      1.0000 0.03672  0.41425  0.76802  Biso   1.000  O
  H178     1.0000 0.00880  0.46961  0.85173  Biso   1.000  H
  C176     1.0000 0.03831  0.55653  0.89500  Biso   1.000  C
  C177     1.0000 0.10121  0.44895  0.90092  Biso   1.000  C
  H179     1.0000 0.25091  0.81071  0.88241  Biso   1.000  H
  H180     1.0000 0.34280  0.83455  0.86921  Biso   1.000  H
  C178     1.0000 0.28128  0.91334  0.88821  Biso   1.000  C
  C179     1.0000 0.20814  0.42973  0.97023  Biso   1.000  C
  H181     1.0000 0.29229  0.42166  0.03342  Biso   1.000  H
  C180     1.0000 0.26940  0.51897  0.04160  Biso   1.000  C
  O22      1.0000 0.38202  0.35792  0.98381  Biso   1.000  O
  C181     1.0000 0.55661  0.33585  0.91100  Biso   1.000  C
  H182     1.0000 0.51089  0.88402  0.91771  Biso   1.000  H
  H183     1.0000 0.59177  0.85634  0.93770  Biso   1.000  H
  C182     1.0000 0.54887  0.91571  0.99611  Biso   1.000  C
  I11      1.0000 0.04405  0.35232  0.56650  Biso   1.000  I
  C183     1.0000 0.06996  0.35434  0.78229  Biso   1.000  C
  H184     1.0000 0.00909  0.54034  0.92803  Biso   1.000  H
  H185     1.0000 0.08842  0.58484  0.90792  Biso   1.000  H
  C184     1.0000 0.98720  0.60044  0.86222  Biso   1.000  C
  C185     1.0000 0.07671  0.37765  0.90142  Biso   1.000  C
  C186     1.0000 0.16932  0.47171  0.93552  Biso   1.000  C
  H186     1.0000 0.32390  0.94700  0.87402  Biso   1.000  H
  H187     1.0000 0.22858  0.92772  0.87781  Biso   1.000  H
  C187     1.0000 0.28990  0.90973  0.94880  Biso   1.000  C
  C188     1.0000 0.18171  0.36115  0.96912  Biso   1.000  C
  H188     1.0000 0.32257  0.54088  0.05542  Biso   1.000  H
  H189     1.0000 0.24566  0.55155  0.01750  Biso   1.000  H
  C189     1.0000 0.21646  0.50404  0.09010  Biso   1.000  C
  C190     1.0000 0.33150  0.31201  0.94732  Biso   1.000  C
  I12      1.0000 0.62033  0.26092  0.89664  Biso   1.000  I
  H190     1.0000 0.56635  0.96039  0.98011  Biso   1.000  H
  H191     1.0000 0.49606  0.91779  0.01211  Biso   1.000  H
  C191     1.0000 0.60678  0.90368  0.04111  Biso   1.000  C
  H192     1.0000 0.12472  0.36594  0.79883  Biso   1.000  H
  H193     1.0000 0.07361  0.32664  0.74901  Biso   1.000  H
  C192     1.0000 0.01760  0.31562  0.82232  Biso   1.000  C
  H194     1.0000 0.01753  0.61634  0.82960  Biso   1.000  H
  H195     1.0000 0.93859  0.57092  0.84852  Biso   1.000  H
  C193     1.0000 0.95880  0.66261  0.88899  Biso   1.000  C
  O23      1.0000 0.00660  0.35391  0.87110  Biso   1.000  O
  C194     1.0000 0.11531  0.33481  0.93552  Biso   1.000  C
  H196     1.0000 0.18959  0.51822  0.93490  Biso   1.000  H
  H197     1.0000 0.34497  0.90083  0.95892  Biso   1.000  H
  H198     1.0000 0.25155  0.87319  0.96221  Biso   1.000  H
  H199     1.0000 0.28070  0.95253  0.96530  Biso   1.000  H
  O24      1.0000 0.21530  0.31766  0.00491  Biso   1.000  O
  H200     1.0000 0.15958  0.49926  0.07681  Biso   1.000  H
  H201     1.0000 0.22677  0.46047  0.10622  Biso   1.000  H
  C195     1.0000 0.22909  0.55736  0.13481  Biso   1.000  C
  C196     1.0000 0.26569  0.27360  0.98093  Biso   1.000  C
  H202     1.0000 0.36385  0.28015  0.93033  Biso   1.000  H
  H203     1.0000 0.30719  0.33740  0.91762  Biso   1.000  H
  H204     1.0000 0.65876  0.89868  0.02581  Biso   1.000  H
  H205     1.0000 0.58675  0.86255  0.06073  Biso   1.000  H
  H206     1.0000 0.61315  0.94195  0.06673  Biso   1.000  H
  H207     1.0000 0.04161  0.27473  0.83322  Biso   1.000  H
  H208     1.0000 0.96454  0.30093  0.80422  Biso   1.000  H
  C197     1.0000 0.02683  0.71611  0.88760  Biso   1.000  C
  H209     1.0000 0.91169  0.67602  0.86810  Biso   1.000  H
  H210     1.0000 0.94359  0.65280  0.92741  Biso   1.000  H
  C198     1.0000 0.08676  0.26265  0.93511  Biso   1.000  C
  H211     1.0000 0.21058  0.59924  0.12042  Biso   1.000  H
  H212     1.0000 0.28726  0.56736  0.14403  Biso   1.000  H
  C199     1.0000 0.18510  0.53728  0.18742  Biso   1.000  C
  H213     1.0000 0.23231  0.24033  0.95691  Biso   1.000  H
  H214     1.0000 0.29102  0.24867  0.01050  Biso   1.000  H
  H215     1.0000 0.04288  0.72592  0.84942  Biso   1.000  H
  H216     1.0000 0.07359  0.70392  0.90960  Biso   1.000  H
  C200     1.0000 0.99185  0.77823  0.91421  Biso   1.000  C
  C201     1.0000 0.06036  0.20684  0.93132  Biso   1.000  C
  H217     1.0000 0.12660  0.53576  0.18002  Biso   1.000  H
  H218     1.0000 0.19566  0.49145  0.19820  Biso   1.000  H
  C202     1.0000 0.20977  0.58334  0.23201  Biso   1.000  C
  C203     1.0000 0.06487  0.83164  0.91400  Biso   1.000  C
  H219     1.0000 0.94677  0.79182  0.89163  Biso   1.000  H
  H220     1.0000 0.97456  0.76821  0.95201  Biso   1.000  H
  I13      1.0000 0.01786  0.11151  0.92383  Biso   1.000  I
  H221     1.0000 0.20009  0.62927  0.22091  Biso   1.000  H
  H222     1.0000 0.26817  0.58415  0.23970  Biso   1.000  H
  C204     1.0000 0.16358  0.56357  0.28623  Biso   1.000  C
  H223     1.0000 0.07901  0.84210  0.87600  Biso   1.000  H
  H224     1.0000 0.11020  0.81479  0.93362  Biso   1.000  H
  H225     1.0000 0.05249  0.87243  0.93231  Biso   1.000  H
  H226     1.0000 0.10879  0.57523  0.28232  Biso   1.000  H
  H227     1.0000 0.19177  0.58803  0.31753  Biso   1.000  H
  H228     1.0000 0.16156  0.51494  0.29232  Biso   1.000  H
  I14      1.0000 0.31854  0.39383  0.37942  Biso   1.000  I
  C205     1.0000 0.41044  0.37505  0.33130  Biso   1.000  C
  I15      1.0000 0.30392  0.36948  0.36980  Biso   1.000  I
  C206     1.0000 0.46134  0.37186  0.30081  Biso   1.000  C
  C207     1.0000 0.51982  0.37006  0.25910  Biso   1.000  C
  C208     1.0000 0.49326  0.37667  0.20370  Biso   1.000  C
  C209     1.0000 0.59936  0.36037  0.27132  Biso   1.000  C
  O25      1.0000 0.41448  0.38168  0.19119  Biso   1.000  O
  C210     1.0000 0.54798  0.37376  0.16170  Biso   1.000  C
  O26      1.0000 0.62374  0.34896  0.32529  Biso   1.000  O
  C211     1.0000 0.65403  0.35635  0.23031  Biso   1.000  C
  C212     1.0000 0.38975  0.44710  0.20082  Biso   1.000  C
  C213     1.0000 0.52013  0.37928  0.10098  Biso   1.000  C
  C214     1.0000 0.62625  0.36509  0.17622  Biso   1.000  C
  C215     1.0000 0.63785  0.40705  0.36062  Biso   1.000  C
  C216     1.0000 0.74095  0.34556  0.24360  Biso   1.000  C
  C217     1.0000 0.44268  0.50218  0.17330  Biso   1.000  C
  H229     1.0000 0.33368  0.44700  0.18679  Biso   1.000  H
  H230     1.0000 0.39134  0.45610  0.24092  Biso   1.000  H
  C218     1.0000 0.54867  0.44897  0.07959  Biso   1.000  C
  H231     1.0000 0.46017  0.37509  0.10041  Biso   1.000  H
  C219     1.0000 0.54155  0.32058  0.06610  Biso   1.000  C
  H232     1.0000 0.66345  0.36499  0.14771  Biso   1.000  H
  H233     1.0000 0.58655  0.42528  0.36531  Biso   1.000  H
  H234     1.0000 0.65724  0.39325  0.39732  Biso   1.000  H
  C220     1.0000 0.69962  0.46288  0.33821  Biso   1.000  C
  C221     1.0000 0.79677  0.41028  0.23891  Biso   1.000  C
  H235     1.0000 0.74343  0.33229  0.28321  Biso   1.000  H
  C222     1.0000 0.76346  0.28597  0.21061  Biso   1.000  C
  O27      1.0000 0.43288  0.48988  0.11501  Biso   1.000  O
  H236     1.0000 0.49946  0.50166  0.18560  Biso   1.000  H
  H237     1.0000 0.42675  0.54669  0.18260  Biso   1.000  H
  C223     1.0000 0.61933  0.46251  0.04891  Biso   1.000  C
  C224     1.0000 0.50493  0.50138  0.08832  Biso   1.000  C
  H238     1.0000 0.60035  0.31990  0.06890  Biso   1.000  H
  H239     1.0000 0.52655  0.32812  0.02711  Biso   1.000  H
  C225     1.0000 0.50137  0.25570  0.08321  Biso   1.000  C
  O28      1.0000 0.77485  0.43694  0.33352  Biso   1.000  O
  H240     1.0000 0.70643  0.50216  0.36350  Biso   1.000  H
  H241     1.0000 0.68064  0.47769  0.30180  Biso   1.000  H
  C226     1.0000 0.81162  0.45418  0.28420  Biso   1.000  C
  C227     1.0000 0.83694  0.42859  0.19111  Biso   1.000  C
  H242     1.0000 0.82145  0.28269  0.21682  Biso   1.000  H
  H243     1.0000 0.75344  0.29361  0.17091  Biso   1.000  H
  C228     1.0000 0.71526  0.22089  0.22731  Biso   1.000  C
  C229     1.0000 0.64287  0.52710  0.02760  Biso   1.000  C
  H244     1.0000 0.65117  0.42739  0.04282  Biso   1.000  H
  C230     1.0000 0.52782  0.56639  0.06828  Biso   1.000  C
  H245     1.0000 0.52629  0.24310  0.11859  Biso   1.000  H
  H246     1.0000 0.44427  0.25998  0.08951  Biso   1.000  H
  C231     1.0000 0.50515  0.19937  0.04122  Biso   1.000  C
  C232     1.0000 0.86615  0.51297  0.28230  Biso   1.000  C
  H247     1.0000 0.82598  0.40050  0.15952  Biso   1.000  H
  C233     1.0000 0.89336  0.48716  0.18728  Biso   1.000  C
  H248     1.0000 0.72258  0.21598  0.26762  Biso   1.000  H
  H249     1.0000 0.65774  0.22436  0.21929  Biso   1.000  H
  C234     1.0000 0.73527  0.15766  0.20020  Biso   1.000  C
  C235     1.0000 0.59706  0.57756  0.03772  Biso   1.000  C
  C236     1.0000 0.71806  0.54173  0.99288  Biso   1.000  C
  C237     1.0000 0.48263  0.61857  0.07939  Biso   1.000  C
  H250     1.0000 0.56235  0.19310  0.03801  Biso   1.000  H
  H251     1.0000 0.48635  0.21529  0.00502  Biso   1.000  H
  C238     1.0000 0.46216  0.13630  0.05072  Biso   1.000  C
  C239     1.0000 0.90594  0.52760  0.23360  Biso   1.000  C
  C240     1.0000 0.88353  0.55704  0.32981  Biso   1.000  C
  C241     1.0000 0.93882  0.50408  0.13562  Biso   1.000  C
  H252     1.0000 0.79346  0.15518  0.20559  Biso   1.000  H
  H253     1.0000 0.70604  0.11798  0.21822  Biso   1.000  H
  C242     1.0000 0.71255  0.15460  0.13669  Biso   1.000  C
  O29      1.0000 0.61788  0.64201  0.01621  Biso   1.000  O
  C243     1.0000 0.79176  0.57020  0.02978  Biso   1.000  C
  H254     1.0000 0.70755  0.57822  0.96660  Biso   1.000  H
  C244     1.0000 0.73050  0.48097  0.95841  Biso   1.000  C
  C245     1.0000 0.44324  0.66409  0.08901  Biso   1.000  C
  H255     1.0000 0.48895  0.11587  0.08231  Biso   1.000  H
  H256     1.0000 0.40807  0.14359  0.06232  Biso   1.000  H
  C246     1.0000 0.45097  0.08418  0.00391  Biso   1.000  C
  O30      1.0000 0.96312  0.58568  0.23200  Biso   1.000  O
  C247     1.0000 0.90161  0.59329  0.36749  Biso   1.000  C
  H257     1.0000 0.99103  0.53027  0.14829  Biso   1.000  H
  C248     1.0000 0.96154  0.44340  0.10502  Biso   1.000  C
  C249     1.0000 0.89863  0.55099  0.09909  Biso   1.000  C
  H258     1.0000 0.74898  0.18918  0.11760  Biso   1.000  H
  H259     1.0000 0.65705  0.16539  0.13081  Biso   1.000  H
  C250     1.0000 0.71856  0.08660  0.11180  Biso   1.000  C
  C251     1.0000 0.66833  0.68787  0.05269  Biso   1.000  C
  C252     1.0000 0.83057  0.52817  0.06450  Biso   1.000  C
  C253     1.0000 0.81813  0.63879  0.03089  Biso   1.000  C
  H260     1.0000 0.67727  0.45905  0.94459  Biso   1.000  H
  H261     1.0000 0.75417  0.44833  0.98252  Biso   1.000  H
  C254     1.0000 0.78338  0.49584  0.90992  Biso   1.000  C
  I16      1.0000 0.37956  0.73897  0.10337  Biso   1.000  I
  H262     1.0000 0.43348  0.03949  0.01991  Biso   1.000  H
  H263     1.0000 0.50378  0.08215  0.98791  Biso   1.000  H
  C255     1.0000 0.39313  0.09626  0.95891  Biso   1.000  C
  C256     1.0000 0.92994  0.64559  0.21772  Biso   1.000  C
  I17      1.0000 0.95584  0.64757  0.43351  Biso   1.000  I
  H264     1.0000 0.99075  0.45959  0.07198  Biso   1.000  H
  H265     1.0000 0.91143  0.41509  0.09210  Biso   1.000  H
  C257     1.0000 0.01270  0.39949  0.13780  Biso   1.000  C
  C258     1.0000 0.92313  0.62228  0.09860  Biso   1.000  C
  H266     1.0000 0.67599  0.05289  0.12599  Biso   1.000  H
  H267     1.0000 0.77126  0.07221  0.12221  Biso   1.000  H
  C259     1.0000 0.71000  0.09020  0.05121  Biso   1.000  C
  C260     1.0000 0.73415  0.72628  0.01909  Biso   1.000  C
  H268     1.0000 0.63606  0.71978  0.06968  Biso   1.000  H
  H269     1.0000 0.69265  0.66248  0.08239  Biso   1.000  H
  H270     1.0000 0.81025  0.48167  0.06512  Biso   1.000  H
  C261     1.0000 0.88453  0.66508  0.06450  Biso   1.000  C
  O31      1.0000 0.78454  0.68222  0.99511  Biso   1.000  O
  H271     1.0000 0.84025  0.50062  0.92320  Biso   1.000  H
  H272     1.0000 0.77308  0.53947  0.89379  Biso   1.000  H
  C262     1.0000 0.77081  0.44257  0.86520  Biso   1.000  C
  H273     1.0000 0.34109  0.10125  0.97421  Biso   1.000  H
  H274     1.0000 0.41308  0.13733  0.93929  Biso   1.000  H
  H275     1.0000 0.38668  0.05793  0.93328  Biso   1.000  H
  H276     1.0000 0.87512  0.63399  0.20119  Biso   1.000  H
  H277     1.0000 0.92623  0.67329  0.25100  Biso   1.000  H
  C263     1.0000 0.98223  0.68426  0.17770  Biso   1.000  C
  H278     1.0000 0.98237  0.38360  0.17042  Biso   1.000  H
  H279     1.0000 0.06124  0.42896  0.15150  Biso   1.000  H
  C264     1.0000 0.04110  0.33727  0.11102  Biso   1.000  C
  O32      1.0000 0.99324  0.64598  0.12891  Biso   1.000  O
  H280     1.0000 0.65487  0.09910  0.04109  Biso   1.000  H
  H281     1.0000 0.74828  0.12669  0.03780  Biso   1.000  H
  H282     1.0000 0.71920  0.04741  0.03472  Biso   1.000  H
  H283     1.0000 0.76753  0.75960  0.04311  Biso   1.000  H
  H284     1.0000 0.70888  0.75122  0.98951  Biso   1.000  H
  C265     1.0000 0.91315  0.73729  0.06491  Biso   1.000  C
  H285     1.0000 0.78926  0.40065  0.87960  Biso   1.000  H
  H286     1.0000 0.71258  0.43253  0.85599  Biso   1.000  H
  C266     1.0000 0.81480  0.46266  0.81259  Biso   1.000  C
  H287     1.0000 0.95822  0.72515  0.16680  Biso   1.000  H
  H288     1.0000 0.03535  0.69895  0.19580  Biso   1.000  H
  C267     1.0000 0.97307  0.28377  0.11242  Biso   1.000  C
  H289     1.0000 0.08815  0.32387  0.13192  Biso   1.000  H
  H290     1.0000 0.05630  0.34708  0.07260  Biso   1.000  H
  C268     1.0000 0.93954  0.79309  0.06869  Biso   1.000  C
  H291     1.0000 0.87330  0.46417  0.82000  Biso   1.000  H
  H292     1.0000 0.80417  0.50844  0.80182  Biso   1.000  H
  C269     1.0000 0.79007  0.41654  0.76800  Biso   1.000  C
  H293     1.0000 0.95696  0.27396  0.15059  Biso   1.000  H
  H294     1.0000 0.92625  0.29601  0.09041  Biso   1.000  H
  C270     1.0000 0.00799  0.22171  0.08581  Biso   1.000  C
  I18      1.0000 0.98198  0.88843  0.07618  Biso   1.000  I
  H295     1.0000 0.79981  0.37067  0.77911  Biso   1.000  H
  H296     1.0000 0.73168  0.41578  0.76031  Biso   1.000  H
  C271     1.0000 0.83632  0.43637  0.71379  Biso   1.000  C
  C272     1.0000 0.93497  0.16830  0.08601  Biso   1.000  C
  H297     1.0000 0.05308  0.20811  0.10839  Biso   1.000  H
  H298     1.0000 0.02527  0.23167  0.04800  Biso   1.000  H
  H299     1.0000 0.89110  0.42465  0.71770  Biso   1.000  H
  H300     1.0000 0.80812  0.41186  0.68248  Biso   1.000  H
  H301     1.0000 0.83827  0.48495  0.70770  Biso   1.000  H
  H302     1.0000 0.92088  0.15778  0.12402  Biso   1.000  H
  H303     1.0000 0.88964  0.18509  0.06639  Biso   1.000  H
  H304     1.0000 0.94735  0.12751  0.06771  Biso   1.000  H
