data_image0
_cell_length_a       14.102
_cell_length_b       24.468
_cell_length_c       18.351
_cell_angle_alpha    90
_cell_angle_beta     98.97
_cell_angle_gamma    90

_symmetry_space_group_name_H-M    "P 1"
_symmetry_int_tables_number       1

loop_
  _symmetry_equiv_pos_as_xyz
  'x, y, z'

loop_
  _atom_site_label
  _atom_site_occupancy
  _atom_site_fract_x
  _atom_site_fract_y
  _atom_site_fract_z
  _atom_site_thermal_displace_type
  _atom_site_B_iso_or_equiv
  _atom_site_type_symbol
  C1       1.0000 0.51710  0.52701  0.40057  Biso   1.000  C
  C2       1.0000 0.59059  0.48230  0.40559  Biso   1.000  C
  C3       1.0000 0.56221  0.57802  0.42860  Biso   1.000  C
  H1       1.0000 0.46628  0.51680  0.42970  Biso   1.000  H
  H2       1.0000 0.48691  0.53180  0.34860  Biso   1.000  H
  H3       1.0000 0.63581  0.48610  0.45160  Biso   1.000  H
  H4       1.0000 0.55849  0.44671  0.40499  Biso   1.000  H
  H5       1.0000 0.62538  0.48471  0.36350  Biso   1.000  H
  C4       1.0000 0.48531  0.62600  0.42562  Biso   1.000  C
  H6       1.0000 0.59381  0.57279  0.48018  Biso   1.000  H
  H7       1.0000 0.61212  0.58840  0.39881  Biso   1.000  H
  C5       1.0000 0.52892  0.67901  0.45602  Biso   1.000  C
  H8       1.0000 0.43438  0.61501  0.45420  Biso   1.000  H
  H9       1.0000 0.45494  0.63160  0.37382  Biso   1.000  H
  C6       1.0000 0.45810  0.72352  0.45717  Biso   1.000  C
  H10      1.0000 0.57760  0.69070  0.42578  Biso   1.000  H
  H11      1.0000 0.56221  0.67272  0.50688  Biso   1.000  H
  C7       1.0000 0.50642  0.77971  0.47168  Biso   1.000  C
  H12      1.0000 0.41468  0.72442  0.40918  Biso   1.000  H
  H13      1.0000 0.41862  0.71579  0.49607  Biso   1.000  H
  C8       1.0000 0.56850  0.78539  0.54870  Biso   1.000  C
  C9       1.0000 0.43898  0.82720  0.45839  Biso   1.000  C
  H14      1.0000 0.55160  0.78343  0.43500  Biso   1.000  H
  C10      1.0000 0.54037  0.76422  0.61137  Biso   1.000  C
  C11      1.0000 0.65103  0.81633  0.55670  Biso   1.000  C
  C12      1.0000 0.34550  0.82561  0.47472  Biso   1.000  C
  C13      1.0000 0.46869  0.87621  0.43180  Biso   1.000  C
  H15      1.0000 0.48250  0.74383  0.60679  Biso   1.000  H
  C14      1.0000 0.59300  0.77129  0.68099  Biso   1.000  C
  C15      1.0000 0.70749  0.82573  0.62527  Biso   1.000  C
  O1       1.0000 0.68244  0.83930  0.49480  Biso   1.000  O
  C16      1.0000 0.28172  0.86942  0.46440  Biso   1.000  C
  H16      1.0000 0.32409  0.79263  0.49397  Biso   1.000  H
  C17      1.0000 0.40941  0.92202  0.42098  Biso   1.000  C
  O2       1.0000 0.55899  0.88033  0.41028  Biso   1.000  O
  C18      1.0000 0.67644  0.80239  0.68717  Biso   1.000  C
  C19      1.0000 0.56134  0.75033  0.75177  Biso   1.000  C
  C20      1.0000 0.79125  0.85871  0.63161  Biso   1.000  C
  C21      1.0000 0.63872  0.88802  0.46738  Biso   1.000  C
  C22      1.0000 0.18263  0.86721  0.48597  Biso   1.000  C
  C23      1.0000 0.31473  0.91732  0.43522  Biso   1.000  C
  C24      1.0000 0.44560  0.97331  0.39732  Biso   1.000  C
  O3       1.0000 0.73531  0.81073  0.75469  Biso   1.000  O
  H17      1.0000 0.62048  0.74591  0.78917  Biso   1.000  H
  C25      1.0000 0.50052  0.79381  0.78018  Biso   1.000  C
  C26      1.0000 0.51108  0.69393  0.74278  Biso   1.000  C
  C27      1.0000 0.86061  0.88700  0.63691  Biso   1.000  C
  H18      1.0000 0.61678  0.90812  0.50848  Biso   1.000  H
  H19      1.0000 0.68709  0.91103  0.44818  Biso   1.000  H
  C28      1.0000 0.19172  0.89043  0.56398  Biso   1.000  C
  H20      1.0000 0.14090  0.89280  0.45260  Biso   1.000  H
  C29      1.0000 0.13489  0.81073  0.47748  Biso   1.000  C
  O4       1.0000 0.25451  0.96142  0.41977  Biso   1.000  O
  C30      1.0000 0.47633  0.01529  0.38209  Biso   1.000  C
  C31      1.0000 0.70672  0.85181  0.79971  Biso   1.000  C
  C32      1.0000 0.40289  0.79680  0.76280  Biso   1.000  C
  C33      1.0000 0.54671  0.83583  0.82437  Biso   1.000  C
  H21      1.0000 0.45138  0.69732  0.70681  Biso   1.000  H
  H22      1.0000 0.49300  0.68289  0.79066  Biso   1.000  H
  C34      1.0000 0.57431  0.64930  0.71679  Biso   1.000  C
  Br1      1.0000 0.96618  0.92930  0.64381  Biso   1.000  Br
  C35      1.0000 0.20959  0.85732  0.62759  Biso   1.000  C
  C36      1.0000 0.18613  0.94622  0.57347  Biso   1.000  C
  H23      1.0000 0.17373  0.78482  0.51129  Biso   1.000  H
  H24      1.0000 0.13511  0.79761  0.42650  Biso   1.000  H
  C37      1.0000 0.03357  0.81000  0.49331  Biso   1.000  C
  C38      1.0000 0.24261  0.99612  0.47819  Biso   1.000  C
  Br2      1.0000 0.52477  0.08015  0.35798  Biso   1.000  Br
  H25      1.0000 0.76474  0.86832  0.82878  Biso   1.000  H
  H26      1.0000 0.67350  0.88082  0.76777  Biso   1.000  H
  O5       1.0000 0.64542  0.83382  0.84881  Biso   1.000  O
  H27      1.0000 0.37063  0.76913  0.73241  Biso   1.000  H
  C39      1.0000 0.34810  0.83840  0.78741  Biso   1.000  C
  C40      1.0000 0.49661  0.87870  0.84969  Biso   1.000  C
  H28      1.0000 0.58528  0.65882  0.66637  Biso   1.000  H
  H29      1.0000 0.53739  0.61472  0.71310  Biso   1.000  H
  C41      1.0000 0.66327  0.63932  0.75927  Biso   1.000  C
  C42      1.0000 0.21960  0.87841  0.69787  Biso   1.000  C
  H30      1.0000 0.21499  0.81891  0.62168  Biso   1.000  H
  C43      1.0000 0.19881  0.96992  0.64331  Biso   1.000  C
  O6       1.0000 0.16478  0.98112  0.51367  Biso   1.000  O
  H31      1.0000 0.03353  0.82361  0.54412  Biso   1.000  H
  H32      1.0000 0.99480  0.83570  0.45911  Biso   1.000  H
  C44      1.0000 0.98521  0.75413  0.48597  Biso   1.000  C
  H33      1.0000 0.30222  0.99591  0.51477  Biso   1.000  H
  H34      1.0000 0.23237  0.03388  0.45922  Biso   1.000  H
  C45      1.0000 0.39678  0.87931  0.83160  Biso   1.000  C
  C46      1.0000 0.24002  0.84273  0.76567  Biso   1.000  C
  C47      1.0000 0.54452  0.92251  0.89361  Biso   1.000  C
  H35      1.0000 0.70292  0.67259  0.75828  Biso   1.000  H
  H36      1.0000 0.65312  0.63381  0.81096  Biso   1.000  H
  C48      1.0000 0.72412  0.58840  0.73660  Biso   1.000  C
  C49      1.0000 0.21613  0.93502  0.70559  Biso   1.000  C
  C50      1.0000 0.19688  0.02791  0.65230  Biso   1.000  C
  H37      1.0000 0.03020  0.72719  0.51267  Biso   1.000  H
  H38      1.0000 0.97528  0.74383  0.43318  Biso   1.000  H
  C51      1.0000 0.89334  0.74890  0.51267  Biso   1.000  C
  O7       1.0000 0.34728  0.92071  0.85990  Biso   1.000  O
  H39      1.0000 0.21609  0.86313  0.80639  Biso   1.000  H
  C52      1.0000 0.18578  0.78752  0.75839  Biso   1.000  C
  C53      1.0000 0.58022  0.96011  0.92626  Biso   1.000  C
  H40      1.0000 0.78483  0.58501  0.77157  Biso   1.000  H
  H41      1.0000 0.74013  0.59412  0.68651  Biso   1.000  H
  C54      1.0000 0.66658  0.53821  0.73820  Biso   1.000  C
  O8       1.0000 0.22418  0.95921  0.77428  Biso   1.000  O
  C55      1.0000 0.19588  0.07549  0.65749  Biso   1.000  C
  H42      1.0000 0.89918  0.76361  0.56348  Biso   1.000  H
  H43      1.0000 0.84378  0.77052  0.48090  Biso   1.000  H
  C56      1.0000 0.86263  0.68931  0.51229  Biso   1.000  C
  H44      1.0000 0.90953  0.73512  0.56381  Biso   1.000  H
  H45      1.0000 0.87032  0.78682  0.51698  Biso   1.000  H
  C57      1.0000 0.80592  0.71690  0.47919  Biso   1.000  C
  C58      1.0000 0.31920  0.96551  0.81306  Biso   1.000  C
  H46      1.0000 0.20090  0.76733  0.80561  Biso   1.000  H
  H47      1.0000 0.20920  0.76541  0.71966  Biso   1.000  H
  C59      1.0000 0.07841  0.79373  0.73947  Biso   1.000  C
  Br3      1.0000 0.63335  0.01623  0.98226  Biso   1.000  Br
  H48      1.0000 0.64819  0.53331  0.78768  Biso   1.000  H
  H49      1.0000 0.60731  0.54083  0.70157  Biso   1.000  H
  C60      1.0000 0.73015  0.48770  0.71911  Biso   1.000  C
  Br4      1.0000 0.19786  0.14979  0.66096  Biso   1.000  Br
  H50      1.0000 0.91522  0.66773  0.54048  Biso   1.000  H
  H51      1.0000 0.85289  0.67590  0.46082  Biso   1.000  H
  C61      1.0000 0.77180  0.67942  0.54450  Biso   1.000  C
  H52      1.0000 0.84639  0.66319  0.56436  Biso   1.000  H
  H53      1.0000 0.91388  0.66029  0.50208  Biso   1.000  H
  H54      1.0000 0.79498  0.71743  0.42457  Biso   1.000  H
  H55      1.0000 0.74684  0.72793  0.49838  Biso   1.000  H
  C62      1.0000 0.84799  0.66372  0.51107  Biso   1.000  C
  H56      1.0000 0.32282  0.99943  0.84280  Biso   1.000  H
  H57      1.0000 0.36431  0.96923  0.77709  Biso   1.000  H
  H58      1.0000 0.05832  0.82483  0.76799  Biso   1.000  H
  H59      1.0000 0.06249  0.80321  0.68651  Biso   1.000  H
  C63      1.0000 0.01940  0.74371  0.75409  Biso   1.000  C
  H60      1.0000 0.78980  0.48631  0.75447  Biso   1.000  H
  H61      1.0000 0.69419  0.45369  0.72187  Biso   1.000  H
  H62      1.0000 0.74531  0.49211  0.66907  Biso   1.000  H
  H63      1.0000 0.78332  0.68780  0.59741  Biso   1.000  H
  H64      1.0000 0.72039  0.70292  0.51968  Biso   1.000  H
  H65      1.0000 0.75270  0.64100  0.53739  Biso   1.000  H
  H66      1.0000 0.80942  0.63319  0.48768  Biso   1.000  H
  H67      1.0000 0.02963  0.73713  0.80799  Biso   1.000  H
  C64      1.0000 0.03998  0.69139  0.71641  Biso   1.000  C
  H68      1.0000 0.95069  0.75270  0.73908  Biso   1.000  H
  H69      1.0000 0.03773  0.69830  0.66300  Biso   1.000  H
  H70      1.0000 0.10549  0.67860  0.73660  Biso   1.000  H
  C65      1.0000 0.96723  0.64652  0.72727  Biso   1.000  C
  C66      1.0000 0.00180  0.59143  0.70300  Biso   1.000  C
  H71      1.0000 0.90399  0.65543  0.69798  Biso   1.000  H
  H72      1.0000 0.95940  0.64480  0.77990  Biso   1.000  H
  H73      1.0000 0.06922  0.58611  0.72457  Biso   1.000  H
  H74      1.0000 0.96270  0.56220  0.71961  Biso   1.000  H
  H75      1.0000 0.99569  0.59053  0.64910  Biso   1.000  H
  C67      1.0000 0.48291  0.47303  0.59940  Biso   1.000  C
  C68      1.0000 0.43780  0.42202  0.57137  Biso   1.000  C
  H76      1.0000 0.53373  0.48320  0.57027  Biso   1.000  H
  H77      1.0000 0.51310  0.46820  0.65136  Biso   1.000  H
  C69      1.0000 0.40942  0.51770  0.59438  Biso   1.000  C
  C70      1.0000 0.51471  0.37400  0.57441  Biso   1.000  C
  H78      1.0000 0.40620  0.42721  0.51979  Biso   1.000  H
  H79      1.0000 0.38790  0.41160  0.60122  Biso   1.000  H
  H80      1.0000 0.36420  0.51390  0.54837  Biso   1.000  H
  H81      1.0000 0.44153  0.55329  0.59498  Biso   1.000  H
  H82      1.0000 0.37463  0.51533  0.63647  Biso   1.000  H
  C71      1.0000 0.47111  0.32099  0.54401  Biso   1.000  C
  H83      1.0000 0.56564  0.38499  0.54577  Biso   1.000  H
  H84      1.0000 0.54508  0.36840  0.62621  Biso   1.000  H
  C72      1.0000 0.54191  0.27652  0.54279  Biso   1.000  C
  H85      1.0000 0.42241  0.30930  0.57418  Biso   1.000  H
  H86      1.0000 0.43780  0.32733  0.49309  Biso   1.000  H
  C73      1.0000 0.49359  0.22029  0.52829  Biso   1.000  C
  H87      1.0000 0.58533  0.27558  0.59079  Biso   1.000  H
  H88      1.0000 0.58139  0.28421  0.50390  Biso   1.000  H
  C74      1.0000 0.43151  0.21461  0.45127  Biso   1.000  C
  C75      1.0000 0.56103  0.17280  0.54158  Biso   1.000  C
  H89      1.0000 0.44841  0.21661  0.56497  Biso   1.000  H
  C76      1.0000 0.45964  0.23582  0.38860  Biso   1.000  C
  C77      1.0000 0.34898  0.18371  0.44327  Biso   1.000  C
  C78      1.0000 0.65452  0.17439  0.52531  Biso   1.000  C
  C79      1.0000 0.53132  0.12379  0.56817  Biso   1.000  C
  C80      1.0000 0.40701  0.22871  0.31898  Biso   1.000  C
  H90      1.0000 0.51751  0.25621  0.39318  Biso   1.000  H
  C81      1.0000 0.29252  0.17431  0.37470  Biso   1.000  C
  O9       1.0000 0.31757  0.16070  0.50517  Biso   1.000  O
  C82      1.0000 0.71829  0.13062  0.53557  Biso   1.000  C
  H91      1.0000 0.67592  0.20741  0.50600  Biso   1.000  H
  O10      1.0000 0.44102  0.11971  0.58969  Biso   1.000  O
  C83      1.0000 0.59060  0.07802  0.57898  Biso   1.000  C
  C84      1.0000 0.32357  0.19761  0.31280  Biso   1.000  C
  C85      1.0000 0.43867  0.24971  0.24820  Biso   1.000  C
  C86      1.0000 0.20877  0.14129  0.36841  Biso   1.000  C
  C87      1.0000 0.36129  0.11198  0.53259  Biso   1.000  C
  C88      1.0000 0.81738  0.13279  0.51400  Biso   1.000  C
  C89      1.0000 0.68530  0.08272  0.56481  Biso   1.000  C
  C90      1.0000 0.55442  0.02669  0.60271  Biso   1.000  C
  O11      1.0000 0.26470  0.18931  0.24528  Biso   1.000  O
  H92      1.0000 0.37953  0.25409  0.21080  Biso   1.000  H
  C91      1.0000 0.49949  0.20619  0.21979  Biso   1.000  C
  C92      1.0000 0.48893  0.30611  0.25719  Biso   1.000  C
  C93      1.0000 0.13941  0.11300  0.36311  Biso   1.000  C
  H93      1.0000 0.38323  0.09192  0.49149  Biso   1.000  H
  H94      1.0000 0.31292  0.08901  0.55179  Biso   1.000  H
  C94      1.0000 0.80829  0.10961  0.43599  Biso   1.000  C
  H95      1.0000 0.85911  0.10720  0.54737  Biso   1.000  H
  C95      1.0000 0.86512  0.18931  0.52249  Biso   1.000  C
  O12      1.0000 0.74550  0.03858  0.58020  Biso   1.000  O
  C96      1.0000 0.52368  0.98471  0.61788  Biso   1.000  C
  C97      1.0000 0.29330  0.14819  0.20031  Biso   1.000  C
  C98      1.0000 0.45330  0.16421  0.17560  Biso   1.000  C
  C99      1.0000 0.59713  0.20320  0.23722  Biso   1.000  C
  H96      1.0000 0.54864  0.30272  0.29322  Biso   1.000  H
  H97      1.0000 0.50701  0.31711  0.20931  Biso   1.000  H
  C100     1.0000 0.42570  0.35070  0.28318  Biso   1.000  C
  Br5      1.0000 0.03383  0.07070  0.35616  Biso   1.000  Br
  C101     1.0000 0.79042  0.14272  0.37238  Biso   1.000  C
  C102     1.0000 0.81388  0.05378  0.42650  Biso   1.000  C
  H98      1.0000 0.82628  0.21522  0.48867  Biso   1.000  H
  H99      1.0000 0.86490  0.20239  0.57347  Biso   1.000  H
  C103     1.0000 0.96645  0.19000  0.50671  Biso   1.000  C
  C104     1.0000 0.75740  0.00388  0.52178  Biso   1.000  C
  Br6      1.0000 0.47524  0.91990  0.64199  Biso   1.000  Br
  H100     1.0000 0.23527  0.13168  0.17119  Biso   1.000  H
  H101     1.0000 0.32651  0.11922  0.23220  Biso   1.000  H
  O13      1.0000 0.35461  0.16622  0.15121  Biso   1.000  O
  C105     1.0000 0.50340  0.12130  0.15028  Biso   1.000  C
  H102     1.0000 0.62939  0.23091  0.26762  Biso   1.000  H
  C106     1.0000 0.65192  0.16160  0.21262  Biso   1.000  C
  H103     1.0000 0.41473  0.34122  0.33360  Biso   1.000  H
  H104     1.0000 0.46262  0.38532  0.28687  Biso   1.000  H
  C107     1.0000 0.33674  0.36072  0.24070  Biso   1.000  C
  C108     1.0000 0.78041  0.12159  0.30210  Biso   1.000  C
  H105     1.0000 0.78502  0.18109  0.37828  Biso   1.000  H
  C109     1.0000 0.80121  0.03008  0.35671  Biso   1.000  C
  O14      1.0000 0.83523  0.01888  0.48630  Biso   1.000  O
  H106     1.0000 0.96649  0.17639  0.45591  Biso   1.000  H
  H107     1.0000 0.00523  0.16430  0.54092  Biso   1.000  H
  C110     1.0000 0.01480  0.24591  0.51400  Biso   1.000  C
  H108     1.0000 0.69779  0.00409  0.48520  Biso   1.000  H
  H109     1.0000 0.76765  0.96612  0.54081  Biso   1.000  H
  C111     1.0000 0.60323  0.12069  0.16837  Biso   1.000  C
  C112     1.0000 0.45550  0.07749  0.10642  Biso   1.000  C
  C113     1.0000 0.75999  0.15731  0.23430  Biso   1.000  C
  H110     1.0000 0.29709  0.32741  0.24169  Biso   1.000  H
  H111     1.0000 0.34689  0.36619  0.18900  Biso   1.000  H
  C114     1.0000 0.27589  0.41160  0.26337  Biso   1.000  C
  C115     1.0000 0.78388  0.06498  0.29437  Biso   1.000  C
  C116     1.0000 0.80314  0.97213  0.34772  Biso   1.000  C
  H112     1.0000 0.96981  0.27281  0.48730  Biso   1.000  H
  H113     1.0000 0.02473  0.25621  0.56679  Biso   1.000  H
  C117     1.0000 0.10667  0.25110  0.48730  Biso   1.000  C
  O15      1.0000 0.65273  0.07929  0.14007  Biso   1.000  O
  C118     1.0000 0.41979  0.03989  0.07370  Biso   1.000  C
  H114     1.0000 0.78392  0.13691  0.19358  Biso   1.000  H
  C119     1.0000 0.81423  0.21252  0.24158  Biso   1.000  C
  H115     1.0000 0.21518  0.41499  0.22839  Biso   1.000  H
  H116     1.0000 0.25990  0.40592  0.31352  Biso   1.000  H
  C120     1.0000 0.33343  0.46183  0.26177  Biso   1.000  C
  O16      1.0000 0.77583  0.04079  0.22569  Biso   1.000  O
  C121     1.0000 0.80414  0.92451  0.34248  Biso   1.000  C
  H117     1.0000 0.10083  0.23639  0.43649  Biso   1.000  H
  H118     1.0000 0.15623  0.22948  0.51907  Biso   1.000  H
  C122     1.0000 0.13738  0.31069  0.48768  Biso   1.000  C
  H119     1.0000 0.09049  0.26492  0.43621  Biso   1.000  H
  H120     1.0000 0.12969  0.21322  0.48299  Biso   1.000  H
  C123     1.0000 0.19409  0.28310  0.52078  Biso   1.000  C
  C124     1.0000 0.68081  0.03449  0.18691  Biso   1.000  C
  Br7      1.0000 0.36667  0.98382  0.01776  Biso   1.000  Br
  H121     1.0000 0.79912  0.23271  0.19441  Biso   1.000  H
  H122     1.0000 0.79081  0.23459  0.28031  Biso   1.000  H
  C125     1.0000 0.92160  0.20631  0.26050  Biso   1.000  C
  H123     1.0000 0.35182  0.46669  0.21229  Biso   1.000  H
  H124     1.0000 0.39270  0.45921  0.29840  Biso   1.000  H
  C126     1.0000 0.26987  0.51230  0.28091  Biso   1.000  C
  Br8      1.0000 0.80215  0.85025  0.33901  Biso   1.000  Br
  H125     1.0000 0.08479  0.33231  0.45949  Biso   1.000  H
  H126     1.0000 0.14713  0.32410  0.53921  Biso   1.000  H
  C127     1.0000 0.22822  0.32062  0.45552  Biso   1.000  C
  H127     1.0000 0.15362  0.33681  0.43560  Biso   1.000  H
  H128     1.0000 0.08613  0.33971  0.49789  Biso   1.000  H
  H129     1.0000 0.20503  0.28261  0.57540  Biso   1.000  H
  H130     1.0000 0.25324  0.27211  0.50158  Biso   1.000  H
  C128     1.0000 0.15202  0.33632  0.48890  Biso   1.000  C
  H131     1.0000 0.67719  0.00061  0.15717  Biso   1.000  H
  H132     1.0000 0.63570  0.03082  0.22288  Biso   1.000  H
  H133     1.0000 0.94169  0.17521  0.23198  Biso   1.000  H
  H134     1.0000 0.93753  0.19679  0.31352  Biso   1.000  H
  C129     1.0000 0.98061  0.25629  0.24588  Biso   1.000  C
  H135     1.0000 0.21021  0.51369  0.24550  Biso   1.000  H
  H136     1.0000 0.30582  0.54631  0.27810  Biso   1.000  H
  H137     1.0000 0.25470  0.50793  0.33090  Biso   1.000  H
  H138     1.0000 0.21670  0.31220  0.40261  Biso   1.000  H
  H139     1.0000 0.27962  0.29712  0.48029  Biso   1.000  H
  H140     1.0000 0.24731  0.35900  0.46258  Biso   1.000  H
  H141     1.0000 0.19060  0.36681  0.51229  Biso   1.000  H
  H142     1.0000 0.97038  0.26291  0.19198  Biso   1.000  H
  C130     1.0000 0.96004  0.30861  0.28362  Biso   1.000  C
  H143     1.0000 0.04932  0.24730  0.26089  Biso   1.000  H
  H144     1.0000 0.96230  0.30170  0.33702  Biso   1.000  H
  H145     1.0000 0.89452  0.32140  0.26337  Biso   1.000  H
  C131     1.0000 0.03278  0.35352  0.27269  Biso   1.000  C
  C132     1.0000 0.99822  0.40862  0.29702  Biso   1.000  C
  H146     1.0000 0.09602  0.34461  0.30199  Biso   1.000  H
  H147     1.0000 0.04062  0.35520  0.22012  Biso   1.000  H
  H148     1.0000 0.93079  0.41389  0.27540  Biso   1.000  H
  H149     1.0000 0.03732  0.43780  0.28042  Biso   1.000  H
  H150     1.0000 0.00433  0.40951  0.35092  Biso   1.000  H
  O17      1.0000 0.72421  0.54083  0.27429  Biso   1.000  O
  C133     1.0000 0.71609  0.56502  0.20561  Biso   1.000  C
  C134     1.0000 0.81923  0.53449  0.31308  Biso   1.000  C
  C135     1.0000 0.69883  0.53012  0.14327  Biso   1.000  C
  C136     1.0000 0.71963  0.62163  0.19789  Biso   1.000  C
  H151     1.0000 0.82278  0.50061  0.34281  Biso   1.000  H
  H152     1.0000 0.86434  0.53082  0.27711  Biso   1.000  H
  O18      1.0000 0.84731  0.57933  0.35991  Biso   1.000  O
  C137     1.0000 0.69691  0.47213  0.15232  Biso   1.000  C
  C138     1.0000 0.68609  0.55383  0.07348  Biso   1.000  C
  C139     1.0000 0.70962  0.64272  0.12760  Biso   1.000  C
  C140     1.0000 0.73998  0.65731  0.26569  Biso   1.000  C
  C141     1.0000 0.89681  0.62073  0.33161  Biso   1.000  C
  C142     1.0000 0.69591  0.42451  0.15750  Biso   1.000  C
  C143     1.0000 0.69168  0.60961  0.06399  Biso   1.000  C
  O19      1.0000 0.66481  0.51892  0.01368  Biso   1.000  O
  H153     1.0000 0.71502  0.68109  0.12170  Biso   1.000  H
  C144     1.0000 0.84812  0.66160  0.28737  Biso   1.000  C
  H154     1.0000 0.71612  0.63691  0.30640  Biso   1.000  H
  C145     1.0000 0.68581  0.71252  0.25841  Biso   1.000  C
  C146     1.0000 0.99664  0.62130  0.34971  Biso   1.000  C
  Br9      1.0000 0.69789  0.35025  0.16098  Biso   1.000  Br
  C147     1.0000 0.68259  0.63283  0.98599  Biso   1.000  C
  C148     1.0000 0.74255  0.50392  0.97815  Biso   1.000  C
  C149     1.0000 0.90292  0.70320  0.26282  Biso   1.000  C
  H155     1.0000 0.70092  0.73271  0.30557  Biso   1.000  H
  H156     1.0000 0.70923  0.73459  0.21968  Biso   1.000  H
  C150     1.0000 0.57837  0.70631  0.23948  Biso   1.000  C
  C151     1.0000 0.04667  0.66421  0.32439  Biso   1.000  C
  C152     1.0000 0.04448  0.57753  0.39362  Biso   1.000  C
  H157     1.0000 0.64092  0.60720  0.95256  Biso   1.000  H
  C153     1.0000 0.78166  0.63062  0.96436  Biso   1.000  C
  C154     1.0000 0.63491  0.68931  0.97744  Biso   1.000  C
  H158     1.0000 0.80218  0.50413  0.01478  Biso   1.000  H
  H159     1.0000 0.73239  0.46612  0.95918  Biso   1.000  H
  O20      1.0000 0.75447  0.53862  0.91979  Biso   1.000  O
  H160     1.0000 0.87059  0.73091  0.23242  Biso   1.000  H
  C155     1.0000 0.00048  0.70623  0.28020  Biso   1.000  C
  H161     1.0000 0.55828  0.67521  0.26800  Biso   1.000  H
  H162     1.0000 0.56252  0.69683  0.18652  Biso   1.000  H
  C156     1.0000 0.51943  0.75629  0.25410  Biso   1.000  C
  O21      1.0000 0.14536  0.66622  0.34877  Biso   1.000  O
  C157     1.0000 0.08018  0.53989  0.42628  Biso   1.000  C
  C158     1.0000 0.84552  0.67439  0.97468  Biso   1.000  C
  C159     1.0000 0.81467  0.58272  0.93518  Biso   1.000  C
  H163     1.0000 0.67369  0.71522  0.01131  Biso   1.000  H
  H164     1.0000 0.63506  0.70243  0.92646  Biso   1.000  H
  C160     1.0000 0.53359  0.69000  0.99327  Biso   1.000  C
  C161     1.0000 0.06130  0.74971  0.25179  Biso   1.000  C
  H165     1.0000 0.45072  0.74730  0.23910  Biso   1.000  H
  H166     1.0000 0.52959  0.76291  0.30800  Biso   1.000  H
  C162     1.0000 0.54001  0.80861  0.21642  Biso   1.000  C
  C163     1.0000 0.20667  0.64819  0.29967  Biso   1.000  C
  Br10     1.0000 0.13331  0.48377  0.48228  Biso   1.000  Br
  H167     1.0000 0.82412  0.70741  0.99399  Biso   1.000  H
  C164     1.0000 0.93900  0.67280  0.95835  Biso   1.000  C
  C165     1.0000 0.90936  0.57802  0.92094  Biso   1.000  C
  H168     1.0000 0.53348  0.67639  0.04408  Biso   1.000  H
  H169     1.0000 0.49481  0.66430  0.95907  Biso   1.000  H
  C166     1.0000 0.48517  0.74591  0.98599  Biso   1.000  C
  C167     1.0000 0.09303  0.72871  0.18101  Biso   1.000  C
  H170     1.0000 0.12051  0.75413  0.28919  Biso   1.000  H
  C168     1.0000 0.01111  0.80611  0.24279  Biso   1.000  C
  H171     1.0000 0.53769  0.80170  0.16302  Biso   1.000  H
  H172     1.0000 0.60552  0.82140  0.23661  Biso   1.000  H
  C169     1.0000 0.46719  0.85352  0.22729  Biso   1.000  C
  O22      1.0000 0.23534  0.68931  0.25471  Biso   1.000  O
  H173     1.0000 0.26470  0.63172  0.32880  Biso   1.000  H
  H174     1.0000 0.17354  0.61922  0.26778  Biso   1.000  H
  C170     1.0000 0.96871  0.62379  0.93176  Biso   1.000  C
  C171     1.0000 0.00637  0.72033  0.97164  Biso   1.000  C
  C172     1.0000 0.94562  0.52673  0.89728  Biso   1.000  C
  H175     1.0000 0.53023  0.77281  0.01269  Biso   1.000  H
  C173     1.0000 0.39330  0.75110  0.01269  Biso   1.000  C
  H176     1.0000 0.47530  0.75621  0.93314  Biso   1.000  H
  C174     1.0000 0.04040  0.73582  0.11138  Biso   1.000  C
  C175     1.0000 0.17640  0.69761  0.18718  Biso   1.000  C
  H177     1.0000 0.95141  0.80272  0.20682  Biso   1.000  H
  H178     1.0000 0.99303  0.81711  0.29068  Biso   1.000  H
  C176     1.0000 0.07427  0.85070  0.21681  Biso   1.000  C
  H179     1.0000 0.40402  0.84461  0.19800  Biso   1.000  H
  H180     1.0000 0.45943  0.85520  0.27992  Biso   1.000  H
  C177     1.0000 0.50184  0.90862  0.20302  Biso   1.000  C
  O23      1.0000 0.05894  0.61971  0.91024  Biso   1.000  O
  C178     1.0000 0.95812  0.77652  0.95713  Biso   1.000  C
  H181     1.0000 0.05155  0.71661  0.93496  Biso   1.000  H
  C179     1.0000 0.06853  0.71461  0.04871  Biso   1.000  C
  C180     1.0000 0.97628  0.48471  0.88205  Biso   1.000  C
  H182     1.0000 0.39921  0.73643  0.06350  Biso   1.000  H
  C181     1.0000 0.36259  0.81073  0.01230  Biso   1.000  C
  H183     1.0000 0.40948  0.76492  0.06377  Biso   1.000  H
  H184     1.0000 0.37027  0.71322  0.01699  Biso   1.000  H
  H185     1.0000 0.34380  0.72952  0.98086  Biso   1.000  H
  C182     1.0000 0.30587  0.78310  0.97915  Biso   1.000  C
  H186     1.0000 0.98253  0.75621  0.10680  Biso   1.000  H
  C183     1.0000 0.20752  0.67431  0.12529  Biso   1.000  C
  H187     1.0000 0.08531  0.84122  0.16639  Biso   1.000  H
  H188     1.0000 0.03742  0.88532  0.21311  Biso   1.000  H
  C184     1.0000 0.16330  0.86072  0.25929  Biso   1.000  C
  H189     1.0000 0.56918  0.91393  0.22459  Biso   1.000  H
  H190     1.0000 0.46273  0.93780  0.21962  Biso   1.000  H
  H191     1.0000 0.49572  0.90951  0.14912  Biso   1.000  H
  C185     1.0000 0.13867  0.61202  0.96734  Biso   1.000  C
  H192     1.0000 0.91469  0.77563  0.90914  Biso   1.000  H
  H193     1.0000 0.91858  0.78421  0.99608  Biso   1.000  H
  C186     1.0000 0.02886  0.82103  0.95598  Biso   1.000  C
  C187     1.0000 0.15099  0.68371  0.05671  Biso   1.000  C
  Br11     1.0000 0.02480  0.41990  0.85800  Biso   1.000  Br
  H194     1.0000 0.41518  0.83231  0.04049  Biso   1.000  H
  C188     1.0000 0.27183  0.82062  0.04452  Biso   1.000  C
  H195     1.0000 0.34642  0.83681  0.06438  Biso   1.000  H
  H196     1.0000 0.41391  0.83971  0.00210  Biso   1.000  H
  H197     1.0000 0.35291  0.82410  0.96078  Biso   1.000  H
  C189     1.0000 0.34802  0.83632  0.01109  Biso   1.000  C
  H198     1.0000 0.29501  0.78261  0.92459  Biso   1.000  H
  H199     1.0000 0.24679  0.77211  0.99834  Biso   1.000  H
  C190     1.0000 0.29120  0.64133  0.13157  Biso   1.000  C
  H200     1.0000 0.20288  0.82741  0.25829  Biso   1.000  H
  H201     1.0000 0.15308  0.86623  0.31098  Biso   1.000  H
  C191     1.0000 0.22408  0.91160  0.23661  Biso   1.000  C
  H202     1.0000 0.18711  0.58901  0.94814  Biso   1.000  H
  O24      1.0000 0.18239  0.66070  0.99476  Biso   1.000  O
  H203     1.0000 0.11681  0.59192  0.00850  Biso   1.000  H
  C192     1.0000 0.98533  0.87400  0.92558  Biso   1.000  C
  H204     1.0000 0.07754  0.80930  0.92574  Biso   1.000  H
  H205     1.0000 0.06217  0.82733  0.00690  Biso   1.000  H
  H206     1.0000 0.28326  0.81220  0.09737  Biso   1.000  H
  H207     1.0000 0.22042  0.79712  0.01969  Biso   1.000  H
  H208     1.0000 0.25273  0.85900  0.03740  Biso   1.000  H
  H209     1.0000 0.30936  0.86681  0.98764  Biso   1.000  H
  C193     1.0000 0.36063  0.61300  0.13687  Biso   1.000  C
  H210     1.0000 0.28479  0.91503  0.27159  Biso   1.000  H
  H211     1.0000 0.24009  0.90592  0.18652  Biso   1.000  H
  C194     1.0000 0.16661  0.96183  0.23821  Biso   1.000  C
  H212     1.0000 0.93439  0.88503  0.95416  Biso   1.000  H
  H213     1.0000 0.95489  0.86840  0.87378  Biso   1.000  H
  C195     1.0000 0.06216  0.92202  0.92856  Biso   1.000  C
  Br12     1.0000 0.46614  0.57075  0.14382  Biso   1.000  Br
  H214     1.0000 0.14822  0.96673  0.28770  Biso   1.000  H
  H215     1.0000 0.10727  0.95921  0.20158  Biso   1.000  H
  C196     1.0000 0.23010  0.01230  0.21907  Biso   1.000  C
  H216     1.0000 0.09376  0.92721  0.98014  Biso   1.000  H
  H217     1.0000 0.11207  0.91160  0.89877  Biso   1.000  H
  C197     1.0000 0.01706  0.97303  0.90059  Biso   1.000  C
  H218     1.0000 0.28983  0.01369  0.25449  Biso   1.000  H
  H219     1.0000 0.19422  0.04631  0.22188  Biso   1.000  H
  H220     1.0000 0.24527  0.00789  0.16909  Biso   1.000  H
  H221     1.0000 0.96630  0.98320  0.92966  Biso   1.000  H
  H222     1.0000 0.98686  0.96820  0.84856  Biso   1.000  H
  C198     1.0000 0.09061  0.01770  0.90555  Biso   1.000  C
  H223     1.0000 0.13575  0.01390  0.95156  Biso   1.000  H
  H224     1.0000 0.05850  0.05329  0.90495  Biso   1.000  H
  H225     1.0000 0.12540  0.01529  0.86346  Biso   1.000  H
  O25      1.0000 0.27580  0.45921  0.72568  Biso   1.000  O
  C199     1.0000 0.18078  0.46551  0.68689  Biso   1.000  C
  C200     1.0000 0.28393  0.43502  0.79441  Biso   1.000  C
  O26      1.0000 0.15271  0.42071  0.64011  Biso   1.000  O
  H226     1.0000 0.17724  0.49943  0.65721  Biso   1.000  H
  H227     1.0000 0.13567  0.46923  0.72286  Biso   1.000  H
  C201     1.0000 0.28038  0.37841  0.80208  Biso   1.000  C
  C202     1.0000 0.30118  0.46992  0.85670  Biso   1.000  C
  C203     1.0000 0.10321  0.37931  0.66841  Biso   1.000  C
  C204     1.0000 0.26003  0.34269  0.73428  Biso   1.000  C
  C205     1.0000 0.29039  0.35732  0.87237  Biso   1.000  C
  C206     1.0000 0.31392  0.44622  0.92649  Biso   1.000  C
  C207     1.0000 0.30311  0.52791  0.84771  Biso   1.000  C
  C208     1.0000 0.15189  0.33840  0.71260  Biso   1.000  C
  C209     1.0000 0.00338  0.37870  0.65032  Biso   1.000  C
  H228     1.0000 0.28389  0.36309  0.69357  Biso   1.000  H
  C210     1.0000 0.31420  0.28752  0.74156  Biso   1.000  C
  H229     1.0000 0.28499  0.31891  0.87827  Biso   1.000  H
  C211     1.0000 0.30833  0.39039  0.93597  Biso   1.000  C
  O27      1.0000 0.33520  0.48112  0.98629  Biso   1.000  O
  C212     1.0000 0.30411  0.57553  0.84246  Biso   1.000  C
  C213     1.0000 0.09710  0.29680  0.73721  Biso   1.000  C
  C214     1.0000 0.95334  0.33579  0.67558  Biso   1.000  C
  C215     1.0000 0.95554  0.42251  0.60640  Biso   1.000  C
  H230     1.0000 0.29909  0.26729  0.69440  Biso   1.000  H
  H231     1.0000 0.29078  0.26541  0.78029  Biso   1.000  H
  C216     1.0000 0.42164  0.29369  0.76049  Biso   1.000  C
  C217     1.0000 0.31743  0.36721  0.01404  Biso   1.000  C
  C218     1.0000 0.25746  0.49612  0.02181  Biso   1.000  C
  Br13     1.0000 0.30212  0.64979  0.83899  Biso   1.000  Br
  H232     1.0000 0.12944  0.26909  0.76760  Biso   1.000  H
  C219     1.0000 0.99953  0.29381  0.71977  Biso   1.000  C
  O28      1.0000 0.85465  0.33382  0.65120  Biso   1.000  O
  C220     1.0000 0.91983  0.46011  0.57369  Biso   1.000  C
  H233     1.0000 0.44173  0.32479  0.73196  Biso   1.000  H
  H234     1.0000 0.43750  0.30321  0.81350  Biso   1.000  H
  C221     1.0000 0.48058  0.24371  0.74587  Biso   1.000  C
  H235     1.0000 0.35909  0.39280  0.04741  Biso   1.000  H
  C222     1.0000 0.21835  0.36942  0.03561  Biso   1.000  C
  C223     1.0000 0.36510  0.31069  0.02253  Biso   1.000  C
  H236     1.0000 0.19783  0.49591  0.98518  Biso   1.000  H
  H237     1.0000 0.26763  0.53392  0.04085  Biso   1.000  H
  O29      1.0000 0.24556  0.46142  0.08024  Biso   1.000  O
  C224     1.0000 0.93871  0.25029  0.74818  Biso   1.000  C
  C225     1.0000 0.79334  0.35181  0.70030  Biso   1.000  C
  Br14     1.0000 0.86671  0.51623  0.51775  Biso   1.000  Br
  H238     1.0000 0.54929  0.25270  0.76087  Biso   1.000  H
  H239     1.0000 0.47042  0.23709  0.69197  Biso   1.000  H
  C226     1.0000 0.46001  0.19139  0.78360  Biso   1.000  C
  C227     1.0000 0.15450  0.32561  0.02535  Biso   1.000  C
  C228     1.0000 0.18535  0.41732  0.06485  Biso   1.000  C
  H240     1.0000 0.32632  0.28482  0.98866  Biso   1.000  H
  H241     1.0000 0.36495  0.29761  0.07351  Biso   1.000  H
  C229     1.0000 0.46642  0.31000  0.00670  Biso   1.000  C
  C230     1.0000 0.90698  0.27129  0.81896  Biso   1.000  C
  H242     1.0000 0.87950  0.24591  0.71078  Biso   1.000  H
  C231     1.0000 0.98890  0.19389  0.75718  Biso   1.000  C
  H243     1.0000 0.73531  0.36832  0.67117  Biso   1.000  H
  H244     1.0000 0.82655  0.38082  0.73218  Biso   1.000  H
  O30      1.0000 0.76475  0.31069  0.74531  Biso   1.000  O
  H245     1.0000 0.46234  0.19830  0.83700  Biso   1.000  H
  H246     1.0000 0.39450  0.17860  0.76341  Biso   1.000  H
  C232     1.0000 0.53282  0.14652  0.77268  Biso   1.000  C
  C233     1.0000 0.06101  0.32720  0.04162  Biso   1.000  C
  H247     1.0000 0.17590  0.29259  0.00604  Biso   1.000  H
  C234     1.0000 0.09065  0.42202  0.07902  Biso   1.000  C
  H248     1.0000 0.46653  0.32361  0.95589  Biso   1.000  H
  H249     1.0000 0.50520  0.33570  0.04090  Biso   1.000  H
  C235     1.0000 0.51485  0.25409  0.01404  Biso   1.000  C
  C236     1.0000 0.95961  0.26422  0.88859  Biso   1.000  C
  C237     1.0000 0.82361  0.30239  0.81278  Biso   1.000  C
  H250     1.0000 0.04861  0.19732  0.79320  Biso   1.000  H
  H251     1.0000 0.00698  0.18289  0.70929  Biso   1.000  H
  C238     1.0000 0.92574  0.14930  0.78316  Biso   1.000  C
  H252     1.0000 0.59599  0.15539  0.80197  Biso   1.000  H
  H253     1.0000 0.54059  0.14480  0.72010  Biso   1.000  H
  C239     1.0000 0.49819  0.09138  0.79701  Biso   1.000  C
  C240     1.0000 0.99364  0.27971  0.02832  Biso   1.000  C
  C241     1.0000 0.03130  0.37621  0.06821  Biso   1.000  C
  C242     1.0000 0.05440  0.47331  0.10275  Biso   1.000  C
  H254     1.0000 0.46978  0.22719  0.98728  Biso   1.000  H
  C243     1.0000 0.60671  0.24890  0.98728  Biso   1.000  C
  H255     1.0000 0.52471  0.24379  0.06683  Biso   1.000  H
  H256     1.0000 0.01748  0.24379  0.89316  Biso   1.000  H
  C244     1.0000 0.93149  0.28539  0.95131  Biso   1.000  C
  C245     1.0000 0.79249  0.32569  0.87468  Biso   1.000  C
  H257     1.0000 0.91470  0.15882  0.83358  Biso   1.000  H
  H258     1.0000 0.96260  0.11472  0.78691  Biso   1.000  H
  C246     1.0000 0.83671  0.13928  0.74068  Biso   1.000  C
  H259     1.0000 0.43083  0.08611  0.77538  Biso   1.000  H
  H260     1.0000 0.53729  0.06220  0.78040  Biso   1.000  H
  H261     1.0000 0.50430  0.09049  0.85091  Biso   1.000  H
  H262     1.0000 0.94846  0.28339  0.06501  Biso   1.000  H
  C247     1.0000 0.04189  0.22352  0.04283  Biso   1.000  C
  O31      1.0000 0.94107  0.38029  0.08973  Biso   1.000  O
  C248     1.0000 0.02373  0.51533  0.11792  Biso   1.000  C
  H263     1.0000 0.60080  0.26361  0.93647  Biso   1.000  H
  C249     1.0000 0.63742  0.18931  0.98767  Biso   1.000  C
  H264     1.0000 0.59053  0.23512  0.93619  Biso   1.000  H
  H265     1.0000 0.62974  0.28682  0.98298  Biso   1.000  H
  H266     1.0000 0.65621  0.27052  0.01911  Biso   1.000  H
  C250     1.0000 0.69414  0.21690  0.02082  Biso   1.000  C
  C251     1.0000 0.84903  0.31629  0.94331  Biso   1.000  C
  C252     1.0000 0.70881  0.35871  0.86839  Biso   1.000  C
  H267     1.0000 0.79713  0.17259  0.74167  Biso   1.000  H
  H268     1.0000 0.84693  0.13381  0.68899  Biso   1.000  H
  C253     1.0000 0.77594  0.08840  0.76341  Biso   1.000  C
  C254     1.0000 0.97116  0.17901  0.04405  Biso   1.000  C
  H269     1.0000 0.08532  0.22442  0.09083  Biso   1.000  H
  H270     1.0000 0.08144  0.21579  0.00394  Biso   1.000  H
  C255     1.0000 0.86134  0.38802  0.03263  Biso   1.000  C
  Br15     1.0000 0.97522  0.58015  0.14203  Biso   1.000  Br
  H271     1.0000 0.58483  0.16769  0.95948  Biso   1.000  H
  C256     1.0000 0.72819  0.17942  0.95550  Biso   1.000  C
  H272     1.0000 0.65359  0.16319  0.93559  Biso   1.000  H
  H273     1.0000 0.58610  0.16029  0.99787  Biso   1.000  H
  H274     1.0000 0.64711  0.17590  0.03925  Biso   1.000  H
  C257     1.0000 0.65199  0.16368  0.98888  Biso   1.000  C
  H275     1.0000 0.70501  0.21739  0.07544  Biso   1.000  H
  H276     1.0000 0.75322  0.22789  0.00162  Biso   1.000  H
  O32      1.0000 0.81762  0.33930  0.00521  Biso   1.000  O
  C258     1.0000 0.63938  0.38700  0.86310  Biso   1.000  C
  H277     1.0000 0.71522  0.08501  0.72838  Biso   1.000  H
  H278     1.0000 0.75994  0.09408  0.81350  Biso   1.000  H
  C259     1.0000 0.83341  0.03821  0.76181  Biso   1.000  C
  H279     1.0000 0.93784  0.17272  0.99307  Biso   1.000  H
  H280     1.0000 0.92247  0.19070  0.07422  Biso   1.000  H
  C260     1.0000 0.01470  0.12600  0.07444  Biso   1.000  C
  H281     1.0000 0.88320  0.40812  0.99147  Biso   1.000  H
  H282     1.0000 0.81290  0.41103  0.05183  Biso   1.000  H
  H283     1.0000 0.71675  0.18780  0.90260  Biso   1.000  H
  H284     1.0000 0.77959  0.20292  0.98027  Biso   1.000  H
  H285     1.0000 0.74728  0.14100  0.96256  Biso   1.000  H
  H286     1.0000 0.69065  0.13319  0.01233  Biso   1.000  H
  Br16     1.0000 0.53387  0.42930  0.85615  Biso   1.000  Br
  C261     1.0000 0.76991  0.98770  0.78090  Biso   1.000  C
  H287     1.0000 0.85179  0.03331  0.71227  Biso   1.000  H
  H288     1.0000 0.89274  0.04079  0.79839  Biso   1.000  H
  C262     1.0000 0.93785  0.07802  0.07141  Biso   1.000  C
  H289     1.0000 0.06562  0.11501  0.04581  Biso   1.000  H
  H290     1.0000 0.04513  0.13160  0.12625  Biso   1.000  H
  H291     1.0000 0.71018  0.98631  0.74548  Biso   1.000  H
  H292     1.0000 0.80579  0.95374  0.77808  Biso   1.000  H
  H293     1.0000 0.75474  0.99211  0.83088  Biso   1.000  H
  H294     1.0000 0.90625  0.07279  0.01983  Biso   1.000  H
  H295     1.0000 0.88794  0.08840  0.10120  Biso   1.000  H
  C263     1.0000 0.98296  0.02701  0.09944  Biso   1.000  C
  C264     1.0000 0.90940  0.98230  0.09442  Biso   1.000  C
  H296     1.0000 0.03371  0.01680  0.07031  Biso   1.000  H
  H297     1.0000 0.01315  0.03180  0.15140  Biso   1.000  H
  H298     1.0000 0.86426  0.98610  0.04841  Biso   1.000  H
  H299     1.0000 0.94151  0.94671  0.09502  Biso   1.000  H
  H300     1.0000 0.87462  0.98471  0.13651  Biso   1.000  H
