data_image0
_cell_length_a       15.737
_cell_length_b       17.926
_cell_length_c       18.154
_cell_angle_alpha    107.57
_cell_angle_beta     100.55
_cell_angle_gamma    101.08

_symmetry_space_group_name_H-M    "P 1"
_symmetry_int_tables_number       1

loop_
  _symmetry_equiv_pos_as_xyz
  'x, y, z'

loop_
  _atom_site_label
  _atom_site_occupancy
  _atom_site_fract_x
  _atom_site_fract_y
  _atom_site_fract_z
  _atom_site_thermal_displace_type
  _atom_site_B_iso_or_equiv
  _atom_site_type_symbol
  O1       1.0000 0.72332  0.39337  0.80592  Biso   1.000  O
  C1       1.0000 0.81309  0.43758  0.83492  Biso   1.000  C
  C2       1.0000 0.69441  0.33598  0.83983  Biso   1.000  C
  H1       1.0000 0.81761  0.49126  0.83193  Biso   1.000  H
  H2       1.0000 0.83271  0.44396  0.89078  Biso   1.000  H
  O2       1.0000 0.87059  0.40368  0.79510  Biso   1.000  O
  C3       1.0000 0.71021  0.25848  0.81172  Biso   1.000  C
  C4       1.0000 0.64873  0.35710  0.89861  Biso   1.000  C
  C5       1.0000 0.90875  0.34987  0.82272  Biso   1.000  C
  C6       1.0000 0.76481  0.24034  0.75539  Biso   1.000  C
  C7       1.0000 0.67709  0.20427  0.84832  Biso   1.000  C
  C8       1.0000 0.61562  0.30020  0.92959  Biso   1.000  C
  C9       1.0000 0.63759  0.43768  0.92839  Biso   1.000  C
  C10      1.0000 0.99662  0.37977  0.87230  Biso   1.000  C
  C11      1.0000 0.86208  0.26844  0.79988  Biso   1.000  C
  H3       1.0000 0.75619  0.27317  0.72148  Biso   1.000  H
  C12      1.0000 0.73656  0.15045  0.69858  Biso   1.000  C
  C13      1.0000 0.62951  0.22210  0.90632  Biso   1.000  C
  H4       1.0000 0.68768  0.15319  0.83283  Biso   1.000  H
  O3       1.0000 0.56541  0.32039  0.98412  Biso   1.000  O
  C14      1.0000 0.62596  0.50180  0.96062  Biso   1.000  C
  C15      1.0000 0.03868  0.32591  0.89323  Biso   1.000  C
  C16      1.0000 0.03973  0.46569  0.89771  Biso   1.000  C
  C17      1.0000 0.90640  0.21920  0.82823  Biso   1.000  C
  H5       1.0000 0.74379  0.11647  0.73069  Biso   1.000  H
  H6       1.0000 0.67342  0.13639  0.67173  Biso   1.000  H
  C18      1.0000 0.78892  0.13076  0.63531  Biso   1.000  C
  C19      1.0000 0.59511  0.16260  0.94262  Biso   1.000  C
  C20      1.0000 0.60934  0.34433  0.06563  Biso   1.000  C
  Br1      1.0000 0.60451  0.59769  0.00822  Biso   1.000  Br
  C21      1.0000 0.99551  0.24556  0.87469  Biso   1.000  C
  O4       1.0000 0.12993  0.35611  0.93592  Biso   1.000  O
  C22      1.0000 0.07433  0.53780  0.92361  Biso   1.000  C
  H7       1.0000 0.87542  0.16549  0.81573  Biso   1.000  H
  H8       1.0000 0.85221  0.15645  0.65953  Biso   1.000  H
  H9       1.0000 0.76930  0.15203  0.59381  Biso   1.000  H
  C23      1.0000 0.77390  0.03763  0.59758  Biso   1.000  C
  H10      1.0000 0.54139  0.17538  0.95751  Biso   1.000  H
  C24      1.0000 0.56587  0.07367  0.88641  Biso   1.000  C
  C25      1.0000 0.66394  0.17754  0.02102  Biso   1.000  C
  H11      1.0000 0.67264  0.36810  0.07352  Biso   1.000  H
  H12      1.0000 0.58524  0.38553  0.09655  Biso   1.000  H
  O5       1.0000 0.59941  0.27922  0.09332  Biso   1.000  O
  C26      1.0000 0.04080  0.18908  0.90459  Biso   1.000  C
  C27      1.0000 0.15021  0.37623  0.02012  Biso   1.000  C
  Br2      1.0000 0.12321  0.65236  0.97707  Biso   1.000  Br
  Br3      1.0000 0.12715  0.63644  0.94178  Biso   1.000  Br
  H13      1.0000 0.79308  0.01734  0.63992  Biso   1.000  H
  H14      1.0000 0.71008  0.01294  0.57491  Biso   1.000  H
  C28      1.0000 0.82155  0.00974  0.53317  Biso   1.000  C
  H15      1.0000 0.53146  0.07049  0.83480  Biso   1.000  H
  H16      1.0000 0.61897  0.05576  0.87840  Biso   1.000  H
  C29      1.0000 0.51277  0.01909  0.91511  Biso   1.000  C
  C30      1.0000 0.66642  0.23852  0.09140  Biso   1.000  C
  C31      1.0000 0.73100  0.13660  0.02323  Biso   1.000  C
  C32      1.0000 0.03068  0.19861  0.98729  Biso   1.000  C
  H17      1.0000 0.10498  0.20847  0.90973  Biso   1.000  H
  C33      1.0000 0.01055  0.09920  0.84730  Biso   1.000  C
  H18      1.0000 0.10098  0.39296  0.03956  Biso   1.000  H
  H19      1.0000 0.20324  0.42152  0.04494  Biso   1.000  H
  O6       1.0000 0.16520  0.30950  0.04291  Biso   1.000  O
  H20      1.0000 0.88518  0.03625  0.55422  Biso   1.000  H
  H21      1.0000 0.79938  0.02586  0.48850  Biso   1.000  H
  C34      1.0000 0.80785  0.91755  0.50369  Biso   1.000  C
  H22      1.0000 0.46246  0.03961  0.92761  Biso   1.000  H
  H23      1.0000 0.54897  0.01880  0.96433  Biso   1.000  H
  C35      1.0000 0.47707  0.93187  0.85603  Biso   1.000  C
  C36      1.0000 0.73265  0.25902  0.16143  Biso   1.000  C
  H24      1.0000 0.73226  0.09739  0.97659  Biso   1.000  H
  C37      1.0000 0.79602  0.15313  0.09344  Biso   1.000  C
  C38      1.0000 0.96121  0.15039  0.00200  Biso   1.000  C
  C39      1.0000 0.09185  0.26122  0.05134  Biso   1.000  C
  H25      1.0000 0.94580  0.08117  0.83558  Biso   1.000  H
  H26      1.0000 0.03476  0.06698  0.87589  Biso   1.000  H
  C40      1.0000 0.03577  0.08007  0.76992  Biso   1.000  C
  H27      1.0000 0.83177  0.90209  0.54842  Biso   1.000  H
  H28      1.0000 0.74420  0.89147  0.48480  Biso   1.000  H
  C41      1.0000 0.85227  0.88637  0.43672  Biso   1.000  C
  H29      1.0000 0.42336  0.90529  0.86668  Biso   1.000  H
  H30      1.0000 0.46145  0.93219  0.80191  Biso   1.000  H
  C42      1.0000 0.54305  0.88808  0.86303  Biso   1.000  C
  C43      1.0000 0.79624  0.21431  0.16101  Biso   1.000  C
  C44      1.0000 0.73685  0.32614  0.23116  Biso   1.000  C
  C45      1.0000 0.87211  0.10984  0.09481  Biso   1.000  C
  H31      1.0000 0.91996  0.10890  0.95889  Biso   1.000  H
  C46      1.0000 0.94994  0.16102  0.07753  Biso   1.000  C
  C47      1.0000 0.08274  0.27515  0.12914  Biso   1.000  C
  C48      1.0000 0.01108  0.98876  0.72417  Biso   1.000  C
  H32      1.0000 0.09991  0.10207  0.78003  Biso   1.000  H
  H33      1.0000 0.00550  0.10599  0.73721  Biso   1.000  H
  H34      1.0000 0.83217  0.90513  0.39342  Biso   1.000  H
  H35      1.0000 0.91668  0.90851  0.45669  Biso   1.000  H
  C49      1.0000 0.83139  0.79703  0.40550  Biso   1.000  C
  H36      1.0000 0.55164  0.88150  0.91470  Biso   1.000  H
  H37      1.0000 0.59949  0.92026  0.86159  Biso   1.000  H
  C50      1.0000 0.52043  0.80478  0.79833  Biso   1.000  C
  O7       1.0000 0.85882  0.23195  0.23355  Biso   1.000  O
  C51      1.0000 0.74065  0.38353  0.28593  Biso   1.000  C
  H38      1.0000 0.89244  0.11092  0.14965  Biso   1.000  H
  C52      1.0000 0.84029  0.02051  0.04004  Biso   1.000  C
  C53      1.0000 0.01034  0.22450  0.14181  Biso   1.000  C
  C54      1.0000 0.14211  0.34262  0.19713  Biso   1.000  C
  H39      1.0000 0.94638  0.96937  0.70570  Biso   1.000  H
  H40      1.0000 0.03068  0.96249  0.76119  Biso   1.000  H
  C55      1.0000 0.04824  0.96295  0.65582  Biso   1.000  C
  H41      1.0000 0.76675  0.77514  0.38930  Biso   1.000  H
  H42      1.0000 0.85483  0.77874  0.44820  Biso   1.000  H
  C56      1.0000 0.86885  0.76272  0.33500  Biso   1.000  C
  H43      1.0000 0.51536  0.81163  0.74678  Biso   1.000  H
  H44      1.0000 0.46247  0.77370  0.79773  Biso   1.000  H
  C57      1.0000 0.58872  0.75597  0.80849  Biso   1.000  C
  C58      1.0000 0.94506  0.28204  0.24545  Biso   1.000  C
  Br4      1.0000 0.74580  0.47358  0.36774  Biso   1.000  Br
  H45      1.0000 0.81227  0.01697  0.98628  Biso   1.000  H
  H46      1.0000 0.89184  0.99823  0.03764  Biso   1.000  H
  C59      1.0000 0.77458  0.97092  0.06916  Biso   1.000  C
  O8       1.0000 0.00570  0.23785  0.21973  Biso   1.000  O
  C60      1.0000 0.19107  0.39716  0.25143  Biso   1.000  C
  H47      1.0000 0.11229  0.98786  0.67239  Biso   1.000  H
  H48      1.0000 0.02217  0.98268  0.61510  Biso   1.000  H
  C61      1.0000 0.03135  0.86826  0.61803  Biso   1.000  C
  H49      1.0000 0.93087  0.76207  0.35192  Biso   1.000  H
  H50      1.0000 0.86345  0.79150  0.29768  Biso   1.000  H
  C62      1.0000 0.80408  0.67652  0.30061  Biso   1.000  C
  H51      1.0000 0.93355  0.78355  0.35288  Biso   1.000  H
  H52      1.0000 0.84828  0.78475  0.29451  Biso   1.000  H
  C63      1.0000 0.84747  0.67012  0.29427  Biso   1.000  C
  H53      1.0000 0.64783  0.79187  0.81979  Biso   1.000  H
  H54      1.0000 0.58573  0.74186  0.85561  Biso   1.000  H
  C64      1.0000 0.58267  0.68076  0.74289  Biso   1.000  C
  H55      1.0000 0.93972  0.31924  0.21650  Biso   1.000  H
  H56      1.0000 0.96876  0.31413  0.30184  Biso   1.000  H
  H57      1.0000 0.72142  0.99083  0.06760  Biso   1.000  H
  H58      1.0000 0.80113  0.97826  0.12435  Biso   1.000  H
  C65      1.0000 0.74747  0.88061  0.01934  Biso   1.000  C
  Br5      1.0000 0.26579  0.48174  0.33401  Biso   1.000  Br
  H59      1.0000 0.96713  0.84444  0.59859  Biso   1.000  H
  H60      1.0000 0.05288  0.84879  0.66043  Biso   1.000  H
  C66      1.0000 0.07274  0.83674  0.55153  Biso   1.000  C
  H61      1.0000 0.81810  0.64456  0.33362  Biso   1.000  H
  H62      1.0000 0.74229  0.67834  0.29499  Biso   1.000  H
  C67      1.0000 0.82363  0.64390  0.22030  Biso   1.000  C
  H63      1.0000 0.85126  0.64571  0.33542  Biso   1.000  H
  C68      1.0000 0.75666  0.63160  0.23579  Biso   1.000  C
  H64      1.0000 0.89284  0.65780  0.26641  Biso   1.000  H
  H65      1.0000 0.56596  0.68796  0.69182  Biso   1.000  H
  H66      1.0000 0.64036  0.66845  0.74809  Biso   1.000  H
  C69      1.0000 0.51852  0.61695  0.74600  Biso   1.000  C
  H67      1.0000 0.72433  0.87321  0.96349  Biso   1.000  H
  H68      1.0000 0.79969  0.85941  0.02383  Biso   1.000  H
  C70      1.0000 0.67516  0.83294  0.04745  Biso   1.000  C
  H69      1.0000 0.13690  0.86156  0.56929  Biso   1.000  H
  H70      1.0000 0.04877  0.85254  0.50710  Biso   1.000  H
  C71      1.0000 0.05655  0.74676  0.52301  Biso   1.000  C
  H71      1.0000 0.80053  0.67180  0.18610  Biso   1.000  H
  H72      1.0000 0.88795  0.65491  0.22730  Biso   1.000  H
  C72      1.0000 0.78404  0.55831  0.18233  Biso   1.000  C
  H73      1.0000 0.75006  0.66219  0.20021  Biso   1.000  H
  H74      1.0000 0.71175  0.63822  0.26569  Biso   1.000  H
  C73      1.0000 0.73503  0.54403  0.18502  Biso   1.000  C
  H75      1.0000 0.49051  0.57754  0.69272  Biso   1.000  H
  H76      1.0000 0.47232  0.63703  0.76819  Biso   1.000  H
  C74      1.0000 0.56626  0.57826  0.79850  Biso   1.000  C
  H77      1.0000 0.65611  0.77715  0.01115  Biso   1.000  H
  H78      1.0000 0.62370  0.85512  0.04285  Biso   1.000  H
  C75      1.0000 0.70340  0.83322  0.13422  Biso   1.000  C
  H79      1.0000 0.99296  0.72205  0.49933  Biso   1.000  H
  H80      1.0000 0.99865  0.72105  0.52761  Biso   1.000  H
  H81      1.0000 0.07388  0.73044  0.56869  Biso   1.000  H
  C76      1.0000 0.11004  0.71272  0.45920  Biso   1.000  C
  H82      1.0000 0.10266  0.73113  0.55380  Biso   1.000  H
  C77      1.0000 0.06006  0.72293  0.43702  Biso   1.000  C
  H83      1.0000 0.76204  0.54573  0.12582  Biso   1.000  H
  H84      1.0000 0.73498  0.54243  0.20392  Biso   1.000  H
  H85      1.0000 0.82794  0.52971  0.19178  Biso   1.000  H
  H86      1.0000 0.77927  0.53501  0.15590  Biso   1.000  H
  H87      1.0000 0.67693  0.52800  0.14830  Biso   1.000  H
  H88      1.0000 0.73437  0.51132  0.21881  Biso   1.000  H
  H89      1.0000 0.58173  0.61075  0.85490  Biso   1.000  H
  H90      1.0000 0.61895  0.56510  0.78302  Biso   1.000  H
  C78      1.0000 0.48683  0.50206  0.77518  Biso   1.000  C
  H91      1.0000 0.74609  0.80093  0.13661  Biso   1.000  H
  H92      1.0000 0.73330  0.88834  0.16992  Biso   1.000  H
  C79      1.0000 0.62649  0.80061  0.16251  Biso   1.000  C
  H93      1.0000 0.08612  0.72343  0.41130  Biso   1.000  H
  H94      1.0000 0.17177  0.74406  0.48043  Biso   1.000  H
  C80      1.0000 0.10763  0.62173  0.43409  Biso   1.000  C
  H95      1.0000 0.11895  0.74311  0.43139  Biso   1.000  H
  C81      1.0000 0.03307  0.62915  0.41459  Biso   1.000  C
  H96      1.0000 0.01624  0.74082  0.40568  Biso   1.000  H
  H97      1.0000 0.47775  0.49495  0.82440  Biso   1.000  H
  H98      1.0000 0.43353  0.51394  0.75031  Biso   1.000  H
  C82      1.0000 0.49181  0.42105  0.72029  Biso   1.000  C
  H99      1.0000 0.57759  0.82163  0.14385  Biso   1.000  H
  H100     1.0000 0.60799  0.74241  0.13494  Biso   1.000  H
  C83      1.0000 0.63407  0.81465  0.24670  Biso   1.000  C
  H101     1.0000 0.13473  0.61126  0.48121  Biso   1.000  H
  H102     1.0000 0.14473  0.61104  0.39701  Biso   1.000  H
  C84      1.0000 0.01208  0.56007  0.39402  Biso   1.000  C
  H103     1.0000 0.07013  0.61456  0.45442  Biso   1.000  H
  C85      1.0000 0.04702  0.58864  0.33398  Biso   1.000  C
  H104     1.0000 0.97125  0.61041  0.41417  Biso   1.000  H
  H105     1.0000 0.54880  0.41195  0.73841  Biso   1.000  H
  H106     1.0000 0.48485  0.42165  0.66683  Biso   1.000  H
  H107     1.0000 0.44480  0.37849  0.72082  Biso   1.000  H
  H108     1.0000 0.67870  0.78913  0.26482  Biso   1.000  H
  H109     1.0000 0.65711  0.87262  0.27553  Biso   1.000  H
  C86      1.0000 0.55469  0.78696  0.26961  Biso   1.000  C
  H110     1.0000 0.96925  0.57644  0.42368  Biso   1.000  H
  H111     1.0000 0.99047  0.55726  0.33942  Biso   1.000  H
  C87      1.0000 0.02502  0.47505  0.39599  Biso   1.000  C
  C88      1.0000 0.01206  0.49734  0.30701  Biso   1.000  C
  H112     1.0000 0.11016  0.60254  0.33631  Biso   1.000  H
  H113     1.0000 0.01578  0.60815  0.29553  Biso   1.000  H
  H114     1.0000 0.53577  0.72824  0.24634  Biso   1.000  H
  H115     1.0000 0.50768  0.80726  0.24622  Biso   1.000  H
  C89      1.0000 0.56226  0.81123  0.35972  Biso   1.000  C
  H116     1.0000 0.96850  0.43531  0.38170  Biso   1.000  H
  H117     1.0000 0.04954  0.49393  0.45280  Biso   1.000  H
  H118     1.0000 0.06533  0.45204  0.36908  Biso   1.000  H
  H119     1.0000 0.03745  0.47875  0.34839  Biso   1.000  H
  H120     1.0000 0.94763  0.48312  0.29768  Biso   1.000  H
  H121     1.0000 0.02786  0.47235  0.25911  Biso   1.000  H
  H122     1.0000 0.61766  0.80526  0.38813  Biso   1.000  H
  H123     1.0000 0.51198  0.77938  0.37043  Biso   1.000  H
  C90      1.0000 0.56107  0.90288  0.38305  Biso   1.000  C
  H124     1.0000 0.60089  0.78144  0.37946  Biso   1.000  H
  H125     1.0000 0.59516  0.86804  0.38323  Biso   1.000  H
  C91      1.0000 0.48508  0.80306  0.39602  Biso   1.000  C
  H126     1.0000 0.62081  0.93566  0.39004  Biso   1.000  H
  H127     1.0000 0.52099  0.90944  0.33933  Biso   1.000  H
  C92      1.0000 0.53111  0.93306  0.45905  Biso   1.000  C
  H128     1.0000 0.43949  0.82226  0.36935  Biso   1.000  H
  H129     1.0000 0.50515  0.83887  0.45152  Biso   1.000  H
  C93      1.0000 0.43805  0.71806  0.39501  Biso   1.000  C
  H130     1.0000 0.57162  0.98350  0.49535  Biso   1.000  H
  H131     1.0000 0.52717  0.89357  0.48524  Biso   1.000  H
  H132     1.0000 0.47266  0.94113  0.44380  Biso   1.000  H
  C94      1.0000 0.37443  0.68317  0.43322  Biso   1.000  C
  H133     1.0000 0.37764  0.68037  0.38185  Biso   1.000  H
  H134     1.0000 0.46865  0.67966  0.37150  Biso   1.000  H
  H135     1.0000 0.37704  0.70255  0.36505  Biso   1.000  H
  H136     1.0000 0.44055  0.72065  0.44930  Biso   1.000  H
  C95      1.0000 0.35406  0.74683  0.48052  Biso   1.000  C
  N1       1.0000 0.38997  0.62573  0.45833  Biso   1.000  N
  H137     1.0000 0.34034  0.78595  0.45953  Biso   1.000  H
  C96      1.0000 0.35098  0.75761  0.55856  Biso   1.000  C
  C97      1.0000 0.38572  0.63294  0.53063  Biso   1.000  C
  C98      1.0000 0.37044  0.69768  0.58194  Biso   1.000  C
  C99      1.0000 0.33440  0.83469  0.61196  Biso   1.000  C
  H138     1.0000 0.39397  0.59068  0.54821  Biso   1.000  H
  H139     1.0000 0.37363  0.70077  0.63444  Biso   1.000  H
  C100     1.0000 0.36207  0.90525  0.60753  Biso   1.000  C
  C101     1.0000 0.29177  0.83190  0.66632  Biso   1.000  C
  H140     1.0000 0.38811  0.91120  0.56705  Biso   1.000  H
  C102     1.0000 0.35107  0.97311  0.66506  Biso   1.000  C
  C103     1.0000 0.27285  0.89858  0.71284  Biso   1.000  C
  H141     1.0000 0.27369  0.78280  0.67373  Biso   1.000  H
  N2       1.0000 0.29760  0.96981  0.71254  Biso   1.000  N
  H142     1.0000 0.38407  0.02431  0.67014  Biso   1.000  H
  H143     1.0000 0.23859  0.89107  0.74794  Biso   1.000  H
  O9       1.0000 0.27676  0.60672  0.19411  Biso   1.000  O
  C104     1.0000 0.18692  0.56250  0.16511  Biso   1.000  C
  C105     1.0000 0.30567  0.66411  0.16020  Biso   1.000  C
  H144     1.0000 0.18248  0.50882  0.16810  Biso   1.000  H
  H145     1.0000 0.16736  0.55610  0.10919  Biso   1.000  H
  O10      1.0000 0.12942  0.59644  0.20487  Biso   1.000  O
  C106     1.0000 0.28987  0.74160  0.18831  Biso   1.000  C
  C107     1.0000 0.35136  0.64305  0.10142  Biso   1.000  C
  C108     1.0000 0.09134  0.65022  0.17731  Biso   1.000  C
  C109     1.0000 0.23526  0.75973  0.24458  Biso   1.000  C
  C110     1.0000 0.32299  0.79582  0.15171  Biso   1.000  C
  C111     1.0000 0.38446  0.69992  0.07038  Biso   1.000  C
  C112     1.0000 0.36242  0.56238  0.07158  Biso   1.000  C
  C113     1.0000 0.00345  0.62029  0.12767  Biso   1.000  C
  C114     1.0000 0.13799  0.73162  0.20009  Biso   1.000  C
  H146     1.0000 0.24388  0.72695  0.27849  Biso   1.000  H
  C115     1.0000 0.26350  0.84961  0.30139  Biso   1.000  C
  C116     1.0000 0.37058  0.77805  0.09371  Biso   1.000  C
  H147     1.0000 0.31241  0.84690  0.16720  Biso   1.000  H
  O11      1.0000 0.43467  0.67970  0.01591  Biso   1.000  O
  C117     1.0000 0.37414  0.49834  0.03941  Biso   1.000  C
  C118     1.0000 0.96135  0.67423  0.10680  Biso   1.000  C
  C119     1.0000 0.96035  0.53439  0.10232  Biso   1.000  C
  C120     1.0000 0.09369  0.78094  0.17180  Biso   1.000  C
  H148     1.0000 0.25629  0.88365  0.26928  Biso   1.000  H
  H149     1.0000 0.32667  0.86375  0.32830  Biso   1.000  H
  C121     1.0000 0.21117  0.86933  0.36472  Biso   1.000  C
  C122     1.0000 0.40498  0.83754  0.05741  Biso   1.000  C
  C123     1.0000 0.39074  0.65576  0.93440  Biso   1.000  C
  Br6      1.0000 0.39555  0.40238  0.99175  Biso   1.000  Br
  C124     1.0000 0.00456  0.75451  0.12528  Biso   1.000  C
  O12      1.0000 0.87016  0.64403  0.06411  Biso   1.000  O
  C125     1.0000 0.92577  0.46235  0.07642  Biso   1.000  C
  H150     1.0000 0.12466  0.83460  0.18430  Biso   1.000  H
  H151     1.0000 0.14787  0.84363  0.34050  Biso   1.000  H
  H152     1.0000 0.23078  0.84805  0.40622  Biso   1.000  H
  C126     1.0000 0.22616  0.96243  0.40239  Biso   1.000  C
  H153     1.0000 0.45869  0.82471  0.04252  Biso   1.000  H
  C127     1.0000 0.43421  0.92642  0.11362  Biso   1.000  C
  C128     1.0000 0.33614  0.82258  0.97895  Biso   1.000  C
  H154     1.0000 0.32742  0.63196  0.92645  Biso   1.000  H
  H155     1.0000 0.41484  0.61456  0.90348  Biso   1.000  H
  O13      1.0000 0.40065  0.72084  0.90665  Biso   1.000  O
  C129     1.0000 0.95926  0.81098  0.09538  Biso   1.000  C
  C130     1.0000 0.84980  0.62389  0.97985  Biso   1.000  C
  Br7      1.0000 0.87685  0.34771  0.02290  Biso   1.000  Br
  Br8      1.0000 0.87295  0.36370  0.05824  Biso   1.000  Br
  H156     1.0000 0.20700  0.98275  0.36011  Biso   1.000  H
  H157     1.0000 0.29000  0.98714  0.42512  Biso   1.000  H
  C131     1.0000 0.17846  0.99038  0.46680  Biso   1.000  C
  H158     1.0000 0.46863  0.92965  0.16523  Biso   1.000  H
  H159     1.0000 0.38109  0.94430  0.12157  Biso   1.000  H
  C132     1.0000 0.48732  0.98105  0.08492  Biso   1.000  C
  C133     1.0000 0.33365  0.76154  0.90857  Biso   1.000  C
  C134     1.0000 0.26909  0.86349  0.97680  Biso   1.000  C
  C135     1.0000 0.96939  0.80151  0.01268  Biso   1.000  C
  H160     1.0000 0.89510  0.79162  0.09030  Biso   1.000  H
  C136     1.0000 0.98948  0.90094  0.15273  Biso   1.000  C
  H161     1.0000 0.89912  0.60719  0.96047  Biso   1.000  H
  H162     1.0000 0.79684  0.57856  0.95509  Biso   1.000  H
  O14      1.0000 0.83480  0.69056  0.95706  Biso   1.000  O
  H163     1.0000 0.11490  0.96384  0.44581  Biso   1.000  H
  H164     1.0000 0.20072  0.97428  0.51153  Biso   1.000  H
  C137     1.0000 0.19222  0.08257  0.49628  Biso   1.000  C
  H165     1.0000 0.53763  0.96053  0.07242  Biso   1.000  H
  H166     1.0000 0.45113  0.98134  0.03570  Biso   1.000  H
  C138     1.0000 0.52301  0.06821  0.14400  Biso   1.000  C
  C139     1.0000 0.26743  0.74106  0.83860  Biso   1.000  C
  H167     1.0000 0.26781  0.90268  0.02338  Biso   1.000  H
  C140     1.0000 0.20406  0.84696  0.90659  Biso   1.000  C
  C141     1.0000 0.90823  0.73887  0.94869  Biso   1.000  C
  C142     1.0000 0.03885  0.84967  0.99797  Biso   1.000  C
  H168     1.0000 0.05428  0.91895  0.16439  Biso   1.000  H
  H169     1.0000 0.96531  0.93314  0.12408  Biso   1.000  H
  C143     1.0000 0.96431  0.92001  0.23011  Biso   1.000  C
  H170     1.0000 0.16832  0.09806  0.45161  Biso   1.000  H
  H171     1.0000 0.25587  0.10865  0.51517  Biso   1.000  H
  C144     1.0000 0.14783  0.11377  0.56331  Biso   1.000  C
  H172     1.0000 0.57671  0.09483  0.13329  Biso   1.000  H
  H173     1.0000 0.53864  0.06795  0.19812  Biso   1.000  H
  C145     1.0000 0.45703  0.11200  0.13700  Biso   1.000  C
  C146     1.0000 0.20383  0.78575  0.83896  Biso   1.000  C
  C147     1.0000 0.26323  0.67394  0.76887  Biso   1.000  C
  C148     1.0000 0.12796  0.89028  0.90516  Biso   1.000  C
  C149     1.0000 0.91736  0.72499  0.87089  Biso   1.000  C
  H174     1.0000 0.08012  0.89122  0.04108  Biso   1.000  H
  C150     1.0000 0.05014  0.83907  0.92250  Biso   1.000  C
  H175     1.0000 0.90017  0.89802  0.22000  Biso   1.000  H
  H176     1.0000 0.99459  0.89415  0.26282  Biso   1.000  H
  C151     1.0000 0.98900  0.01136  0.27580  Biso   1.000  C
  H177     1.0000 0.16791  0.09496  0.60661  Biso   1.000  H
  H178     1.0000 0.08338  0.09155  0.54328  Biso   1.000  H
  C152     1.0000 0.16869  0.20306  0.59453  Biso   1.000  C
  H179     1.0000 0.44844  0.11863  0.08527  Biso   1.000  H
  H180     1.0000 0.40058  0.07981  0.13838  Biso   1.000  H
  C153     1.0000 0.47959  0.19531  0.20170  Biso   1.000  C
  O15      1.0000 0.14126  0.76814  0.76648  Biso   1.000  O
  C154     1.0000 0.25944  0.61656  0.71410  Biso   1.000  C
  H181     1.0000 0.10764  0.88917  0.85038  Biso   1.000  H
  C155     1.0000 0.15979  0.97958  0.95999  Biso   1.000  C
  C156     1.0000 0.98973  0.77556  0.85816  Biso   1.000  C
  C157     1.0000 0.85797  0.65747  0.80290  Biso   1.000  C
  H182     1.0000 0.96939  0.03763  0.23878  Biso   1.000  H
  C158     1.0000 0.95177  0.03714  0.34421  Biso   1.000  C
  H183     1.0000 0.05370  0.03075  0.29427  Biso   1.000  H
  H184     1.0000 0.23333  0.22498  0.61067  Biso   1.000  H
  H185     1.0000 0.14518  0.22135  0.55183  Biso   1.000  H
  C159     1.0000 0.13123  0.23737  0.66503  Biso   1.000  C
  H186     1.0000 0.48470  0.18843  0.25319  Biso   1.000  H
  H187     1.0000 0.53762  0.22644  0.20230  Biso   1.000  H
  C160     1.0000 0.41128  0.24409  0.19148  Biso   1.000  C
  C161     1.0000 0.05503  0.71805  0.75458  Biso   1.000  C
  Br9      1.0000 0.25422  0.52651  0.63229  Biso   1.000  Br
  H188     1.0000 0.18779  0.98309  0.01369  Biso   1.000  H
  H189     1.0000 0.10824  0.00185  0.96239  Biso   1.000  H
  C162     1.0000 0.22544  0.02917  0.93087  Biso   1.000  C
  O16      1.0000 0.99433  0.76229  0.78030  Biso   1.000  O
  C163     1.0000 0.80903  0.60298  0.74860  Biso   1.000  C
  H190     1.0000 0.88777  0.01220  0.32758  Biso   1.000  H
  H191     1.0000 0.97793  0.01747  0.38493  Biso   1.000  H
  C164     1.0000 0.96873  0.13182  0.38200  Biso   1.000  C
  H192     1.0000 0.06923  0.23808  0.64811  Biso   1.000  H
  H193     1.0000 0.13661  0.20856  0.70229  Biso   1.000  H
  C165     1.0000 0.19600  0.32357  0.69942  Biso   1.000  C
  H194     1.0000 0.06653  0.21657  0.64709  Biso   1.000  H
  H195     1.0000 0.15181  0.21539  0.70552  Biso   1.000  H
  C166     1.0000 0.15260  0.33000  0.70570  Biso   1.000  C
  H196     1.0000 0.35224  0.20820  0.18018  Biso   1.000  H
  H197     1.0000 0.41435  0.25822  0.14442  Biso   1.000  H
  C167     1.0000 0.41739  0.31930  0.25708  Biso   1.000  C
  H198     1.0000 0.06036  0.68088  0.78347  Biso   1.000  H
  H199     1.0000 0.03132  0.68595  0.69819  Biso   1.000  H
  H200     1.0000 0.27866  0.00929  0.93237  Biso   1.000  H
  H201     1.0000 0.19897  0.02188  0.87568  Biso   1.000  H
  C168     1.0000 0.25255  0.11947  0.98068  Biso   1.000  C
  Br10     1.0000 0.73429  0.51834  0.66602  Biso   1.000  Br
  H202     1.0000 0.94721  0.15136  0.33960  Biso   1.000  H
  C169     1.0000 0.92734  0.16335  0.44850  Biso   1.000  C
  H203     1.0000 0.03287  0.15563  0.40138  Biso   1.000  H
  H204     1.0000 0.18199  0.35558  0.66641  Biso   1.000  H
  H205     1.0000 0.25779  0.32179  0.70498  Biso   1.000  H
  C170     1.0000 0.17639  0.35618  0.77973  Biso   1.000  C
  H206     1.0000 0.14882  0.35438  0.66461  Biso   1.000  H
  C171     1.0000 0.24340  0.36846  0.76418  Biso   1.000  C
  H207     1.0000 0.10724  0.34228  0.73362  Biso   1.000  H
  H208     1.0000 0.43412  0.31213  0.30821  Biso   1.000  H
  H209     1.0000 0.35970  0.33161  0.25188  Biso   1.000  H
  C172     1.0000 0.48156  0.38314  0.25403  Biso   1.000  C
  H210     1.0000 0.20039  0.14068  0.97620  Biso   1.000  H
  C173     1.0000 0.32485  0.16715  0.95258  Biso   1.000  C
  H211     1.0000 0.27569  0.12691  0.03648  Biso   1.000  H
  H212     1.0000 0.86318  0.13856  0.43068  Biso   1.000  H
  H213     1.0000 0.95131  0.14755  0.49293  Biso   1.000  H
  C174     1.0000 0.94354  0.25338  0.47702  Biso   1.000  C
  H214     1.0000 0.19949  0.32829  0.81393  Biso   1.000  H
  H215     1.0000 0.11213  0.34517  0.77273  Biso   1.000  H
  C175     1.0000 0.21604  0.44178  0.81770  Biso   1.000  C
  H216     1.0000 0.25002  0.33789  0.79982  Biso   1.000  H
  H217     1.0000 0.28832  0.36184  0.73428  Biso   1.000  H
  C176     1.0000 0.26500  0.45611  0.81501  Biso   1.000  C
  H218     1.0000 0.50951  0.42254  0.30731  Biso   1.000  H
  H219     1.0000 0.52774  0.36303  0.23178  Biso   1.000  H
  C177     1.0000 0.43382  0.42183  0.20152  Biso   1.000  C
  H220     1.0000 0.34398  0.22299  0.98888  Biso   1.000  H
  H221     1.0000 0.37638  0.14496  0.95718  Biso   1.000  H
  C178     1.0000 0.29666  0.16684  0.86575  Biso   1.000  C
  H222     1.0000 0.92619  0.26963  0.43128  Biso   1.000  H
  C179     1.0000 0.89004  0.28737  0.54083  Biso   1.000  C
  H223     1.0000 0.89742  0.26896  0.44622  Biso   1.000  H
  C180     1.0000 0.94003  0.27715  0.56301  Biso   1.000  C
  H224     1.0000 0.00712  0.27803  0.50070  Biso   1.000  H
  H225     1.0000 0.00143  0.27904  0.47242  Biso   1.000  H
  H226     1.0000 0.23805  0.45441  0.87421  Biso   1.000  H
  H227     1.0000 0.26511  0.45771  0.79611  Biso   1.000  H
  H228     1.0000 0.17214  0.47041  0.80819  Biso   1.000  H
  H229     1.0000 0.22083  0.46513  0.84413  Biso   1.000  H
  H230     1.0000 0.32315  0.47208  0.85173  Biso   1.000  H
  H231     1.0000 0.26572  0.48882  0.78122  Biso   1.000  H
  H232     1.0000 0.41834  0.38931  0.14507  Biso   1.000  H
  H233     1.0000 0.38114  0.43505  0.21701  Biso   1.000  H
  C181     1.0000 0.51325  0.49806  0.22479  Biso   1.000  C
  H234     1.0000 0.25398  0.19914  0.86336  Biso   1.000  H
  H235     1.0000 0.26677  0.11178  0.83005  Biso   1.000  H
  C182     1.0000 0.37357  0.19945  0.83746  Biso   1.000  C
  H236     1.0000 0.91389  0.27666  0.58873  Biso   1.000  H
  H237     1.0000 0.82832  0.25608  0.51960  Biso   1.000  H
  C183     1.0000 0.89244  0.37833  0.56588  Biso   1.000  C
  H238     1.0000 0.88111  0.25695  0.56858  Biso   1.000  H
  C184     1.0000 0.96700  0.37097  0.58538  Biso   1.000  C
  H239     1.0000 0.98383  0.25925  0.59429  Biso   1.000  H
  H240     1.0000 0.52232  0.50511  0.17557  Biso   1.000  H
  H241     1.0000 0.56655  0.48615  0.24972  Biso   1.000  H
  C185     1.0000 0.50825  0.57902  0.27968  Biso   1.000  C
  H242     1.0000 0.42249  0.17846  0.85618  Biso   1.000  H
  H243     1.0000 0.39209  0.25767  0.86509  Biso   1.000  H
  C186     1.0000 0.36601  0.18547  0.75327  Biso   1.000  C
  H244     1.0000 0.86536  0.38888  0.51882  Biso   1.000  H
  H245     1.0000 0.85535  0.38905  0.60302  Biso   1.000  H
  C187     1.0000 0.98801  0.44007  0.60601  Biso   1.000  C
  H246     1.0000 0.92990  0.38558  0.54561  Biso   1.000  H
  C188     1.0000 0.95305  0.41148  0.66599  Biso   1.000  C
  H247     1.0000 0.02882  0.38965  0.58580  Biso   1.000  H
  H248     1.0000 0.45128  0.58814  0.26162  Biso   1.000  H
  H249     1.0000 0.51523  0.57843  0.33320  Biso   1.000  H
  H250     1.0000 0.55529  0.62165  0.27920  Biso   1.000  H
  H251     1.0000 0.32137  0.21094  0.73515  Biso   1.000  H
  H252     1.0000 0.34298  0.12747  0.72450  Biso   1.000  H
  C189     1.0000 0.44539  0.21316  0.73036  Biso   1.000  C
  C190     1.0000 0.97505  0.52507  0.60398  Biso   1.000  C
  C191     1.0000 0.98803  0.50280  0.69302  Biso   1.000  C
  H253     1.0000 0.03083  0.42368  0.57629  Biso   1.000  H
  H254     1.0000 0.00963  0.44288  0.66061  Biso   1.000  H
  H255     1.0000 0.88993  0.39760  0.66372  Biso   1.000  H
  H256     1.0000 0.98431  0.39199  0.70450  Biso   1.000  H
  H257     1.0000 0.46431  0.27185  0.75369  Biso   1.000  H
  H258     1.0000 0.49240  0.19286  0.75375  Biso   1.000  H
  C192     1.0000 0.43781  0.18884  0.64025  Biso   1.000  C
  H259     1.0000 0.95054  0.50615  0.54723  Biso   1.000  H
  H260     1.0000 0.93475  0.54808  0.63089  Biso   1.000  H
  H261     1.0000 0.96263  0.52137  0.65158  Biso   1.000  H
  H262     1.0000 0.03158  0.56478  0.61833  Biso   1.000  H
  H263     1.0000 0.97223  0.52779  0.74092  Biso   1.000  H
  H264     1.0000 0.05244  0.51694  0.70229  Biso   1.000  H
  H265     1.0000 0.38243  0.19488  0.61190  Biso   1.000  H
  H266     1.0000 0.48811  0.22076  0.62960  Biso   1.000  H
  C193     1.0000 0.43903  0.09726  0.61698  Biso   1.000  C
  H267     1.0000 0.39919  0.21864  0.62057  Biso   1.000  H
  H268     1.0000 0.40490  0.13202  0.61674  Biso   1.000  H
  C194     1.0000 0.51499  0.19706  0.60395  Biso   1.000  C
  H269     1.0000 0.37927  0.06442  0.60999  Biso   1.000  H
  H270     1.0000 0.47909  0.09064  0.66070  Biso   1.000  H
  C195     1.0000 0.46897  0.06702  0.54098  Biso   1.000  C
  H271     1.0000 0.56059  0.17783  0.63068  Biso   1.000  H
  H272     1.0000 0.49492  0.16125  0.54845  Biso   1.000  H
  C196     1.0000 0.56203  0.28206  0.60496  Biso   1.000  C
  H273     1.0000 0.42848  0.01664  0.50468  Biso   1.000  H
  H274     1.0000 0.47291  0.10651  0.51479  Biso   1.000  H
  H275     1.0000 0.52741  0.05893  0.55617  Biso   1.000  H
  C197     1.0000 0.62559  0.31695  0.56675  Biso   1.000  C
  H276     1.0000 0.62245  0.31977  0.61818  Biso   1.000  H
  H277     1.0000 0.53143  0.32046  0.62846  Biso   1.000  H
  H278     1.0000 0.62304  0.29754  0.63498  Biso   1.000  H
  H279     1.0000 0.55951  0.27942  0.55067  Biso   1.000  H
  C198     1.0000 0.64600  0.25323  0.51945  Biso   1.000  C
  N3       1.0000 0.61011  0.37435  0.54170  Biso   1.000  N
  H280     1.0000 0.65968  0.21414  0.54050  Biso   1.000  H
  C199     1.0000 0.64911  0.24253  0.44147  Biso   1.000  C
  C200     1.0000 0.61436  0.36714  0.46940  Biso   1.000  C
  C201     1.0000 0.62965  0.30246  0.41809  Biso   1.000  C
  C202     1.0000 0.66568  0.16540  0.38807  Biso   1.000  C
  H281     1.0000 0.60610  0.40944  0.45176  Biso   1.000  H
  H282     1.0000 0.62645  0.29931  0.36559  Biso   1.000  H
  C203     1.0000 0.63801  0.09483  0.39250  Biso   1.000  C
  C204     1.0000 0.70831  0.16822  0.33365  Biso   1.000  C
  H283     1.0000 0.61198  0.08894  0.43298  Biso   1.000  H
  C205     1.0000 0.64902  0.02703  0.33497  Biso   1.000  C
  C206     1.0000 0.72723  0.10150  0.28719  Biso   1.000  C
  H284     1.0000 0.72641  0.21734  0.32630  Biso   1.000  H
  H285     1.0000 0.61602  0.97583  0.32989  Biso   1.000  H
  N4       1.0000 0.70250  0.03033  0.28749  Biso   1.000  N
  H286     1.0000 0.76149  0.10901  0.25209  Biso   1.000  H
