data_image0
_cell_length_a       13.798
_cell_length_b       13.71
_cell_length_c       14.486
_cell_angle_alpha    90
_cell_angle_beta     91
_cell_angle_gamma    90

_symmetry_space_group_name_H-M    "P 1"
_symmetry_int_tables_number       1

loop_
  _symmetry_equiv_pos_as_xyz
  'x, y, z'

loop_
  _atom_site_label
  _atom_site_occupancy
  _atom_site_fract_x
  _atom_site_fract_y
  _atom_site_fract_z
  _atom_site_thermal_displace_type
  _atom_site_B_iso_or_equiv
  _atom_site_type_symbol
  C1       1.0000 0.54848  0.63917  0.44256  Biso   1.000  C
  C2       1.0000 0.46388  0.67651  0.40190  Biso   1.000  C
  C3       1.0000 0.63225  0.64048  0.39479  Biso   1.000  C
  H1       1.0000 0.54746  0.61357  0.50201  Biso   1.000  H
  N1       1.0000 0.37558  0.67717  0.44408  Biso   1.000  N
  N2       1.0000 0.47064  0.71247  0.31622  Biso   1.000  N
  C4       1.0000 0.63609  0.67790  0.30738  Biso   1.000  C
  H2       1.0000 0.68834  0.61532  0.42206  Biso   1.000  H
  C5       1.0000 0.29417  0.72473  0.40328  Biso   1.000  C
  C6       1.0000 0.36497  0.62487  0.52935  Biso   1.000  C
  C7       1.0000 0.55397  0.71451  0.26761  Biso   1.000  C
  H3       1.0000 0.42400  0.73399  0.28597  Biso   1.000  H
  H4       1.0000 0.69406  0.67826  0.27569  Biso   1.000  H
  C8       1.0000 0.21590  0.66710  0.37587  Biso   1.000  C
  N3       1.0000 0.30040  0.82042  0.39893  Biso   1.000  N
  H5       1.0000 0.42634  0.59803  0.54827  Biso   1.000  H
  H6       1.0000 0.31886  0.57309  0.52065  Biso   1.000  H
  H7       1.0000 0.34249  0.66864  0.57616  Biso   1.000  H
  N4       1.0000 0.54735  0.75522  0.17930  Biso   1.000  N
  H8       1.0000 0.21657  0.59942  0.38049  Biso   1.000  H
  C9       1.0000 0.13810  0.71721  0.34190  Biso   1.000  C
  C10      1.0000 0.22161  0.86659  0.36296  Biso   1.000  C
  C11      1.0000 0.55741  0.85492  0.17060  Biso   1.000  C
  C12      1.0000 0.56877  0.69161  0.10232  Biso   1.000  C
  H9       1.0000 0.08267  0.68330  0.32312  Biso   1.000  H
  C13      1.0000 0.13985  0.81699  0.33472  Biso   1.000  C
  N5       1.0000 0.22971  0.96681  0.35391  Biso   1.000  N
  N6       1.0000 0.54863  0.90569  0.24897  Biso   1.000  N
  C14      1.0000 0.57799  0.89701  0.08762  Biso   1.000  C
  H10      1.0000 0.56157  0.72728  0.04557  Biso   1.000  H
  H11      1.0000 0.52484  0.63742  0.10198  Biso   1.000  H
  H12      1.0000 0.63418  0.66820  0.10847  Biso   1.000  H
  H13      1.0000 0.08651  0.85062  0.31097  Biso   1.000  H
  C15      1.0000 0.14217  0.02349  0.33078  Biso   1.000  C
  C16      1.0000 0.30778  0.01648  0.39430  Biso   1.000  C
  C17      1.0000 0.56098  0.00248  0.24310  Biso   1.000  C
  C18      1.0000 0.59157  0.99752  0.08472  Biso   1.000  C
  H14      1.0000 0.58289  0.85937  0.03452  Biso   1.000  H
  H15      1.0000 0.09426  0.98140  0.30317  Biso   1.000  H
  H16      1.0000 0.15820  0.07433  0.28812  Biso   1.000  H
  H17      1.0000 0.11702  0.05193  0.38602  Biso   1.000  H
  N7       1.0000 0.39480  0.01291  0.35012  Biso   1.000  N
  C19      1.0000 0.30225  0.06929  0.47260  Biso   1.000  C
  N8       1.0000 0.55638  0.05463  0.32816  Biso   1.000  N
  C20      1.0000 0.58380  0.05120  0.16342  Biso   1.000  C
  H18      1.0000 0.60606  0.02794  0.02921  Biso   1.000  H
  H19      1.0000 0.39299  0.98403  0.31428  Biso   1.000  H
  C21      1.0000 0.47684  0.05908  0.37732  Biso   1.000  C
  H20      1.0000 0.24420  0.07411  0.50401  Biso   1.000  H
  C22      1.0000 0.38409  0.11568  0.50491  Biso   1.000  C
  C23      1.0000 0.64125  0.11152  0.35598  Biso   1.000  C
  H21      1.0000 0.59337  0.11838  0.16322  Biso   1.000  H
  C24      1.0000 0.46994  0.11101  0.45996  Biso   1.000  C
  H22      1.0000 0.38088  0.15157  0.55918  Biso   1.000  H
  H23      1.0000 0.62934  0.14311  0.41377  Biso   1.000  H
  H24      1.0000 0.65403  0.15966  0.30979  Biso   1.000  H
  H25      1.0000 0.69624  0.06900  0.36261  Biso   1.000  H
  H26      1.0000 0.52439  0.14252  0.48447  Biso   1.000  H
  C25      1.0000 0.45144  0.36083  0.55738  Biso   1.000  C
  C26      1.0000 0.36766  0.35952  0.60516  Biso   1.000  C
  H27      1.0000 0.45245  0.38643  0.49800  Biso   1.000  H
  C27      1.0000 0.53603  0.32349  0.59805  Biso   1.000  C
  C28      1.0000 0.36383  0.32210  0.69257  Biso   1.000  C
  H28      1.0000 0.31157  0.38468  0.57789  Biso   1.000  H
  N9       1.0000 0.52927  0.28753  0.68380  Biso   1.000  N
  N10      1.0000 0.62433  0.32283  0.55586  Biso   1.000  N
  C29      1.0000 0.44595  0.28549  0.73240  Biso   1.000  C
  H29      1.0000 0.30585  0.32174  0.72426  Biso   1.000  H
  H30      1.0000 0.57592  0.26601  0.71397  Biso   1.000  H
  C30      1.0000 0.63495  0.37513  0.47059  Biso   1.000  C
  C31      1.0000 0.70574  0.27527  0.59667  Biso   1.000  C
  N11      1.0000 0.45256  0.24478  0.82064  Biso   1.000  N
  H31      1.0000 0.57358  0.40197  0.45168  Biso   1.000  H
  H32      1.0000 0.68105  0.42691  0.47929  Biso   1.000  H
  H33      1.0000 0.65750  0.33136  0.42378  Biso   1.000  H
  N12      1.0000 0.69952  0.17958  0.60102  Biso   1.000  N
  C32      1.0000 0.78408  0.33290  0.62408  Biso   1.000  C
  C33      1.0000 0.44258  0.14508  0.82934  Biso   1.000  C
  C34      1.0000 0.43115  0.30839  0.89769  Biso   1.000  C
  C35      1.0000 0.77838  0.13341  0.63699  Biso   1.000  C
  H34      1.0000 0.78335  0.40058  0.61945  Biso   1.000  H
  C36      1.0000 0.86182  0.28279  0.65805  Biso   1.000  C
  N13      1.0000 0.45129  0.09431  0.75098  Biso   1.000  N
  C37      1.0000 0.42192  0.10299  0.91240  Biso   1.000  C
  H35      1.0000 0.43834  0.27272  0.95438  Biso   1.000  H
  H36      1.0000 0.47507  0.36258  0.89797  Biso   1.000  H
  H37      1.0000 0.36573  0.33180  0.89148  Biso   1.000  H
  N14      1.0000 0.77028  0.03319  0.64610  Biso   1.000  N
  C38      1.0000 0.86007  0.18301  0.66530  Biso   1.000  C
  H38      1.0000 0.91724  0.31670  0.67689  Biso   1.000  H
  C39      1.0000 0.43893  0.99752  0.75685  Biso   1.000  C
  C40      1.0000 0.40835  0.00248  0.91530  Biso   1.000  C
  H39      1.0000 0.41702  0.14063  0.96549  Biso   1.000  H
  C41      1.0000 0.85775  0.97651  0.66916  Biso   1.000  C
  C42      1.0000 0.69214  0.98352  0.60571  Biso   1.000  C
  H40      1.0000 0.91341  0.14938  0.68898  Biso   1.000  H
  N15      1.0000 0.44353  0.94537  0.67179  Biso   1.000  N
  C43      1.0000 0.41618  0.94880  0.83659  Biso   1.000  C
  H41      1.0000 0.39386  0.97206  0.97074  Biso   1.000  H
  H42      1.0000 0.90565  0.01860  0.69678  Biso   1.000  H
  H43      1.0000 0.84171  0.92567  0.71190  Biso   1.000  H
  H44      1.0000 0.88297  0.94807  0.61400  Biso   1.000  H
  N16      1.0000 0.60518  0.98709  0.64990  Biso   1.000  N
  C44      1.0000 0.69766  0.93071  0.52735  Biso   1.000  C
  C45      1.0000 0.52308  0.94092  0.62270  Biso   1.000  C
  C46      1.0000 0.35866  0.88848  0.64396  Biso   1.000  C
  H45      1.0000 0.40655  0.88162  0.83680  Biso   1.000  H
  H46      1.0000 0.60692  0.01597  0.68566  Biso   1.000  H
  H47      1.0000 0.75579  0.92589  0.49600  Biso   1.000  H
  C47      1.0000 0.61583  0.88432  0.49511  Biso   1.000  C
  C48      1.0000 0.52997  0.88899  0.53998  Biso   1.000  C
  H48      1.0000 0.37057  0.85689  0.58617  Biso   1.000  H
  H49      1.0000 0.34588  0.84034  0.69015  Biso   1.000  H
  H50      1.0000 0.30368  0.93100  0.63740  Biso   1.000  H
  H51      1.0000 0.61903  0.84843  0.44077  Biso   1.000  H
  H52      1.0000 0.47560  0.85748  0.51547  Biso   1.000  H
  C49      1.0000 0.64212  0.47651  0.83079  Biso   1.000  C
  N17      1.0000 0.72966  0.53319  0.85385  Biso   1.000  N
  H53      1.0000 0.59422  0.51860  0.80317  Biso   1.000  H
  H54      1.0000 0.65816  0.42567  0.78805  Biso   1.000  H
  H55      1.0000 0.61697  0.44807  0.88596  Biso   1.000  H
  C50      1.0000 0.80773  0.48352  0.89424  Biso   1.000  C
  C51      1.0000 0.72157  0.63341  0.86296  Biso   1.000  C
  N18      1.0000 0.89476  0.48709  0.85005  Biso   1.000  N
  C52      1.0000 0.80221  0.43071  0.97254  Biso   1.000  C
  N19      1.0000 0.80035  0.67958  0.89887  Biso   1.000  N
  C53      1.0000 0.63988  0.68301  0.83466  Biso   1.000  C
  C54      1.0000 0.97687  0.44092  0.87726  Biso   1.000  C
  H56      1.0000 0.89295  0.51597  0.81429  Biso   1.000  H
  H57      1.0000 0.74415  0.42589  0.00402  Biso   1.000  H
  C55      1.0000 0.88405  0.38432  0.00492  Biso   1.000  C
  C56      1.0000 0.79413  0.77527  0.90329  Biso   1.000  C
  C57      1.0000 0.63805  0.78279  0.84184  Biso   1.000  C
  H58      1.0000 0.58646  0.64938  0.81098  Biso   1.000  H
  C58      1.0000 0.96990  0.38899  0.95997  Biso   1.000  C
  N20      1.0000 0.05627  0.44537  0.82817  Biso   1.000  N
  H59      1.0000 0.88084  0.34843  0.05918  Biso   1.000  H
  N21      1.0000 0.87554  0.82283  0.94409  Biso   1.000  N
  C59      1.0000 0.71586  0.83290  0.87588  Biso   1.000  C
  H60      1.0000 0.58263  0.81670  0.82306  Biso   1.000  H
  H61      1.0000 0.02427  0.35748  0.98448  Biso   1.000  H
  C60      1.0000 0.14121  0.38848  0.85599  Biso   1.000  C
  C61      1.0000 0.06087  0.49752  0.74311  Biso   1.000  C
  C62      1.0000 0.96384  0.82349  0.90184  Biso   1.000  C
  C63      1.0000 0.86493  0.87513  0.02943  Biso   1.000  C
  H62      1.0000 0.71652  0.90058  0.88050  Biso   1.000  H
  H63      1.0000 0.12930  0.35689  0.91378  Biso   1.000  H
  H64      1.0000 0.15399  0.34034  0.80980  Biso   1.000  H
  H65      1.0000 0.19619  0.43100  0.86255  Biso   1.000  H
  N22      1.0000 0.04858  0.59431  0.74898  Biso   1.000  N
  C64      1.0000 0.08369  0.44880  0.66336  Biso   1.000  C
  N23      1.0000 0.97060  0.78753  0.81615  Biso   1.000  N
  C65      1.0000 0.04836  0.86083  0.94257  Biso   1.000  C
  H66      1.0000 0.92637  0.90197  0.04834  Biso   1.000  H
  H67      1.0000 0.81889  0.92691  0.02073  Biso   1.000  H
  H68      1.0000 0.84245  0.83136  0.07624  Biso   1.000  H
  C66      1.0000 0.05729  0.64508  0.67054  Biso   1.000  C
  H69      1.0000 0.09332  0.38162  0.66315  Biso   1.000  H
  C67      1.0000 0.09152  0.50248  0.58465  Biso   1.000  C
  H70      1.0000 0.92395  0.76601  0.78598  Biso   1.000  H
  C68      1.0000 0.05392  0.78549  0.76755  Biso   1.000  C
  C69      1.0000 0.13221  0.85952  0.89479  Biso   1.000  C
  H71      1.0000 0.04742  0.88643  0.00202  Biso   1.000  H
  N24      1.0000 0.04731  0.74478  0.67924  Biso   1.000  N
  C70      1.0000 0.07788  0.60299  0.58755  Biso   1.000  C
  H72      1.0000 0.10601  0.47206  0.52921  Biso   1.000  H
  C71      1.0000 0.13597  0.82210  0.80739  Biso   1.000  C
  H73      1.0000 0.18830  0.88468  0.92207  Biso   1.000  H
  C72      1.0000 0.06872  0.80839  0.60226  Biso   1.000  C
  H74      1.0000 0.08277  0.64063  0.53446  Biso   1.000  H
  H75      1.0000 0.19402  0.82174  0.77569  Biso   1.000  H
  H76      1.0000 0.06153  0.77272  0.54558  Biso   1.000  H
  H77      1.0000 0.02480  0.86258  0.60198  Biso   1.000  H
  H78      1.0000 0.13407  0.83180  0.60847  Biso   1.000  H
  C73      1.0000 0.35779  0.52349  0.16922  Biso   1.000  C
  N25      1.0000 0.27025  0.46681  0.14609  Biso   1.000  N
  H79      1.0000 0.40569  0.48140  0.19677  Biso   1.000  H
  H80      1.0000 0.34176  0.57433  0.21189  Biso   1.000  H
  H81      1.0000 0.38301  0.55193  0.11399  Biso   1.000  H
  C74      1.0000 0.27842  0.36659  0.13698  Biso   1.000  C
  C75      1.0000 0.19218  0.51648  0.10570  Biso   1.000  C
  C76      1.0000 0.36011  0.31699  0.16529  Biso   1.000  C
  N26      1.0000 0.19956  0.32042  0.10108  Biso   1.000  N
  N27      1.0000 0.10523  0.51291  0.14989  Biso   1.000  N
  C77      1.0000 0.19770  0.56929  0.02741  Biso   1.000  C
  C78      1.0000 0.36186  0.21721  0.15811  Biso   1.000  C
  H82      1.0000 0.41345  0.35062  0.18897  Biso   1.000  H
  C79      1.0000 0.20579  0.22473  0.09673  Biso   1.000  C
  C80      1.0000 0.02312  0.55908  0.12269  Biso   1.000  C
  H83      1.0000 0.10697  0.48403  0.18572  Biso   1.000  H
  H84      1.0000 0.25576  0.57411  0.99593  Biso   1.000  H
  C81      1.0000 0.11587  0.61568  0.99503  Biso   1.000  C
  C82      1.0000 0.28405  0.16710  0.12407  Biso   1.000  C
  H85      1.0000 0.41729  0.18330  0.17689  Biso   1.000  H
  N28      1.0000 0.12437  0.17717  0.05586  Biso   1.000  N
  C83      1.0000 0.03001  0.61101  0.03998  Biso   1.000  C
  N29      1.0000 0.94365  0.55463  0.17178  Biso   1.000  N
  H86      1.0000 0.11908  0.65157  0.94076  Biso   1.000  H
  H87      1.0000 0.28339  0.09942  0.11951  Biso   1.000  H
  C84      1.0000 0.03608  0.17651  0.09811  Biso   1.000  C
  C85      1.0000 0.13499  0.12487  0.97052  Biso   1.000  C
  H88      1.0000 0.97564  0.64252  0.01547  Biso   1.000  H
  C86      1.0000 0.85870  0.61152  0.14402  Biso   1.000  C
  C87      1.0000 0.93905  0.50248  0.25691  Biso   1.000  C
  N30      1.0000 0.02931  0.21247  0.18379  Biso   1.000  N
  C88      1.0000 0.95155  0.13917  0.05737  Biso   1.000  C
  H89      1.0000 0.07355  0.09803  0.95167  Biso   1.000  H
  H90      1.0000 0.18109  0.07309  0.97922  Biso   1.000  H
  H91      1.0000 0.15747  0.16864  0.92378  Biso   1.000  H
  H92      1.0000 0.87062  0.64311  0.08617  Biso   1.000  H
  H93      1.0000 0.84593  0.65966  0.19021  Biso   1.000  H
  H94      1.0000 0.80372  0.56900  0.13739  Biso   1.000  H
  N31      1.0000 0.95133  0.40569  0.25097  Biso   1.000  N
  C89      1.0000 0.91623  0.55120  0.33658  Biso   1.000  C
  H95      1.0000 0.07596  0.23399  0.21396  Biso   1.000  H
  C90      1.0000 0.94606  0.21451  0.23240  Biso   1.000  C
  H96      1.0000 0.95249  0.11357  0.99793  Biso   1.000  H
  C91      1.0000 0.86771  0.14048  0.10522  Biso   1.000  C
  C92      1.0000 0.94262  0.35492  0.32940  Biso   1.000  C
  C93      1.0000 0.90839  0.49752  0.41529  Biso   1.000  C
  H97      1.0000 0.90659  0.61838  0.33679  Biso   1.000  H
  N32      1.0000 0.95261  0.25522  0.32070  Biso   1.000  N
  C94      1.0000 0.86394  0.17790  0.19256  Biso   1.000  C
  H98      1.0000 0.81162  0.11532  0.07788  Biso   1.000  H
  C95      1.0000 0.92204  0.39701  0.41239  Biso   1.000  C
  H99      1.0000 0.89390  0.52794  0.47080  Biso   1.000  H
  C96      1.0000 0.93119  0.19161  0.39769  Biso   1.000  C
  H100     1.0000 0.80597  0.17826  0.22432  Biso   1.000  H
  H101     1.0000 0.91714  0.35937  0.46549  Biso   1.000  H
  H102     1.0000 0.93839  0.22728  0.45437  Biso   1.000  H
  H103     1.0000 0.97511  0.13742  0.39796  Biso   1.000  H
  H104     1.0000 0.86585  0.16820  0.39147  Biso   1.000  H
