data_image0
_cell_length_a       7.931
_cell_length_b       19.643
_cell_length_c       15.566
_cell_angle_alpha    90
_cell_angle_beta     90
_cell_angle_gamma    90

_symmetry_space_group_name_H-M    "P 1"
_symmetry_int_tables_number       1

loop_
  _symmetry_equiv_pos_as_xyz
  'x, y, z'

loop_
  _atom_site_label
  _atom_site_occupancy
  _atom_site_fract_x
  _atom_site_fract_y
  _atom_site_fract_z
  _atom_site_thermal_displace_type
  _atom_site_B_iso_or_equiv
  _atom_site_type_symbol
  C1       1.0000 0.54344  0.57863  0.82346  Biso   1.000  C
  C2       1.0000 0.41256  0.59018  0.75466  Biso   1.000  C
  O1       1.0000 0.59967  0.64170  0.85957  Biso   1.000  O
  H1       1.0000 0.49578  0.55043  0.86856  Biso   1.000  H
  H2       1.0000 0.63876  0.55460  0.79911  Biso   1.000  H
  O2       1.0000 0.33804  0.53699  0.73018  Biso   1.000  O
  O3       1.0000 0.38255  0.64898  0.72768  Biso   1.000  O
  C3       1.0000 0.77203  0.64802  0.87100  Biso   1.000  C
  H3       1.0000 0.28496  0.64400  0.71097  Biso   1.000  H
  C4       1.0000 0.85853  0.60882  0.93248  Biso   1.000  C
  C5       1.0000 0.85866  0.69760  0.82449  Biso   1.000  C
  S1       1.0000 0.74997  0.55037  0.00000  Biso   1.000  S
  C6       1.0000 0.03165  0.61752  0.94180  Biso   1.000  C
  S2       1.0000 0.74997  0.74999  0.74933  Biso   1.000  S
  C7       1.0000 0.03064  0.70539  0.83657  Biso   1.000  C
  C8       1.0000 0.64153  0.60882  0.06752  Biso   1.000  C
  H4       1.0000 0.08990  0.59069  0.98111  Biso   1.000  H
  C9       1.0000 0.11877  0.66482  0.89406  Biso   1.000  C
  C10      1.0000 0.64141  0.80242  0.82449  Biso   1.000  C
  H5       1.0000 0.08826  0.73858  0.80547  Biso   1.000  H
  C11      1.0000 0.46829  0.61752  0.05820  Biso   1.000  C
  C12      1.0000 0.72803  0.64802  0.12900  Biso   1.000  C
  H6       1.0000 0.23477  0.66950  0.90030  Biso   1.000  H
  C13      1.0000 0.46930  0.79458  0.83657  Biso   1.000  C
  C14      1.0000 0.72803  0.85201  0.87100  Biso   1.000  C
  H7       1.0000 0.41016  0.59069  0.01889  Biso   1.000  H
  C15      1.0000 0.38116  0.66482  0.10587  Biso   1.000  C
  O4       1.0000 0.90026  0.64170  0.14037  Biso   1.000  O
  C16      1.0000 0.64141  0.69760  0.17551  Biso   1.000  C
  C17      1.0000 0.38116  0.83521  0.89406  Biso   1.000  C
  H8       1.0000 0.41180  0.76139  0.80547  Biso   1.000  H
  O5       1.0000 0.90026  0.85832  0.85957  Biso   1.000  O
  C18      1.0000 0.64153  0.89121  0.93248  Biso   1.000  C
  H9       1.0000 0.26516  0.66950  0.09970  Biso   1.000  H
  C19      1.0000 0.46930  0.70539  0.16337  Biso   1.000  C
  C20      1.0000 0.95663  0.57863  0.17647  Biso   1.000  C
  S3       1.0000 0.74997  0.74999  0.25067  Biso   1.000  S
  C21      1.0000 0.46829  0.88250  0.94180  Biso   1.000  C
  H10      1.0000 0.26516  0.83052  0.90030  Biso   1.000  H
  C22      1.0000 0.95663  0.92140  0.82346  Biso   1.000  C
  S4       1.0000 0.74997  0.94965  0.00000  Biso   1.000  S
  H11      1.0000 0.41180  0.73858  0.19453  Biso   1.000  H
  H12      1.0000 0.86118  0.55460  0.20089  Biso   1.000  H
  H13      1.0000 0.00416  0.55043  0.13138  Biso   1.000  H
  C23      1.0000 0.08738  0.59018  0.24528  Biso   1.000  C
  C24      1.0000 0.85866  0.80242  0.17551  Biso   1.000  C
  H14      1.0000 0.41016  0.90933  0.98111  Biso   1.000  H
  H15      1.0000 0.86118  0.94543  0.79911  Biso   1.000  H
  H16      1.0000 0.00416  0.94960  0.86856  Biso   1.000  H
  C25      1.0000 0.08738  0.90979  0.75466  Biso   1.000  C
  C26      1.0000 0.85853  0.89121  0.06752  Biso   1.000  C
  O6       1.0000 0.11751  0.64898  0.27232  Biso   1.000  O
  O7       1.0000 0.16202  0.53699  0.26982  Biso   1.000  O
  C27      1.0000 0.77203  0.85201  0.12900  Biso   1.000  C
  C28      1.0000 0.03064  0.79458  0.16337  Biso   1.000  C
  O8       1.0000 0.11751  0.85099  0.72768  Biso   1.000  O
  O9       1.0000 0.16202  0.96299  0.73018  Biso   1.000  O
  C29      1.0000 0.03165  0.88250  0.05820  Biso   1.000  C
  H17      1.0000 0.21498  0.64400  0.28896  Biso   1.000  H
  O10      1.0000 0.59967  0.85832  0.14037  Biso   1.000  O
  C30      1.0000 0.11877  0.83521  0.10587  Biso   1.000  C
  H18      1.0000 0.08826  0.76139  0.19453  Biso   1.000  H
  H19      1.0000 0.21498  0.85603  0.71097  Biso   1.000  H
  H20      1.0000 0.08990  0.90933  0.01889  Biso   1.000  H
  C31      1.0000 0.54344  0.92140  0.17647  Biso   1.000  C
  H21      1.0000 0.23477  0.83052  0.09970  Biso   1.000  H
  H22      1.0000 0.49578  0.94960  0.13138  Biso   1.000  H
  H23      1.0000 0.63876  0.94543  0.20089  Biso   1.000  H
  C32      1.0000 0.41256  0.90979  0.24528  Biso   1.000  C
  O11      1.0000 0.38255  0.85099  0.27232  Biso   1.000  O
  O12      1.0000 0.33804  0.96299  0.26982  Biso   1.000  O
  H24      1.0000 0.28496  0.85603  0.28896  Biso   1.000  H
  C33      1.0000 0.35847  0.39118  0.93248  Biso   1.000  C
  C34      1.0000 0.27197  0.35198  0.87100  Biso   1.000  C
  C35      1.0000 0.53171  0.38253  0.94180  Biso   1.000  C
  S5       1.0000 0.25003  0.44968  0.00000  Biso   1.000  S
  C36      1.0000 0.35859  0.30240  0.82449  Biso   1.000  C
  O13      1.0000 0.09974  0.35830  0.85957  Biso   1.000  O
  C37      1.0000 0.61884  0.33518  0.89406  Biso   1.000  C
  H25      1.0000 0.58996  0.40931  0.98111  Biso   1.000  H
  C38      1.0000 0.14147  0.39118  0.06752  Biso   1.000  C
  S6       1.0000 0.25003  0.25001  0.74933  Biso   1.000  S
  C39      1.0000 0.53070  0.29461  0.83657  Biso   1.000  C
  C40      1.0000 0.04337  0.42142  0.82346  Biso   1.000  C
  H26      1.0000 0.73484  0.33050  0.90030  Biso   1.000  H
  C41      1.0000 0.96835  0.38253  0.05820  Biso   1.000  C
  C42      1.0000 0.22797  0.35198  0.12900  Biso   1.000  C
  C43      1.0000 0.14134  0.19758  0.82449  Biso   1.000  C
  H27      1.0000 0.58820  0.26142  0.80547  Biso   1.000  H
  H28      1.0000 0.13882  0.44540  0.79911  Biso   1.000  H
  H29      1.0000 0.99584  0.44963  0.86856  Biso   1.000  H
  C44      1.0000 0.91262  0.40982  0.75466  Biso   1.000  C
  H30      1.0000 0.91010  0.40931  0.01889  Biso   1.000  H
  C45      1.0000 0.88123  0.33518  0.10587  Biso   1.000  C
  O14      1.0000 0.40033  0.35830  0.14037  Biso   1.000  O
  C46      1.0000 0.14134  0.30240  0.17551  Biso   1.000  C
  C47      1.0000 0.22797  0.14799  0.87100  Biso   1.000  C
  C48      1.0000 0.96936  0.20542  0.83657  Biso   1.000  C
  O15      1.0000 0.88249  0.35102  0.72768  Biso   1.000  O
  O16      1.0000 0.83798  0.46301  0.73018  Biso   1.000  O
  H31      1.0000 0.76523  0.33050  0.09970  Biso   1.000  H
  C49      1.0000 0.96936  0.29461  0.16337  Biso   1.000  C
  C50      1.0000 0.45656  0.42142  0.17647  Biso   1.000  C
  S7       1.0000 0.25003  0.25001  0.25067  Biso   1.000  S
  O17      1.0000 0.40033  0.14168  0.85957  Biso   1.000  O
  C51      1.0000 0.14147  0.10879  0.93248  Biso   1.000  C
  C52      1.0000 0.88123  0.16479  0.89406  Biso   1.000  C
  H32      1.0000 0.91186  0.23861  0.80547  Biso   1.000  H
  H33      1.0000 0.78502  0.35600  0.71097  Biso   1.000  H
  H34      1.0000 0.91186  0.26142  0.19453  Biso   1.000  H
  H35      1.0000 0.50422  0.44963  0.13138  Biso   1.000  H
  H36      1.0000 0.36124  0.44540  0.20089  Biso   1.000  H
  C53      1.0000 0.58744  0.40982  0.24528  Biso   1.000  C
  C54      1.0000 0.35859  0.19758  0.17551  Biso   1.000  C
  C55      1.0000 0.45656  0.07860  0.82346  Biso   1.000  C
  C56      1.0000 0.96835  0.11750  0.94180  Biso   1.000  C
  S8       1.0000 0.25003  0.05035  0.00000  Biso   1.000  S
  H37      1.0000 0.76523  0.16953  0.90030  Biso   1.000  H
  O18      1.0000 0.61745  0.35102  0.27232  Biso   1.000  O
  O19      1.0000 0.66196  0.46301  0.26982  Biso   1.000  O
  C57      1.0000 0.27197  0.14799  0.12900  Biso   1.000  C
  C58      1.0000 0.53070  0.20542  0.16337  Biso   1.000  C
  H38      1.0000 0.50422  0.05040  0.86856  Biso   1.000  H
  H39      1.0000 0.36124  0.05463  0.79911  Biso   1.000  H
  C59      1.0000 0.58744  0.09021  0.75466  Biso   1.000  C
  H40      1.0000 0.91010  0.09072  0.98111  Biso   1.000  H
  C60      1.0000 0.35847  0.10879  0.06752  Biso   1.000  C
  H41      1.0000 0.71504  0.35600  0.28896  Biso   1.000  H
  O20      1.0000 0.09974  0.14168  0.14037  Biso   1.000  O
  C61      1.0000 0.61884  0.16479  0.10587  Biso   1.000  C
  H42      1.0000 0.58820  0.23861  0.19453  Biso   1.000  H
  O21      1.0000 0.61745  0.14901  0.72768  Biso   1.000  O
  O22      1.0000 0.66196  0.03701  0.73018  Biso   1.000  O
  C62      1.0000 0.53171  0.11750  0.05820  Biso   1.000  C
  C63      1.0000 0.04337  0.07860  0.17647  Biso   1.000  C
  H43      1.0000 0.73484  0.16953  0.09970  Biso   1.000  H
  H44      1.0000 0.71504  0.14402  0.71097  Biso   1.000  H
  H45      1.0000 0.58996  0.09072  0.01889  Biso   1.000  H
  H46      1.0000 0.99584  0.05040  0.13138  Biso   1.000  H
  C64      1.0000 0.91262  0.09021  0.24528  Biso   1.000  C
  H47      1.0000 0.13882  0.05463  0.20089  Biso   1.000  H
  O23      1.0000 0.88249  0.14901  0.27232  Biso   1.000  O
  O24      1.0000 0.83798  0.03701  0.26982  Biso   1.000  O
  H48      1.0000 0.78502  0.14402  0.28896  Biso   1.000  H
