data_image0
_cell_length_a       13.543
_cell_length_b       14.853
_cell_length_c       17.192
_cell_angle_alpha    107.16
_cell_angle_beta     98.36
_cell_angle_gamma    108.6

_symmetry_space_group_name_H-M    "P 1"
_symmetry_int_tables_number       1

loop_
  _symmetry_equiv_pos_as_xyz
  'x, y, z'

loop_
  _atom_site_label
  _atom_site_occupancy
  _atom_site_fract_x
  _atom_site_fract_y
  _atom_site_fract_z
  _atom_site_thermal_displace_type
  _atom_site_B_iso_or_equiv
  _atom_site_type_symbol
  C1       1.0000 0.26955  0.49805  0.59488  Biso   1.000  C
  C2       1.0000 0.22874  0.39547  0.54337  Biso   1.000  C
  F1       1.0000 0.37743  0.54986  0.62272  Biso   1.000  F
  C3       1.0000 0.19953  0.54448  0.61679  Biso   1.000  C
  C4       1.0000 0.11939  0.33865  0.51030  Biso   1.000  C
  F2       1.0000 0.29906  0.35100  0.52462  Biso   1.000  F
  C5       1.0000 0.09081  0.49029  0.58693  Biso   1.000  C
  F3       1.0000 0.23955  0.64397  0.66628  Biso   1.000  F
  C6       1.0000 0.07624  0.23070  0.44591  Biso   1.000  C
  C7       1.0000 0.05203  0.38940  0.53441  Biso   1.000  C
  F4       1.0000 0.02256  0.53610  0.60839  Biso   1.000  F
  C8       1.0000 0.02844  0.22958  0.36069  Biso   1.000  C
  H1       1.0000 0.13933  0.21020  0.44130  Biso   1.000  H
  C9       1.0000 0.99832  0.15528  0.47229  Biso   1.000  C
  F5       1.0000 0.94394  0.34201  0.50468  Biso   1.000  F
  N1       1.0000 0.09304  0.26828  0.31448  Biso   1.000  N
  C10      1.0000 0.92311  0.20698  0.31852  Biso   1.000  C
  N2       1.0000 0.93391  0.05960  0.41788  Biso   1.000  N
  C11      1.0000 0.97965  0.16418  0.55032  Biso   1.000  C
  C12      1.0000 0.03171  0.26908  0.24429  Biso   1.000  C
  H2       1.0000 0.16395  0.28950  0.32799  Biso   1.000  H
  C13      1.0000 0.92533  0.23082  0.24612  Biso   1.000  C
  H3       1.0000 0.86030  0.17986  0.33601  Biso   1.000  H
  H4       1.0000 0.93225  0.03481  0.36429  Biso   1.000  H
  C14      1.0000 0.87123  0.00697  0.45891  Biso   1.000  C
  H5       1.0000 0.01450  0.22228  0.60100  Biso   1.000  H
  C15      1.0000 0.89924  0.07145  0.54123  Biso   1.000  C
  C16      1.0000 0.07260  0.30857  0.18420  Biso   1.000  C
  H6       1.0000 0.86433  0.22220  0.20522  Biso   1.000  H
  C17      1.0000 0.78854  0.90845  0.42003  Biso   1.000  C
  H7       1.0000 0.86932  0.05615  0.58459  Biso   1.000  H
  N3       1.0000 0.17247  0.34614  0.18483  Biso   1.000  N
  H8       1.0000 0.02109  0.30696  0.13938  Biso   1.000  H
  N4       1.0000 0.76363  0.84906  0.34283  Biso   1.000  N
  H9       1.0000 0.74714  0.88371  0.45468  Biso   1.000  H
  C18      1.0000 0.19748  0.39773  0.12770  Biso   1.000  C
  C19      1.0000 0.66821  0.76027  0.31297  Biso   1.000  C
  C20      1.0000 0.16823  0.47582  0.12808  Biso   1.000  C
  C21      1.0000 0.26405  0.37098  0.07499  Biso   1.000  C
  C22      1.0000 0.57012  0.76632  0.32092  Biso   1.000  C
  C23      1.0000 0.67376  0.66320  0.26979  Biso   1.000  C
  C24      1.0000 0.19922  0.53291  0.07619  Biso   1.000  C
  H10      1.0000 0.12536  0.49371  0.16438  Biso   1.000  H
  C25      1.0000 0.29786  0.43091  0.02342  Biso   1.000  C
  C26      1.0000 0.29625  0.29078  0.06982  Biso   1.000  C
  H11      1.0000 0.56733  0.83049  0.34939  Biso   1.000  H
  C27      1.0000 0.47426  0.67807  0.28728  Biso   1.000  C
  C28      1.0000 0.57456  0.57540  0.23798  Biso   1.000  C
  C29      1.0000 0.76889  0.65230  0.25938  Biso   1.000  C
  C30      1.0000 0.26095  0.51083  0.02601  Biso   1.000  C
  H12      1.0000 0.17577  0.58704  0.07733  Biso   1.000  H
  C31      1.0000 0.36336  0.40645  0.97298  Biso   1.000  C
  H13      1.0000 0.27151  0.24932  0.10119  Biso   1.000  H
  C32      1.0000 0.36434  0.26866  0.01938  Biso   1.000  C
  H14      1.0000 0.40765  0.68414  0.29252  Biso   1.000  H
  C33      1.0000 0.47533  0.58542  0.24783  Biso   1.000  C
  C34      1.0000 0.57789  0.48020  0.19840  Biso   1.000  C
  C35      1.0000 0.77120  0.55634  0.22049  Biso   1.000  C
  H15      1.0000 0.83404  0.71102  0.27901  Biso   1.000  H
  H16      1.0000 0.28071  0.54912  0.99129  Biso   1.000  H
  C36      1.0000 0.39676  0.32636  0.96806  Biso   1.000  C
  H17      1.0000 0.38662  0.44657  0.94016  Biso   1.000  H
  C37      1.0000 0.39764  0.18370  0.01161  Biso   1.000  C
  H18      1.0000 0.40985  0.52678  0.22662  Biso   1.000  H
  H19      1.0000 0.51244  0.42150  0.17751  Biso   1.000  H
  C38      1.0000 0.67378  0.46824  0.18849  Biso   1.000  C
  C39      1.0000 0.87071  0.54482  0.21222  Biso   1.000  C
  C40      1.0000 0.46282  0.30222  0.91529  Biso   1.000  C
  N5       1.0000 0.36954  0.12950  0.06571  Biso   1.000  N
  C41      1.0000 0.46212  0.16253  0.95979  Biso   1.000  C
  C42      1.0000 0.67645  0.37173  0.14948  Biso   1.000  C
  N6       1.0000 0.96640  0.63379  0.24120  Biso   1.000  N
  C43      1.0000 0.87034  0.44945  0.17372  Biso   1.000  C
  C44      1.0000 0.49360  0.22203  0.90998  Biso   1.000  C
  H20      1.0000 0.48624  0.34261  0.88278  Biso   1.000  H
  C45      1.0000 0.33913  0.03201  0.03611  Biso   1.000  C
  H21      1.0000 0.48555  0.10813  0.95739  Biso   1.000  H
  H22      1.0000 0.61158  0.31263  0.12802  Biso   1.000  H
  C46      1.0000 0.77138  0.36289  0.14247  Biso   1.000  C
  C47      1.0000 0.05321  0.63421  0.28349  Biso   1.000  C
  H23      1.0000 0.93597  0.44129  0.16791  Biso   1.000  H
  H24      1.0000 0.53630  0.20603  0.87280  Biso   1.000  H
  H25      1.0000 0.33282  0.99883  0.97797  Biso   1.000  H
  C48      1.0000 0.31483  0.97190  0.08598  Biso   1.000  C
  H26      1.0000 0.77195  0.29720  0.11602  Biso   1.000  H
  C49      1.0000 0.15308  0.71981  0.30950  Biso   1.000  C
  H27      1.0000 0.05087  0.57652  0.29769  Biso   1.000  H
  N7       1.0000 0.32371  0.01258  0.17100  Biso   1.000  N
  C50      1.0000 0.28432  0.86811  0.06578  Biso   1.000  C
  N8       1.0000 0.16338  0.80000  0.28330  Biso   1.000  N
  C51      1.0000 0.25179  0.74240  0.36101  Biso   1.000  C
  H28      1.0000 0.34438  0.07810  0.19998  Biso   1.000  H
  C52      1.0000 0.29689  0.93981  0.20358  Biso   1.000  C
  C53      1.0000 0.27203  0.84741  0.13919  Biso   1.000  C
  H29      1.0000 0.27365  0.81943  0.01180  Biso   1.000  H
  C54      1.0000 0.26609  0.87199  0.31808  Biso   1.000  C
  H30      1.0000 0.11164  0.80454  0.24921  Biso   1.000  H
  C55      1.0000 0.32298  0.83769  0.36688  Biso   1.000  C
  H31      1.0000 0.26911  0.70010  0.38821  Biso   1.000  H
  C56      1.0000 0.29674  0.96453  0.29479  Biso   1.000  C
  H32      1.0000 0.25061  0.78222  0.14392  Biso   1.000  H
  H33      1.0000 0.39648  0.87190  0.39863  Biso   1.000  H
  C57      1.0000 0.40109  0.05211  0.35129  Biso   1.000  C
  H34      1.0000 0.23804  0.99111  0.30161  Biso   1.000  H
  C58      1.0000 0.50190  0.05270  0.34908  Biso   1.000  C
  C59      1.0000 0.40039  0.14270  0.40267  Biso   1.000  C
  C60      1.0000 0.59922  0.13995  0.39497  Biso   1.000  C
  F6       1.0000 0.50939  0.96472  0.29959  Biso   1.000  F
  F7       1.0000 0.30689  0.15349  0.40848  Biso   1.000  F
  C61      1.0000 0.49049  0.23008  0.44597  Biso   1.000  C
  F8       1.0000 0.69168  0.13026  0.38537  Biso   1.000  F
  C62      1.0000 0.58521  0.22628  0.43909  Biso   1.000  C
  F9       1.0000 0.48802  0.31948  0.48997  Biso   1.000  F
  F10      1.0000 0.68285  0.31098  0.47709  Biso   1.000  F
  C63      1.0000 0.50957  0.76989  0.55398  Biso   1.000  C
  C64      1.0000 0.59967  0.85727  0.59728  Biso   1.000  C
  C65      1.0000 0.41487  0.77372  0.56092  Biso   1.000  C
  F11      1.0000 0.51204  0.68049  0.50998  Biso   1.000  F
  C66      1.0000 0.59899  0.94789  0.64873  Biso   1.000  C
  F12      1.0000 0.69317  0.84648  0.59147  Biso   1.000  F
  C67      1.0000 0.40089  0.85995  0.60498  Biso   1.000  C
  F13      1.0000 0.31724  0.68902  0.52292  Biso   1.000  F
  C68      1.0000 0.70334  0.03547  0.70522  Biso   1.000  C
  C69      1.0000 0.49816  0.94727  0.65087  Biso   1.000  C
  F14      1.0000 0.30836  0.86964  0.61458  Biso   1.000  F
  C70      1.0000 0.70317  0.06015  0.79637  Biso   1.000  C
  C71      1.0000 0.73395  0.12791  0.68187  Biso   1.000  C
  H35      1.0000 0.76204  0.00889  0.69841  Biso   1.000  H
  F15      1.0000 0.49069  0.03528  0.70043  Biso   1.000  F
  N9       1.0000 0.67635  0.98735  0.82901  Biso   1.000  N
  C72      1.0000 0.72806  0.15258  0.86082  Biso   1.000  C
  N10      1.0000 0.83668  0.19993  0.71671  Biso   1.000  N
  C73      1.0000 0.67708  0.16228  0.63307  Biso   1.000  C
  C74      1.0000 0.68520  0.02800  0.91397  Biso   1.000  C
  H36      1.0000 0.65569  0.92187  0.79997  Biso   1.000  H
  C75      1.0000 0.71574  0.13186  0.93417  Biso   1.000  C
  H37      1.0000 0.74947  0.21777  0.85609  Biso   1.000  H
  C76      1.0000 0.84700  0.28018  0.69051  Biso   1.000  C
  H38      1.0000 0.88852  0.19546  0.75080  Biso   1.000  H
  C77      1.0000 0.74829  0.25759  0.63901  Biso   1.000  C
  H39      1.0000 0.60358  0.12802  0.60138  Biso   1.000  H
  C78      1.0000 0.66095  0.96799  0.96391  Biso   1.000  C
  H40      1.0000 0.72650  0.18057  0.98821  Biso   1.000  H
  C79      1.0000 0.94694  0.36579  0.71652  Biso   1.000  C
  H41      1.0000 0.73094  0.29983  0.61180  Biso   1.000  H
  N11      1.0000 0.63061  0.87050  0.93430  Biso   1.000  N
  H42      1.0000 0.66724  0.00109  0.02204  Biso   1.000  H
  N12      1.0000 0.03366  0.36614  0.75882  Biso   1.000  N
  H43      1.0000 0.94921  0.42347  0.70232  Biso   1.000  H
  C80      1.0000 0.60244  0.81630  0.98840  Biso   1.000  C
  C81      1.0000 0.12937  0.45518  0.78779  Biso   1.000  C
  C82      1.0000 0.63577  0.73124  0.98057  Biso   1.000  C
  C83      1.0000 0.53794  0.83740  0.04022  Biso   1.000  C
  C84      1.0000 0.22889  0.44366  0.77952  Biso   1.000  C
  C85      1.0000 0.12982  0.55054  0.82630  Biso   1.000  C
  C86      1.0000 0.70388  0.70915  0.93020  Biso   1.000  C
  C87      1.0000 0.60330  0.67361  0.03189  Biso   1.000  C
  C88      1.0000 0.50645  0.77790  0.09003  Biso   1.000  C
  H44      1.0000 0.51458  0.89180  0.04262  Biso   1.000  H
  C89      1.0000 0.23117  0.34767  0.74057  Biso   1.000  C
  C90      1.0000 0.32631  0.53176  0.81152  Biso   1.000  C
  C91      1.0000 0.22868  0.63707  0.85748  Biso   1.000  C
  H45      1.0000 0.06409  0.55864  0.83210  Biso   1.000  H
  C92      1.0000 0.73601  0.62894  0.92502  Biso   1.000  C
  H46      1.0000 0.72857  0.75068  0.89882  Biso   1.000  H
  C93      1.0000 0.63672  0.59355  0.02703  Biso   1.000  C
  C94      1.0000 0.53723  0.69771  0.08473  Biso   1.000  C
  H47      1.0000 0.46376  0.79390  0.12721  Biso   1.000  H
  C95      1.0000 0.32632  0.33679  0.73022  Biso   1.000  C
  H48      1.0000 0.16605  0.28898  0.72100  Biso   1.000  H
  C96      1.0000 0.42219  0.51979  0.80161  Biso   1.000  C
  C97      1.0000 0.32361  0.62824  0.85047  Biso   1.000  C
  H49      1.0000 0.22811  0.70273  0.88399  Biso   1.000  H
  C98      1.0000 0.80268  0.60227  0.87231  Biso   1.000  C
  C99      1.0000 0.70222  0.56909  0.97659  Biso   1.000  C
  H50      1.0000 0.61344  0.55340  0.05979  Biso   1.000  H
  H51      1.0000 0.51382  0.65731  0.11723  Biso   1.000  H
  C100     1.0000 0.33183  0.23963  0.68698  Biso   1.000  C
  C101     1.0000 0.42550  0.42457  0.76197  Biso   1.000  C
  H52      1.0000 0.48761  0.57843  0.82251  Biso   1.000  H
  H53      1.0000 0.38850  0.68736  0.87200  Biso   1.000  H
  N13      1.0000 0.82768  0.65386  0.81519  Biso   1.000  N
  C102     1.0000 0.83183  0.52415  0.87187  Biso   1.000  C
  C103     1.0000 0.73913  0.48917  0.97401  Biso   1.000  C
  N14      1.0000 0.23645  0.15094  0.65719  Biso   1.000  N
  C104     1.0000 0.42996  0.23367  0.67909  Biso   1.000  C
  C105     1.0000 0.52483  0.41458  0.75219  Biso   1.000  C
  C106     1.0000 0.92746  0.69136  0.81582  Biso   1.000  C
  C107     1.0000 0.80086  0.46709  0.92382  Biso   1.000  C
  H54      1.0000 0.87477  0.50626  0.83557  Biso   1.000  H
  H55      1.0000 0.71935  0.45081  0.00872  Biso   1.000  H
  C108     1.0000 0.21154  0.09154  0.57998  Biso   1.000  C
  H56      1.0000 0.43273  0.16943  0.65062  Biso   1.000  H
  C109     1.0000 0.52577  0.32183  0.71267  Biso   1.000  C
  H57      1.0000 0.59021  0.47314  0.77340  Biso   1.000  H
  C110     1.0000 0.96838  0.73092  0.75572  Biso   1.000  C
  H58      1.0000 0.97895  0.69294  0.86057  Biso   1.000  H
  H59      1.0000 0.82432  0.41296  0.92269  Biso   1.000  H
  C111     1.0000 0.12890  0.99296  0.54110  Biso   1.000  C
  H60      1.0000 0.25301  0.11629  0.54533  Biso   1.000  H
  H61      1.0000 0.59251  0.31586  0.70750  Biso   1.000  H
  N15      1.0000 0.90711  0.73172  0.68553  Biso   1.000  N
  C112     1.0000 0.07476  0.76918  0.75389  Biso   1.000  C
  N16      1.0000 0.06616  0.94037  0.58207  Biso   1.000  N
  C113     1.0000 0.10089  0.92847  0.45879  Biso   1.000  C
  C114     1.0000 0.97171  0.77042  0.63932  Biso   1.000  C
  H62      1.0000 0.83621  0.71050  0.67202  Biso   1.000  H
  C115     1.0000 0.07694  0.79295  0.68149  Biso   1.000  C
  H63      1.0000 0.13575  0.77780  0.79480  Biso   1.000  H
  C116     1.0000 0.00177  0.84471  0.52772  Biso   1.000  C
  H64      1.0000 0.06790  0.96518  0.63572  Biso   1.000  H
  C117     1.0000 0.02044  0.83582  0.44970  Biso   1.000  C
  H65      1.0000 0.13073  0.94378  0.41542  Biso   1.000  H
  C118     1.0000 0.92384  0.76930  0.55410  Biso   1.000  C
  H66      1.0000 0.13976  0.82007  0.66400  Biso   1.000  H
  H67      1.0000 0.98559  0.77772  0.39901  Biso   1.000  H
  C119     1.0000 0.88067  0.66127  0.48972  Biso   1.000  C
  H68      1.0000 0.86076  0.78980  0.55871  Biso   1.000  H
  C120     1.0000 0.77133  0.60450  0.45658  Biso   1.000  C
  C121     1.0000 0.94806  0.61060  0.46560  Biso   1.000  C
  C122     1.0000 0.73056  0.50185  0.40507  Biso   1.000  C
  F16      1.0000 0.70109  0.64900  0.47539  Biso   1.000  F
  C123     1.0000 0.90927  0.50971  0.41308  Biso   1.000  C
  F17      1.0000 0.05612  0.65796  0.49527  Biso   1.000  F
  F18      1.0000 0.62263  0.45006  0.37729  Biso   1.000  F
  C124     1.0000 0.80055  0.45551  0.38323  Biso   1.000  C
  F19      1.0000 0.97752  0.46390  0.39162  Biso   1.000  F
  F20      1.0000 0.76051  0.35600  0.33367  Biso   1.000  F
