data_image0
_cell_length_a       21.114
_cell_length_b       12.295
_cell_length_c       21.316
_cell_angle_alpha    90
_cell_angle_beta     103.78
_cell_angle_gamma    90

_symmetry_space_group_name_H-M    "P 1"
_symmetry_int_tables_number       1

loop_
  _symmetry_equiv_pos_as_xyz
  'x, y, z'

loop_
  _atom_site_label
  _atom_site_occupancy
  _atom_site_fract_x
  _atom_site_fract_y
  _atom_site_fract_z
  _atom_site_thermal_displace_type
  _atom_site_B_iso_or_equiv
  _atom_site_type_symbol
  O1       1.0000 0.41541  0.43351  0.53530  Biso   1.000  O
  C1       1.0000 0.36121  0.45506  0.51202  Biso   1.000  C
  O2       1.0000 0.32379  0.40521  0.45898  Biso   1.000  O
  C2       1.0000 0.32179  0.54526  0.53438  Biso   1.000  C
  C3       1.0000 0.35851  0.32956  0.42889  Biso   1.000  C
  C4       1.0000 0.25830  0.56454  0.50690  Biso   1.000  C
  C5       1.0000 0.35418  0.60732  0.58558  Biso   1.000  C
  C6       1.0000 0.39987  0.36251  0.39290  Biso   1.000  C
  C7       1.0000 0.34160  0.22098  0.43439  Biso   1.000  C
  C8       1.0000 0.22457  0.64547  0.53110  Biso   1.000  C
  H1       1.0000 0.23700  0.52338  0.47149  Biso   1.000  H
  C9       1.0000 0.32048  0.68922  0.60872  Biso   1.000  C
  H2       1.0000 0.39797  0.59471  0.60461  Biso   1.000  H
  C10      1.0000 0.41109  0.48418  0.38498  Biso   1.000  C
  C11      1.0000 0.43018  0.28508  0.36411  Biso   1.000  C
  C12      1.0000 0.29438  0.18129  0.47221  Biso   1.000  C
  C13      1.0000 0.37248  0.14453  0.40348  Biso   1.000  C
  C14      1.0000 0.25717  0.70679  0.58080  Biso   1.000  C
  H3       1.0000 0.18048  0.65710  0.51318  Biso   1.000  H
  H4       1.0000 0.34171  0.73192  0.64340  Biso   1.000  H
  C15      1.0000 0.41987  0.51216  0.31909  Biso   1.000  C
  H5       1.0000 0.37420  0.52436  0.39271  Biso   1.000  H
  H6       1.0000 0.44960  0.50671  0.41710  Biso   1.000  H
  C16      1.0000 0.41611  0.17747  0.37000  Biso   1.000  C
  H7       1.0000 0.46021  0.30557  0.34068  Biso   1.000  H
  C17      1.0000 0.24628  0.09809  0.43980  Biso   1.000  C
  H8       1.0000 0.31918  0.15120  0.51269  Biso   1.000  H
  H9       1.0000 0.27048  0.24351  0.48250  Biso   1.000  H
  H10      1.0000 0.36319  0.07092  0.40599  Biso   1.000  H
  H11      1.0000 0.23528  0.76267  0.59631  Biso   1.000  H
  C18      1.0000 0.37269  0.49077  0.26509  Biso   1.000  C
  C19      1.0000 0.47628  0.56023  0.31218  Biso   1.000  C
  H12      1.0000 0.43711  0.12558  0.35039  Biso   1.000  H
  C20      1.0000 0.19178  0.12428  0.39140  Biso   1.000  C
  C21      1.0000 0.25750  0.98308  0.45019  Biso   1.000  C
  C22      1.0000 0.38092  0.51183  0.20302  Biso   1.000  C
  O3       1.0000 0.31530  0.45108  0.27460  Biso   1.000  O
  C23      1.0000 0.48361  0.58796  0.25069  Biso   1.000  C
  H13      1.0000 0.50978  0.57438  0.34832  Biso   1.000  H
  C24      1.0000 0.14700  0.05319  0.35880  Biso   1.000  C
  O4       1.0000 0.18110  0.23457  0.37851  Biso   1.000  O
  C25      1.0000 0.21248  0.90891  0.41681  Biso   1.000  C
  H14      1.0000 0.29491  0.95876  0.47931  Biso   1.000  H
  C26      1.0000 0.33059  0.47662  0.14399  Biso   1.000  C
  C27      1.0000 0.43740  0.55958  0.19780  Biso   1.000  C
  H15      1.0000 0.32290  0.40163  0.30108  Biso   1.000  H
  H16      1.0000 0.52042  0.62603  0.24620  Biso   1.000  H
  C28      1.0000 0.08429  0.08353  0.31151  Biso   1.000  C
  C29      1.0000 0.16159  0.94063  0.37242  Biso   1.000  C
  C30      1.0000 0.13791  0.28792  0.40551  Biso   1.000  C
  H17      1.0000 0.21850  0.83522  0.42608  Biso   1.000  H
  C31      1.0000 0.30750  0.36063  0.14288  Biso   1.000  C
  H18      1.0000 0.29288  0.52387  0.13940  Biso   1.000  H
  H19      1.0000 0.34829  0.48808  0.10651  Biso   1.000  H
  H20      1.0000 0.44438  0.57300  0.15708  Biso   1.000  H
  C32      1.0000 0.08560  0.15958  0.25649  Biso   1.000  C
  H21      1.0000 0.06378  0.01651  0.29282  Biso   1.000  H
  H22      1.0000 0.05570  0.11533  0.33600  Biso   1.000  H
  H23      1.0000 0.13398  0.88833  0.34899  Biso   1.000  H
  O5       1.0000 0.11168  0.24791  0.44198  Biso   1.000  O
  C33      1.0000 0.12821  0.40350  0.38169  Biso   1.000  C
  C34      1.0000 0.24632  0.32127  0.12462  Biso   1.000  C
  C35      1.0000 0.35522  0.27963  0.16331  Biso   1.000  C
  C36      1.0000 0.12449  0.14469  0.21239  Biso   1.000  C
  C37      1.0000 0.04049  0.24896  0.24340  Biso   1.000  C
  C38      1.0000 0.16678  0.44782  0.34160  Biso   1.000  C
  C39      1.0000 0.08111  0.46173  0.40188  Biso   1.000  C
  C40      1.0000 0.22591  0.21497  0.12641  Biso   1.000  C
  O6       1.0000 0.19700  0.39732  0.09540  Biso   1.000  O
  C41      1.0000 0.33979  0.17007  0.16312  Biso   1.000  C
  H24      1.0000 0.39861  0.30053  0.17752  Biso   1.000  H
  C42      1.0000 0.11670  0.20309  0.15539  Biso   1.000  C
  O7       1.0000 0.17510  0.06962  0.22649  Biso   1.000  O
  C43      1.0000 0.03321  0.30996  0.19051  Biso   1.000  C
  H25      1.0000 0.01561  0.26482  0.27291  Biso   1.000  H
  C44      1.0000 0.15508  0.55543  0.32701  Biso   1.000  C
  H26      1.0000 0.19727  0.40708  0.32658  Biso   1.000  H
  C45      1.0000 0.06972  0.56909  0.38092  Biso   1.000  C
  H27      1.0000 0.05748  0.43042  0.42889  Biso   1.000  H
  C46      1.0000 0.27561  0.13932  0.14520  Biso   1.000  C
  C47      1.0000 0.15588  0.17942  0.10738  Biso   1.000  C
  C48      1.0000 0.17461  0.47027  0.13230  Biso   1.000  C
  H28      1.0000 0.37248  0.11818  0.17500  Biso   1.000  H
  C49      1.0000 0.07052  0.28808  0.14752  Biso   1.000  C
  C50      1.0000 0.16279  0.95844  0.22142  Biso   1.000  C
  H29      1.0000 0.00320  0.36673  0.18288  Biso   1.000  H
  C51      1.0000 0.10851  0.61423  0.34431  Biso   1.000  C
  H30      1.0000 0.18118  0.59000  0.30359  Biso   1.000  H
  H31      1.0000 0.03651  0.60943  0.39150  Biso   1.000  H
  H32      1.0000 0.26509  0.06588  0.14559  Biso   1.000  H
  H33      1.0000 0.13508  0.21464  0.06700  Biso   1.000  H
  H34      1.0000 0.15472  0.10159  0.09960  Biso   1.000  H
  O8       1.0000 0.19587  0.47686  0.18998  Biso   1.000  O
  C52      1.0000 0.12602  0.54298  0.09371  Biso   1.000  C
  H35      1.0000 0.06508  0.33168  0.11090  Biso   1.000  H
  O9       1.0000 0.11030  0.92477  0.19949  Biso   1.000  O
  C53      1.0000 0.22639  0.90069  0.24601  Biso   1.000  C
  H36      1.0000 0.10231  0.68638  0.33131  Biso   1.000  H
  C54      1.0000 0.09399  0.61781  0.12380  Biso   1.000  C
  C55      1.0000 0.10882  0.54128  0.02748  Biso   1.000  C
  C56      1.0000 0.22249  0.78699  0.24181  Biso   1.000  C
  C57      1.0000 0.28420  0.94990  0.27151  Biso   1.000  C
  C58      1.0000 0.05011  0.69199  0.08941  Biso   1.000  C
  H37      1.0000 0.10237  0.61789  0.16868  Biso   1.000  H
  H38      1.0000 0.12781  0.49101  0.00502  Biso   1.000  H
  C59      1.0000 0.06319  0.61399  0.99391  Biso   1.000  C
  C60      1.0000 0.28048  0.72818  0.26610  Biso   1.000  C
  H39      1.0000 0.18330  0.75177  0.22379  Biso   1.000  H
  H40      1.0000 0.28571  0.02513  0.27581  Biso   1.000  H
  C61      1.0000 0.33939  0.89183  0.29069  Biso   1.000  C
  C62      1.0000 0.03609  0.68971  0.02502  Biso   1.000  C
  H41      1.0000 0.03051  0.74298  0.11090  Biso   1.000  H
  H42      1.0000 0.05088  0.61049  0.94904  Biso   1.000  H
  C63      1.0000 0.33842  0.77804  0.28702  Biso   1.000  C
  H43      1.0000 0.27871  0.65279  0.26779  Biso   1.000  H
  H44      1.0000 0.37878  0.92761  0.30658  Biso   1.000  H
  H45      1.0000 0.00761  0.74071  0.00150  Biso   1.000  H
  H46      1.0000 0.37682  0.73786  0.29861  Biso   1.000  H
  C64      1.0000 0.33981  0.32989  0.66311  Biso   1.000  C
  C65      1.0000 0.35521  0.22041  0.66330  Biso   1.000  C
  C66      1.0000 0.27559  0.36072  0.64519  Biso   1.000  C
  H47      1.0000 0.37251  0.38178  0.67499  Biso   1.000  H
  C67      1.0000 0.30749  0.13941  0.64292  Biso   1.000  C
  H48      1.0000 0.39859  0.19951  0.67750  Biso   1.000  H
  C68      1.0000 0.22589  0.28499  0.62640  Biso   1.000  C
  H49      1.0000 0.26508  0.43408  0.64558  Biso   1.000  H
  C69      1.0000 0.24630  0.17869  0.62461  Biso   1.000  C
  C70      1.0000 0.33057  0.02342  0.64398  Biso   1.000  C
  C71      1.0000 0.15587  0.32062  0.60742  Biso   1.000  C
  O10      1.0000 0.19698  0.10272  0.59539  Biso   1.000  O
  H50      1.0000 0.34827  0.01187  0.60650  Biso   1.000  H
  C72      1.0000 0.38090  0.98821  0.70301  Biso   1.000  C
  H51      1.0000 0.29291  0.97609  0.63939  Biso   1.000  H
  C73      1.0000 0.11668  0.29687  0.65538  Biso   1.000  C
  H52      1.0000 0.13507  0.28540  0.56699  Biso   1.000  H
  H53      1.0000 0.15470  0.39837  0.59959  Biso   1.000  H
  C74      1.0000 0.17459  0.02969  0.63229  Biso   1.000  C
  C75      1.0000 0.37267  0.00919  0.76508  Biso   1.000  C
  C76      1.0000 0.43738  0.94038  0.69779  Biso   1.000  C
  C77      1.0000 0.07050  0.21187  0.64751  Biso   1.000  C
  C78      1.0000 0.12447  0.35527  0.71238  Biso   1.000  C
  O11      1.0000 0.19591  0.02310  0.69001  Biso   1.000  O
  C79      1.0000 0.12600  0.95697  0.59370  Biso   1.000  C
  O12      1.0000 0.31528  0.04888  0.77459  Biso   1.000  O
  C80      1.0000 0.41990  0.98780  0.81908  Biso   1.000  C
  C81      1.0000 0.48359  0.91200  0.75068  Biso   1.000  C
  H54      1.0000 0.44437  0.92696  0.65712  Biso   1.000  H
  C82      1.0000 0.03320  0.19000  0.69050  Biso   1.000  C
  H55      1.0000 0.06511  0.16828  0.61089  Biso   1.000  H
  O13      1.0000 0.17508  0.43042  0.72648  Biso   1.000  O
  C83      1.0000 0.08558  0.34038  0.75648  Biso   1.000  C
  C84      1.0000 0.09398  0.88223  0.62379  Biso   1.000  C
  C85      1.0000 0.10881  0.95868  0.52752  Biso   1.000  C
  H56      1.0000 0.32289  0.09841  0.80111  Biso   1.000  H
  C86      1.0000 0.41108  0.01578  0.88502  Biso   1.000  C
  C87      1.0000 0.47626  0.93981  0.81217  Biso   1.000  C
  H57      1.0000 0.52040  0.87401  0.74619  Biso   1.000  H
  C88      1.0000 0.04047  0.25100  0.74339  Biso   1.000  C
  H58      1.0000 0.00319  0.13331  0.68291  Biso   1.000  H
  C89      1.0000 0.16278  0.54160  0.72141  Biso   1.000  C
  C90      1.0000 0.08427  0.41651  0.81150  Biso   1.000  C
  C91      1.0000 0.05009  0.80797  0.58940  Biso   1.000  C
  H59      1.0000 0.10241  0.88207  0.66871  Biso   1.000  H
  H60      1.0000 0.12779  0.00903  0.50501  Biso   1.000  H
  C92      1.0000 0.06321  0.88597  0.49390  Biso   1.000  C
  C93      1.0000 0.39990  0.13754  0.89289  Biso   1.000  C
  H61      1.0000 0.37418  0.97560  0.89270  Biso   1.000  H
  H62      1.0000 0.44958  0.99333  0.91709  Biso   1.000  H
  H63      1.0000 0.50976  0.92558  0.84830  Biso   1.000  H
  H64      1.0000 0.01560  0.23522  0.77290  Biso   1.000  H
  O14      1.0000 0.11028  0.57519  0.69948  Biso   1.000  O
  C94      1.0000 0.22638  0.59927  0.74600  Biso   1.000  C
  C95      1.0000 0.14698  0.44677  0.85879  Biso   1.000  C
  H65      1.0000 0.06377  0.48353  0.79280  Biso   1.000  H
  H66      1.0000 0.05568  0.38471  0.83599  Biso   1.000  H
  C96      1.0000 0.03607  0.81033  0.52501  Biso   1.000  C
  H67      1.0000 0.03049  0.75697  0.61089  Biso   1.000  H
  H68      1.0000 0.05090  0.88947  0.44898  Biso   1.000  H
  C97      1.0000 0.43020  0.21488  0.86410  Biso   1.000  C
  C98      1.0000 0.35849  0.17039  0.92887  Biso   1.000  C
  C99      1.0000 0.22248  0.71297  0.74180  Biso   1.000  C
  C100     1.0000 0.28418  0.55006  0.77150  Biso   1.000  C
  C101     1.0000 0.16158  0.55941  0.87241  Biso   1.000  C
  C102     1.0000 0.19176  0.37568  0.89139  Biso   1.000  C
  H69      1.0000 0.00759  0.75933  0.50149  Biso   1.000  H
  C103     1.0000 0.41609  0.32249  0.86999  Biso   1.000  C
  H70      1.0000 0.46019  0.19439  0.84067  Biso   1.000  H
  O15      1.0000 0.32378  0.09484  0.95902  Biso   1.000  O
  C104     1.0000 0.34158  0.27898  0.93438  Biso   1.000  C
  C105     1.0000 0.28046  0.77178  0.76609  Biso   1.000  C
  H71      1.0000 0.18328  0.74819  0.72378  Biso   1.000  H
  C106     1.0000 0.33937  0.60821  0.79068  Biso   1.000  C
  H72      1.0000 0.28569  0.47491  0.77580  Biso   1.000  H
  C107     1.0000 0.21246  0.59113  0.91680  Biso   1.000  C
  H73      1.0000 0.13397  0.61171  0.84898  Biso   1.000  H
  O16      1.0000 0.18108  0.26539  0.87849  Biso   1.000  O
  C108     1.0000 0.24627  0.40187  0.93979  Biso   1.000  C
  C109     1.0000 0.37248  0.35551  0.90352  Biso   1.000  C
  H74      1.0000 0.43709  0.37438  0.85038  Biso   1.000  H
  C110     1.0000 0.36118  0.04490  0.01196  Biso   1.000  C
  C111     1.0000 0.29436  0.31867  0.97220  Biso   1.000  C
  C112     1.0000 0.33840  0.72200  0.78701  Biso   1.000  C
  H75      1.0000 0.27869  0.84717  0.76778  Biso   1.000  H
  H76      1.0000 0.37878  0.57243  0.80662  Biso   1.000  H
  C113     1.0000 0.25748  0.51688  0.95018  Biso   1.000  C
  H77      1.0000 0.21848  0.66482  0.92607  Biso   1.000  H
  C114     1.0000 0.13790  0.21212  0.90550  Biso   1.000  C
  H78      1.0000 0.36317  0.42912  0.90598  Biso   1.000  H
  C115     1.0000 0.32182  0.95470  0.03437  Biso   1.000  C
  O17      1.0000 0.41544  0.06653  0.03529  Biso   1.000  O
  H79      1.0000 0.27046  0.25653  0.98249  Biso   1.000  H
  H80      1.0000 0.31921  0.34876  0.01268  Biso   1.000  H
  H81      1.0000 0.37680  0.76210  0.79860  Biso   1.000  H
  H82      1.0000 0.29489  0.54120  0.97930  Biso   1.000  H
  O18      1.0000 0.11168  0.25214  0.94201  Biso   1.000  O
  C116     1.0000 0.12819  0.09646  0.88168  Biso   1.000  C
  C117     1.0000 0.25833  0.93550  0.00688  Biso   1.000  C
  C118     1.0000 0.35421  0.89272  0.08557  Biso   1.000  C
  C119     1.0000 0.16676  0.05222  0.84159  Biso   1.000  C
  C120     1.0000 0.08109  0.03831  0.90187  Biso   1.000  C
  H83      1.0000 0.23698  0.97658  0.97148  Biso   1.000  H
  C121     1.0000 0.22460  0.85449  0.03108  Biso   1.000  C
  C122     1.0000 0.32050  0.81082  0.10866  Biso   1.000  C
  H84      1.0000 0.39799  0.90533  0.10455  Biso   1.000  H
  H85      1.0000 0.19731  0.09288  0.82662  Biso   1.000  H
  C123     1.0000 0.15511  0.94461  0.82700  Biso   1.000  C
  H86      1.0000 0.05746  0.06962  0.92887  Biso   1.000  H
  C124     1.0000 0.06970  0.93087  0.88091  Biso   1.000  C
  C125     1.0000 0.25720  0.79317  0.08079  Biso   1.000  C
  H87      1.0000 0.18051  0.84286  0.01316  Biso   1.000  H
  H88      1.0000 0.34174  0.76812  0.14339  Biso   1.000  H
  C126     1.0000 0.10850  0.88581  0.84430  Biso   1.000  C
  H89      1.0000 0.18116  0.90996  0.80358  Biso   1.000  H
  H90      1.0000 0.03649  0.89061  0.89149  Biso   1.000  H
  H91      1.0000 0.23531  0.73729  0.09629  Biso   1.000  H
  H92      1.0000 0.10229  0.81358  0.83130  Biso   1.000  H
