data_image0
_cell_length_a       10.378
_cell_length_b       17.795
_cell_length_c       24.28
_cell_angle_alpha    90
_cell_angle_beta     102.18
_cell_angle_gamma    90

_symmetry_space_group_name_H-M    "P 1"
_symmetry_int_tables_number       1

loop_
  _symmetry_equiv_pos_as_xyz
  'x, y, z'

loop_
  _atom_site_label
  _atom_site_occupancy
  _atom_site_fract_x
  _atom_site_fract_y
  _atom_site_fract_z
  _atom_site_thermal_displace_type
  _atom_site_B_iso_or_equiv
  _atom_site_type_symbol
  O1       1.0000 0.72270  0.44737  0.65106  Biso   1.000  O
  C1       1.0000 0.82406  0.43658  0.69556  Biso   1.000  C
  H1       1.0000 0.74767  0.47249  0.61731  Biso   1.000  H
  C2       1.0000 0.81615  0.37853  0.73302  Biso   1.000  C
  C3       1.0000 0.93572  0.48115  0.70938  Biso   1.000  C
  O2       1.0000 0.71760  0.32386  0.71726  Biso   1.000  O
  C4       1.0000 0.90257  0.36960  0.78434  Biso   1.000  C
  C5       1.0000 0.02692  0.47244  0.76002  Biso   1.000  C
  O3       1.0000 0.96034  0.53571  0.67083  Biso   1.000  O
  C6       1.0000 0.59714  0.33914  0.72484  Biso   1.000  C
  H2       1.0000 0.88892  0.33060  0.80920  Biso   1.000  H
  C7       1.0000 0.00997  0.41798  0.79967  Biso   1.000  C
  H3       1.0000 0.10231  0.50402  0.76790  Biso   1.000  H
  C8       1.0000 0.88987  0.60006  0.66606  Biso   1.000  C
  N1       1.0000 0.51052  0.28373  0.70963  Biso   1.000  N
  N2       1.0000 0.57510  0.40534  0.74616  Biso   1.000  N
  C9       1.0000 0.09738  0.41371  0.85904  Biso   1.000  C
  N3       1.0000 0.80311  0.60809  0.69821  Biso   1.000  N
  N4       1.0000 0.91939  0.64844  0.62945  Biso   1.000  N
  C10      1.0000 0.38961  0.29963  0.71650  Biso   1.000  C
  C11      1.0000 0.45142  0.41343  0.75054  Biso   1.000  C
  C12      1.0000 0.03222  0.46030  0.89882  Biso   1.000  C
  C13      1.0000 0.23401  0.44428  0.86060  Biso   1.000  C
  C14      1.0000 0.11162  0.33301  0.88243  Biso   1.000  C
  C15      1.0000 0.74093  0.67334  0.68995  Biso   1.000  C
  C16      1.0000 0.85058  0.71278  0.62591  Biso   1.000  C
  C17      1.0000 0.28460  0.23917  0.70053  Biso   1.000  C
  N5       1.0000 0.35374  0.36432  0.73693  Biso   1.000  N
  O4       1.0000 0.41565  0.47789  0.77178  Biso   1.000  O
  H4       1.0000 0.94782  0.43743  0.90139  Biso   1.000  H
  H5       1.0000 0.01677  0.51160  0.88411  Biso   1.000  H
  H6       1.0000 0.09023  0.46193  0.93632  Biso   1.000  H
  H7       1.0000 0.22801  0.49761  0.85019  Biso   1.000  H
  H8       1.0000 0.28798  0.43877  0.89869  Biso   1.000  H
  H9       1.0000 0.27469  0.41630  0.83389  Biso   1.000  H
  H10      1.0000 0.17050  0.33301  0.91971  Biso   1.000  H
  H11      1.0000 0.02478  0.31391  0.88550  Biso   1.000  H
  H12      1.0000 0.14864  0.30070  0.85689  Biso   1.000  H
  O5       1.0000 0.64827  0.68868  0.71911  Biso   1.000  O
  N6       1.0000 0.75778  0.72779  0.65498  Biso   1.000  N
  C18      1.0000 0.87793  0.77185  0.58487  Biso   1.000  C
  C19      1.0000 0.28044  0.21708  0.63880  Biso   1.000  C
  C20      1.0000 0.33114  0.17640  0.66598  Biso   1.000  C
  C21      1.0000 0.14761  0.26850  0.70390  Biso   1.000  C
  C22      1.0000 0.32436  0.17241  0.73891  Biso   1.000  C
  C23      1.0000 0.15904  0.27553  0.66851  Biso   1.000  C
  C24      1.0000 0.26656  0.20410  0.75632  Biso   1.000  C
  C25      1.0000 0.50949  0.53521  0.78581  Biso   1.000  C
  C26      1.0000 0.62571  0.63816  0.76028  Biso   1.000  C
  C27      1.0000 0.81461  0.84732  0.59540  Biso   1.000  C
  C28      1.0000 0.80534  0.74808  0.52605  Biso   1.000  C
  C29      1.0000 0.87297  0.85148  0.60821  Biso   1.000  C
  C30      1.0000 0.02589  0.77460  0.58635  Biso   1.000  C
  H13      1.0000 0.36711  0.19848  0.63518  Biso   1.000  H
  H14      1.0000 0.21434  0.17769  0.62730  Biso   1.000  H
  H15      1.0000 0.25697  0.26120  0.61449  Biso   1.000  H
  H16      1.0000 0.35234  0.19781  0.63181  Biso   1.000  H
  H17      1.0000 0.40999  0.15251  0.68848  Biso   1.000  H
  H18      1.0000 0.26118  0.13892  0.65561  Biso   1.000  H
  H19      1.0000 0.12957  0.31509  0.68220  Biso   1.000  H
  H20      1.0000 0.08104  0.23080  0.68831  Biso   1.000  H
  H21      1.0000 0.14460  0.27822  0.74330  Biso   1.000  H
  H22      1.0000 0.09102  0.23698  0.65738  Biso   1.000  H
  H23      1.0000 0.12858  0.31290  0.69248  Biso   1.000  H
  H24      1.0000 0.33016  0.18769  0.77818  Biso   1.000  H
  H25      1.0000 0.25837  0.13251  0.72918  Biso   1.000  H
  H26      1.0000 0.41030  0.15369  0.73441  Biso   1.000  H
  H27      1.0000 0.35173  0.18573  0.77738  Biso   1.000  H
  H28      1.0000 0.17619  0.30020  0.63472  Biso   1.000  H
  H29      1.0000 0.23232  0.24209  0.77869  Biso   1.000  H
  H30      1.0000 0.20416  0.16218  0.74840  Biso   1.000  H
  C31      1.0000 0.55032  0.57443  0.74359  Biso   1.000  C
  C32      1.0000 0.54764  0.55465  0.84202  Biso   1.000  C
  C33      1.0000 0.66682  0.65844  0.81564  Biso   1.000  C
  H31      1.0000 0.84518  0.86198  0.63488  Biso   1.000  H
  H32      1.0000 0.83990  0.88598  0.57088  Biso   1.000  H
  H33      1.0000 0.71855  0.84198  0.58702  Biso   1.000  H
  H34      1.0000 0.89061  0.88800  0.58032  Biso   1.000  H
  H35      1.0000 0.78609  0.86097  0.61609  Biso   1.000  H
  H36      1.0000 0.71007  0.75308  0.52319  Biso   1.000  H
  H37      1.0000 0.83274  0.78028  0.49782  Biso   1.000  H
  H38      1.0000 0.82649  0.69559  0.51952  Biso   1.000  H
  H39      1.0000 0.94064  0.85670  0.64302  Biso   1.000  H
  H40      1.0000 0.05531  0.72537  0.57569  Biso   1.000  H
  H41      1.0000 0.04356  0.81281  0.55988  Biso   1.000  H
  H42      1.0000 0.07354  0.78730  0.62452  Biso   1.000  H
  O6       1.0000 0.51087  0.55431  0.68789  Biso   1.000  O
  C34      1.0000 0.63052  0.61573  0.85824  Biso   1.000  C
  H43      1.0000 0.51698  0.52610  0.86970  Biso   1.000  H
  H44      1.0000 0.72033  0.70183  0.82508  Biso   1.000  H
  H45      1.0000 0.57688  0.52582  0.67521  Biso   1.000  H
  C35      1.0000 0.68033  0.63821  0.91993  Biso   1.000  C
  C36      1.0000 0.62912  0.58601  0.96004  Biso   1.000  C
  C37      1.0000 0.83198  0.63602  0.93337  Biso   1.000  C
  C38      1.0000 0.63643  0.71773  0.92957  Biso   1.000  C
  H46      1.0000 0.66110  0.53481  0.95612  Biso   1.000  H
  H47      1.0000 0.66082  0.60320  0.99889  Biso   1.000  H
  H48      1.0000 0.53255  0.58618  0.95102  Biso   1.000  H
  H49      1.0000 0.86191  0.58460  0.92861  Biso   1.000  H
  H50      1.0000 0.86552  0.66979  0.90779  Biso   1.000  H
  H51      1.0000 0.86531  0.65221  0.97238  Biso   1.000  H
  H52      1.0000 0.67068  0.73212  0.96889  Biso   1.000  H
  H53      1.0000 0.67032  0.75251  0.90471  Biso   1.000  H
  H54      1.0000 0.53990  0.71998  0.92140  Biso   1.000  H
  O7       1.0000 0.27735  0.55263  0.34892  Biso   1.000  O
  C39      1.0000 0.17592  0.56342  0.30446  Biso   1.000  C
  H55      1.0000 0.25231  0.52751  0.38271  Biso   1.000  H
  C40      1.0000 0.06433  0.51885  0.29060  Biso   1.000  C
  C41      1.0000 0.18381  0.62147  0.26697  Biso   1.000  C
  O8       1.0000 0.03974  0.46429  0.32920  Biso   1.000  O
  C42      1.0000 0.97314  0.52756  0.23996  Biso   1.000  C
  O9       1.0000 0.28245  0.67614  0.28272  Biso   1.000  O
  C43      1.0000 0.09739  0.63040  0.21565  Biso   1.000  C
  C44      1.0000 0.11009  0.39994  0.33392  Biso   1.000  C
  H56      1.0000 0.89768  0.49598  0.23212  Biso   1.000  H
  C45      1.0000 0.99001  0.58202  0.20035  Biso   1.000  C
  C46      1.0000 0.40291  0.66086  0.27514  Biso   1.000  C
  H57      1.0000 0.11113  0.66940  0.19079  Biso   1.000  H
  N7       1.0000 0.19685  0.39191  0.30177  Biso   1.000  N
  N8       1.0000 0.08057  0.35156  0.37053  Biso   1.000  N
  C47      1.0000 0.90260  0.58629  0.14098  Biso   1.000  C
  N9       1.0000 0.42486  0.59466  0.25382  Biso   1.000  N
  N10      1.0000 0.48953  0.71627  0.29035  Biso   1.000  N
  C48      1.0000 0.25912  0.32666  0.31003  Biso   1.000  C
  C49      1.0000 0.14940  0.28722  0.37411  Biso   1.000  C
  C50      1.0000 0.96776  0.53970  0.10121  Biso   1.000  C
  C51      1.0000 0.76597  0.55572  0.13942  Biso   1.000  C
  C52      1.0000 0.88844  0.66699  0.11756  Biso   1.000  C
  C53      1.0000 0.54864  0.58657  0.24944  Biso   1.000  C
  C54      1.0000 0.61037  0.70037  0.28352  Biso   1.000  C
  O10      1.0000 0.35169  0.31132  0.28087  Biso   1.000  O
  N11      1.0000 0.24220  0.27221  0.34504  Biso   1.000  N
  C55      1.0000 0.12215  0.22815  0.41515  Biso   1.000  C
  H58      1.0000 0.05223  0.56257  0.09860  Biso   1.000  H
  H59      1.0000 0.98321  0.48840  0.11591  Biso   1.000  H
  H60      1.0000 0.90984  0.53807  0.06371  Biso   1.000  H
  H61      1.0000 0.77195  0.50239  0.14979  Biso   1.000  H
  H62      1.0000 0.71198  0.56123  0.10129  Biso   1.000  H
  H63      1.0000 0.72527  0.58370  0.16609  Biso   1.000  H
  H64      1.0000 0.82949  0.66699  0.08031  Biso   1.000  H
  H65      1.0000 0.97518  0.68609  0.11448  Biso   1.000  H
  H66      1.0000 0.85142  0.69930  0.14309  Biso   1.000  H
  O11      1.0000 0.58431  0.52211  0.22820  Biso   1.000  O
  N12      1.0000 0.64632  0.63568  0.26305  Biso   1.000  N
  C56      1.0000 0.71536  0.76083  0.29945  Biso   1.000  C
  C57      1.0000 0.37425  0.36184  0.23970  Biso   1.000  C
  C58      1.0000 0.18537  0.15268  0.40462  Biso   1.000  C
  C59      1.0000 0.19472  0.25192  0.47393  Biso   1.000  C
  C60      1.0000 0.12701  0.14852  0.39181  Biso   1.000  C
  C61      1.0000 0.97407  0.22540  0.41364  Biso   1.000  C
  C62      1.0000 0.49047  0.46479  0.21417  Biso   1.000  C
  C63      1.0000 0.85235  0.73150  0.29608  Biso   1.000  C
  C64      1.0000 0.71964  0.78292  0.36122  Biso   1.000  C
  C65      1.0000 0.67562  0.82759  0.26111  Biso   1.000  C
  C66      1.0000 0.84103  0.72447  0.33152  Biso   1.000  C
  C67      1.0000 0.66882  0.82360  0.33400  Biso   1.000  C
  C68      1.0000 0.73342  0.79590  0.24371  Biso   1.000  C
  C69      1.0000 0.44974  0.42557  0.25639  Biso   1.000  C
  C70      1.0000 0.33323  0.34156  0.18434  Biso   1.000  C
  H67      1.0000 0.15478  0.13802  0.36510  Biso   1.000  H
  H68      1.0000 0.16006  0.11402  0.42910  Biso   1.000  H
  H69      1.0000 0.28153  0.15802  0.41300  Biso   1.000  H
  H70      1.0000 0.10937  0.11200  0.41970  Biso   1.000  H
  H71      1.0000 0.21387  0.13903  0.38389  Biso   1.000  H
  H72      1.0000 0.28989  0.24692  0.47680  Biso   1.000  H
  H73      1.0000 0.16734  0.21972  0.50220  Biso   1.000  H
  H74      1.0000 0.17349  0.30441  0.48050  Biso   1.000  H
  H75      1.0000 0.05944  0.14330  0.35701  Biso   1.000  H
  H76      1.0000 0.94474  0.27463  0.42430  Biso   1.000  H
  H77      1.0000 0.95640  0.18719  0.44010  Biso   1.000  H
  H78      1.0000 0.92654  0.21270  0.37550  Biso   1.000  H
  C71      1.0000 0.45244  0.44535  0.15800  Biso   1.000  C
  H79      1.0000 0.87039  0.68491  0.31778  Biso   1.000  H
  H80      1.0000 0.91904  0.76920  0.31171  Biso   1.000  H
  H81      1.0000 0.85536  0.72178  0.25668  Biso   1.000  H
  H82      1.0000 0.90904  0.76302  0.34260  Biso   1.000  H
  H83      1.0000 0.87138  0.68710  0.30750  Biso   1.000  H
  H84      1.0000 0.63285  0.80152  0.36480  Biso   1.000  H
  H85      1.0000 0.78571  0.82231  0.37268  Biso   1.000  H
  H86      1.0000 0.74299  0.73880  0.38549  Biso   1.000  H
  H87      1.0000 0.64774  0.80219  0.36821  Biso   1.000  H
  H88      1.0000 0.66980  0.81231  0.22180  Biso   1.000  H
  H89      1.0000 0.74159  0.86749  0.27080  Biso   1.000  H
  H90      1.0000 0.58968  0.84631  0.26562  Biso   1.000  H
  H91      1.0000 0.64832  0.81427  0.22260  Biso   1.000  H
  H92      1.0000 0.82380  0.69980  0.36531  Biso   1.000  H
  H93      1.0000 0.58997  0.84749  0.31150  Biso   1.000  H
  H94      1.0000 0.73880  0.86108  0.34441  Biso   1.000  H
  H95      1.0000 0.76774  0.75791  0.22129  Biso   1.000  H
  H96      1.0000 0.79580  0.83782  0.25159  Biso   1.000  H
  O12      1.0000 0.48918  0.44569  0.31209  Biso   1.000  O
  C72      1.0000 0.36954  0.38427  0.14174  Biso   1.000  C
  H97      1.0000 0.27972  0.29817  0.17490  Biso   1.000  H
  H98      1.0000 0.48298  0.47390  0.13028  Biso   1.000  H
  H99      1.0000 0.42310  0.47418  0.32482  Biso   1.000  H
  C73      1.0000 0.31975  0.36179  0.08010  Biso   1.000  C
  C74      1.0000 0.37084  0.41399  0.03994  Biso   1.000  C
  C75      1.0000 0.16798  0.36398  0.06661  Biso   1.000  C
  C76      1.0000 0.36362  0.28227  0.07041  Biso   1.000  C
  H100     1.0000 0.33888  0.46519  0.04390  Biso   1.000  H
  H101     1.0000 0.33924  0.39680  0.00110  Biso   1.000  H
  H102     1.0000 0.46753  0.41382  0.04900  Biso   1.000  H
  H103     1.0000 0.13807  0.41540  0.07142  Biso   1.000  H
  H104     1.0000 0.13454  0.33021  0.09219  Biso   1.000  H
  H105     1.0000 0.13474  0.34779  0.02760  Biso   1.000  H
  H106     1.0000 0.32928  0.26788  0.03110  Biso   1.000  H
  H107     1.0000 0.32966  0.24749  0.09531  Biso   1.000  H
  H108     1.0000 0.46006  0.28002  0.07858  Biso   1.000  H
  C77      1.0000 0.61160  0.16701  0.38246  Biso   1.000  C
  C78      1.0000 0.59744  0.08626  0.35903  Biso   1.000  C
  H109     1.0000 0.67046  0.16701  0.41970  Biso   1.000  H
  H110     1.0000 0.52484  0.18612  0.38549  Biso   1.000  H
  H111     1.0000 0.64860  0.19933  0.35688  Biso   1.000  H
  C79      1.0000 0.51003  0.08205  0.29966  Biso   1.000  C
  C80      1.0000 0.53218  0.03967  0.39880  Biso   1.000  C
  C81      1.0000 0.73397  0.05569  0.36059  Biso   1.000  C
  C82      1.0000 0.40265  0.13037  0.28437  Biso   1.000  C
  C83      1.0000 0.52690  0.02759  0.26005  Biso   1.000  C
  H112     1.0000 0.44781  0.06260  0.40142  Biso   1.000  H
  H113     1.0000 0.59020  0.03810  0.43630  Biso   1.000  H
  H114     1.0000 0.51683  0.98842  0.38410  Biso   1.000  H
  H115     1.0000 0.72797  0.00242  0.35018  Biso   1.000  H
  H116     1.0000 0.78797  0.06120  0.39872  Biso   1.000  H
  H117     1.0000 0.77467  0.08368  0.33392  Biso   1.000  H
  C84      1.0000 0.31623  0.12149  0.23305  Biso   1.000  C
  H118     1.0000 0.38889  0.16937  0.30918  Biso   1.000  H
  C85      1.0000 0.43570  0.01883  0.20941  Biso   1.000  C
  H119     1.0000 0.60227  0.99601  0.26789  Biso   1.000  H
  O13      1.0000 0.21756  0.17612  0.21725  Biso   1.000  O
  C86      1.0000 0.32412  0.06339  0.19555  Biso   1.000  C
  O14      1.0000 0.46030  0.96432  0.17081  Biso   1.000  O
  C87      1.0000 0.09710  0.16089  0.22483  Biso   1.000  C
  O15      1.0000 0.22268  0.05260  0.15109  Biso   1.000  O
  C88      1.0000 0.38992  0.89997  0.16605  Biso   1.000  C
  N13      1.0000 0.01049  0.21624  0.20962  Biso   1.000  N
  N14      1.0000 0.07506  0.09463  0.24615  Biso   1.000  N
  H120     1.0000 0.24773  0.02748  0.11730  Biso   1.000  H
  N15      1.0000 0.41938  0.85153  0.12948  Biso   1.000  N
  N16      1.0000 0.30319  0.89194  0.19824  Biso   1.000  N
  C89      1.0000 0.88957  0.20034  0.21649  Biso   1.000  C
  C90      1.0000 0.95140  0.08654  0.25057  Biso   1.000  C
  C91      1.0000 0.35064  0.78724  0.12590  Biso   1.000  C
  C92      1.0000 0.24090  0.82669  0.18994  Biso   1.000  C
  N17      1.0000 0.85372  0.13571  0.23697  Biso   1.000  N
  C93      1.0000 0.78458  0.26080  0.20056  Biso   1.000  C
  O16      1.0000 0.91563  0.02214  0.27181  Biso   1.000  O
  N18      1.0000 0.25784  0.77218  0.15497  Biso   1.000  N
  C94      1.0000 0.37789  0.72813  0.08486  Biso   1.000  C
  O17      1.0000 0.14823  0.81130  0.21910  Biso   1.000  O
  C95      1.0000 0.64757  0.23153  0.20389  Biso   1.000  C
  C96      1.0000 0.78040  0.28289  0.13879  Biso   1.000  C
  C97      1.0000 0.82442  0.32762  0.23890  Biso   1.000  C
  C98      1.0000 0.65900  0.22450  0.16850  Biso   1.000  C
  C99      1.0000 0.83122  0.32357  0.16601  Biso   1.000  C
  C100     1.0000 0.76662  0.29593  0.25630  Biso   1.000  C
  C101     1.0000 0.00945  0.96482  0.28580  Biso   1.000  C
  C102     1.0000 0.31458  0.65271  0.09539  Biso   1.000  C
  C103     1.0000 0.52585  0.72537  0.08633  Biso   1.000  C
  C104     1.0000 0.30532  0.75190  0.02608  Biso   1.000  C
  C105     1.0000 0.37303  0.64850  0.10820  Biso   1.000  C
  C106     1.0000 0.12568  0.86182  0.26027  Biso   1.000  C
  H121     1.0000 0.62963  0.18488  0.18219  Biso   1.000  H
  H122     1.0000 0.58100  0.26918  0.18830  Biso   1.000  H
  H123     1.0000 0.64456  0.22180  0.24329  Biso   1.000  H
  H124     1.0000 0.59100  0.26300  0.15741  Biso   1.000  H
  H125     1.0000 0.62856  0.18708  0.19251  Biso   1.000  H
  H126     1.0000 0.86709  0.30149  0.13521  Biso   1.000  H
  H127     1.0000 0.71431  0.32228  0.12729  Biso   1.000  H
  H128     1.0000 0.75703  0.23877  0.11448  Biso   1.000  H
  H129     1.0000 0.85230  0.30222  0.13180  Biso   1.000  H
  H130     1.0000 0.83024  0.31228  0.27821  Biso   1.000  H
  H131     1.0000 0.75845  0.36752  0.22921  Biso   1.000  H
  H132     1.0000 0.91027  0.34628  0.23439  Biso   1.000  H
  H133     1.0000 0.85172  0.31430  0.27741  Biso   1.000  H
  H134     1.0000 0.67624  0.19978  0.13470  Biso   1.000  H
  H135     1.0000 0.90997  0.34751  0.18851  Biso   1.000  H
  H136     1.0000 0.76124  0.36111  0.15560  Biso   1.000  H
  H137     1.0000 0.73230  0.25788  0.27872  Biso   1.000  H
  H138     1.0000 0.70422  0.33779  0.24838  Biso   1.000  H
  C107     1.0000 0.05028  0.92560  0.24358  Biso   1.000  C
  C108     1.0000 0.04760  0.94538  0.34201  Biso   1.000  C
  H139     1.0000 0.34517  0.63799  0.13492  Biso   1.000  H
  H140     1.0000 0.33988  0.61399  0.07091  Biso   1.000  H
  H141     1.0000 0.21851  0.65799  0.08701  Biso   1.000  H
  H142     1.0000 0.39058  0.61203  0.08031  Biso   1.000  H
  H143     1.0000 0.28605  0.63900  0.11608  Biso   1.000  H
  H144     1.0000 0.55530  0.77460  0.07572  Biso   1.000  H
  H145     1.0000 0.54364  0.68722  0.05992  Biso   1.000  H
  H146     1.0000 0.57350  0.71267  0.12451  Biso   1.000  H
  H147     1.0000 0.33270  0.71970  0.99781  Biso   1.000  H
  H148     1.0000 0.21015  0.74690  0.02322  Biso   1.000  H
  H149     1.0000 0.32655  0.80438  0.01951  Biso   1.000  H
  H150     1.0000 0.44060  0.64333  0.14300  Biso   1.000  H
  C109     1.0000 0.16678  0.84158  0.31563  Biso   1.000  C
  O18      1.0000 0.01086  0.94566  0.18792  Biso   1.000  O
  C110     1.0000 0.13050  0.88424  0.35827  Biso   1.000  C
  H151     1.0000 0.01704  0.97393  0.36969  Biso   1.000  H
  H152     1.0000 0.22032  0.79820  0.32511  Biso   1.000  H
  H153     1.0000 0.07694  0.97421  0.17520  Biso   1.000  H
  C111     1.0000 0.18029  0.86182  0.41991  Biso   1.000  C
  C112     1.0000 0.12908  0.91402  0.46003  Biso   1.000  C
  C113     1.0000 0.33197  0.86401  0.43340  Biso   1.000  C
  C114     1.0000 0.13640  0.78224  0.42956  Biso   1.000  C
  H154     1.0000 0.16106  0.96521  0.45611  Biso   1.000  H
  H155     1.0000 0.16080  0.89682  0.49892  Biso   1.000  H
  H156     1.0000 0.03251  0.91380  0.45101  Biso   1.000  H
  H157     1.0000 0.36188  0.91543  0.42859  Biso   1.000  H
  H158     1.0000 0.36548  0.83018  0.40778  Biso   1.000  H
  H159     1.0000 0.36529  0.84782  0.47241  Biso   1.000  H
  H160     1.0000 0.17066  0.76791  0.46892  Biso   1.000  H
  H161     1.0000 0.17028  0.74751  0.40470  Biso   1.000  H
  H162     1.0000 0.03986  0.77999  0.42139  Biso   1.000  H
  C115     1.0000 0.38838  0.83299  0.61757  Biso   1.000  C
  H163     1.0000 0.32952  0.83299  0.58032  Biso   1.000  H
  H164     1.0000 0.47522  0.81388  0.61449  Biso   1.000  H
  H165     1.0000 0.35136  0.80067  0.64310  Biso   1.000  H
  C116     1.0000 0.40262  0.91374  0.64095  Biso   1.000  C
  C117     1.0000 0.46778  0.96033  0.60118  Biso   1.000  C
  C118     1.0000 0.26599  0.94431  0.63939  Biso   1.000  C
  C119     1.0000 0.49003  0.91795  0.70032  Biso   1.000  C
  H166     1.0000 0.55217  0.93740  0.59861  Biso   1.000  H
  H167     1.0000 0.40979  0.96190  0.56372  Biso   1.000  H
  H168     1.0000 0.48323  0.01158  0.61588  Biso   1.000  H
  H169     1.0000 0.27199  0.99758  0.64980  Biso   1.000  H
  H170     1.0000 0.21201  0.93880  0.60130  Biso   1.000  H
  H171     1.0000 0.22531  0.91632  0.66611  Biso   1.000  H
  C120     1.0000 0.59743  0.86963  0.71566  Biso   1.000  C
  C121     1.0000 0.47308  0.97241  0.73997  Biso   1.000  C
  H172     1.0000 0.61107  0.83063  0.69080  Biso   1.000  H
  C122     1.0000 0.68385  0.87851  0.76698  Biso   1.000  C
  C123     1.0000 0.56428  0.98117  0.79061  Biso   1.000  C
  H173     1.0000 0.39769  0.00399  0.73209  Biso   1.000  H
  O19      1.0000 0.78240  0.82388  0.78273  Biso   1.000  O
  C124     1.0000 0.67586  0.93661  0.80448  Biso   1.000  C
  O20      1.0000 0.53966  0.03568  0.82917  Biso   1.000  O
  C125     1.0000 0.90286  0.83911  0.77515  Biso   1.000  C
  O21      1.0000 0.77730  0.94740  0.84893  Biso   1.000  O
  C126     1.0000 0.61013  0.10003  0.83393  Biso   1.000  C
  N19      1.0000 0.98947  0.78376  0.79036  Biso   1.000  N
  N20      1.0000 0.92490  0.90537  0.75383  Biso   1.000  N
  H174     1.0000 0.75235  0.97252  0.88272  Biso   1.000  H
  N21      1.0000 0.58060  0.14847  0.87054  Biso   1.000  N
  N22      1.0000 0.69679  0.10806  0.80178  Biso   1.000  N
  C127     1.0000 0.11041  0.79966  0.78354  Biso   1.000  C
  C128     1.0000 0.04858  0.91346  0.74945  Biso   1.000  C
  C129     1.0000 0.64942  0.21276  0.87408  Biso   1.000  C
  C130     1.0000 0.75906  0.17331  0.81004  Biso   1.000  C
  N23      1.0000 0.14626  0.86429  0.76306  Biso   1.000  N
  C131     1.0000 0.21540  0.73920  0.79946  Biso   1.000  C
  O22      1.0000 0.08435  0.97786  0.72821  Biso   1.000  O
  N24      1.0000 0.74222  0.22782  0.84501  Biso   1.000  N
  C132     1.0000 0.62207  0.27187  0.91512  Biso   1.000  C
  O23      1.0000 0.85173  0.18870  0.78088  Biso   1.000  O
  C133     1.0000 0.35239  0.76847  0.79609  Biso   1.000  C
  C134     1.0000 0.21956  0.71711  0.86119  Biso   1.000  C
  C135     1.0000 0.17566  0.67238  0.76112  Biso   1.000  C
  C136     1.0000 0.34096  0.77550  0.83148  Biso   1.000  C
  C137     1.0000 0.16876  0.67643  0.83401  Biso   1.000  C
  C138     1.0000 0.23336  0.70407  0.74372  Biso   1.000  C
  C139     1.0000 0.99051  0.03518  0.71418  Biso   1.000  C
  C140     1.0000 0.68538  0.34729  0.90459  Biso   1.000  C
  C141     1.0000 0.47411  0.27463  0.91365  Biso   1.000  C
  C142     1.0000 0.69466  0.24810  0.97394  Biso   1.000  C
  C143     1.0000 0.62703  0.35150  0.89178  Biso   1.000  C
  C144     1.0000 0.87428  0.13818  0.73972  Biso   1.000  C
  H175     1.0000 0.37043  0.81512  0.81779  Biso   1.000  H
  H176     1.0000 0.41896  0.73082  0.81168  Biso   1.000  H
  H177     1.0000 0.35540  0.77820  0.75670  Biso   1.000  H
  H178     1.0000 0.40898  0.73700  0.84261  Biso   1.000  H
  H179     1.0000 0.37142  0.81292  0.80751  Biso   1.000  H
  H180     1.0000 0.13289  0.69851  0.86481  Biso   1.000  H
  H181     1.0000 0.28565  0.67772  0.87269  Biso   1.000  H
  H182     1.0000 0.24303  0.76123  0.88550  Biso   1.000  H
  H183     1.0000 0.14766  0.69778  0.86818  Biso   1.000  H
  H184     1.0000 0.16984  0.68772  0.72181  Biso   1.000  H
  H185     1.0000 0.24163  0.63248  0.77081  Biso   1.000  H
  H186     1.0000 0.08969  0.65372  0.76559  Biso   1.000  H
  H187     1.0000 0.14827  0.68570  0.72261  Biso   1.000  H
  H188     1.0000 0.32383  0.80022  0.86532  Biso   1.000  H
  H189     1.0000 0.09001  0.65249  0.81151  Biso   1.000  H
  H190     1.0000 0.23884  0.63889  0.84442  Biso   1.000  H
  H191     1.0000 0.26768  0.74212  0.72130  Biso   1.000  H
  H192     1.0000 0.29584  0.66221  0.75160  Biso   1.000  H
  C145     1.0000 0.94968  0.07440  0.75640  Biso   1.000  C
  C146     1.0000 0.95238  0.05462  0.65802  Biso   1.000  C
  H193     1.0000 0.65482  0.36201  0.86511  Biso   1.000  H
  H194     1.0000 0.66010  0.38601  0.92911  Biso   1.000  H
  H195     1.0000 0.78147  0.34201  0.91302  Biso   1.000  H
  H196     1.0000 0.60941  0.38797  0.91971  Biso   1.000  H
  H197     1.0000 0.71391  0.36100  0.88390  Biso   1.000  H
  H198     1.0000 0.44468  0.22540  0.92431  Biso   1.000  H
  H199     1.0000 0.45643  0.31278  0.94011  Biso   1.000  H
  H200     1.0000 0.42648  0.28733  0.87552  Biso   1.000  H
  H201     1.0000 0.78993  0.25310  0.97681  Biso   1.000  H
  H202     1.0000 0.67353  0.19562  0.98051  Biso   1.000  H
  H203     1.0000 0.66726  0.28030  0.00217  Biso   1.000  H
  H204     1.0000 0.55938  0.35667  0.85702  Biso   1.000  H
  C147     1.0000 0.83318  0.15842  0.68435  Biso   1.000  C
  O24      1.0000 0.98913  0.05434  0.81210  Biso   1.000  O
  C148     1.0000 0.86948  0.11576  0.64175  Biso   1.000  C
  H205     1.0000 0.98302  0.02607  0.63029  Biso   1.000  H
  H206     1.0000 0.77966  0.20180  0.67491  Biso   1.000  H
  H207     1.0000 0.92312  0.02579  0.82479  Biso   1.000  H
  C149     1.0000 0.81969  0.13818  0.58011  Biso   1.000  C
  C150     1.0000 0.87088  0.08598  0.53996  Biso   1.000  C
  C151     1.0000 0.66801  0.13599  0.56663  Biso   1.000  C
  C152     1.0000 0.86356  0.21776  0.57042  Biso   1.000  C
  H208     1.0000 0.83892  0.03479  0.54392  Biso   1.000  H
  H209     1.0000 0.83918  0.10318  0.50111  Biso   1.000  H
  H210     1.0000 0.96747  0.08620  0.54901  Biso   1.000  H
  H211     1.0000 0.63808  0.08457  0.57139  Biso   1.000  H
  H212     1.0000 0.63448  0.16982  0.59220  Biso   1.000  H
  H213     1.0000 0.63469  0.15218  0.52761  Biso   1.000  H
  H214     1.0000 0.82932  0.23209  0.53111  Biso   1.000  H
  H215     1.0000 0.82970  0.25249  0.59532  Biso   1.000  H
  H216     1.0000 0.96010  0.22001  0.57859  Biso   1.000  H
