data_image0
_cell_length_a       15.835
_cell_length_b       15.699
_cell_length_c       8.456
_cell_angle_alpha    90
_cell_angle_beta     90
_cell_angle_gamma    90

_symmetry_space_group_name_H-M    "P 1"
_symmetry_int_tables_number       1

loop_
  _symmetry_equiv_pos_as_xyz
  'x, y, z'

loop_
  _atom_site_label
  _atom_site_occupancy
  _atom_site_fract_x
  _atom_site_fract_y
  _atom_site_fract_z
  _atom_site_thermal_displace_type
  _atom_site_B_iso_or_equiv
  _atom_site_type_symbol
  O1       1.0000 0.51115  0.59959  0.39333  Biso   1.000  O
  C1       1.0000 0.55725  0.54991  0.29860  Biso   1.000  C
  C2       1.0000 0.54752  0.67520  0.45234  Biso   1.000  C
  N1       1.0000 0.51317  0.48608  0.23664  Biso   1.000  N
  N2       1.0000 0.63770  0.56857  0.27483  Biso   1.000  N
  C3       1.0000 0.60392  0.67342  0.57486  Biso   1.000  C
  C4       1.0000 0.51847  0.74998  0.38884  Biso   1.000  C
  C5       1.0000 0.55984  0.43926  0.14191  Biso   1.000  C
  C6       1.0000 0.67603  0.51379  0.17964  Biso   1.000  C
  H1       1.0000 0.62299  0.62201  0.61613  Biso   1.000  H
  C7       1.0000 0.63164  0.74998  0.63505  Biso   1.000  C
  C8       1.0000 0.54752  0.82477  0.45234  Biso   1.000  C
  H2       1.0000 0.48033  0.74998  0.30535  Biso   1.000  H
  Cl1      1.0000 0.50723  0.35658  0.04991  Biso   1.000  Cl
  N3       1.0000 0.64042  0.44723  0.10726  Biso   1.000  N
  O2       1.0000 0.75750  0.52271  0.15066  Biso   1.000  O
  C9       1.0000 0.60392  0.82655  0.57486  Biso   1.000  C
  H3       1.0000 0.66991  0.74998  0.71842  Biso   1.000  H
  O3       1.0000 0.51115  0.90038  0.39333  Biso   1.000  O
  C10      1.0000 0.80227  0.59131  0.23132  Biso   1.000  C
  H4       1.0000 0.62299  0.87795  0.61613  Biso   1.000  H
  C11      1.0000 0.55725  0.95006  0.29860  Biso   1.000  C
  H5       1.0000 0.77682  0.60048  0.33432  Biso   1.000  H
  H6       1.0000 0.86050  0.57430  0.24787  Biso   1.000  H
  C12      1.0000 0.80063  0.67291  0.14037  Biso   1.000  C
  N4       1.0000 0.63770  0.93140  0.27483  Biso   1.000  N
  N5       1.0000 0.51317  0.01389  0.23664  Biso   1.000  N
  C13      1.0000 0.79293  0.74998  0.21902  Biso   1.000  C
  C14      1.0000 0.81370  0.67418  0.97800  Biso   1.000  C
  C15      1.0000 0.67603  0.98618  0.17964  Biso   1.000  C
  C16      1.0000 0.55984  0.06070  0.14191  Biso   1.000  C
  C17      1.0000 0.80063  0.82706  0.14037  Biso   1.000  C
  H7       1.0000 0.78232  0.74998  0.32722  Biso   1.000  H
  H8       1.0000 0.81869  0.62316  0.92289  Biso   1.000  H
  C18      1.0000 0.81932  0.74998  0.89806  Biso   1.000  C
  O4       1.0000 0.75750  0.97726  0.15066  Biso   1.000  O
  N6       1.0000 0.64042  0.05281  0.10726  Biso   1.000  N
  Cl2      1.0000 0.50723  0.14338  0.04991  Biso   1.000  Cl
  C19      1.0000 0.80227  0.90866  0.23132  Biso   1.000  C
  C20      1.0000 0.81370  0.82579  0.97800  Biso   1.000  C
  H9       1.0000 0.82690  0.74998  0.78903  Biso   1.000  H
  H10      1.0000 0.77682  0.89948  0.33432  Biso   1.000  H
  H11      1.0000 0.86050  0.92566  0.24787  Biso   1.000  H
  H12      1.0000 0.81869  0.87681  0.92289  Biso   1.000  H
  O5       1.0000 0.48885  0.40034  0.60667  Biso   1.000  O
  C21      1.0000 0.45254  0.32473  0.54754  Biso   1.000  C
  C22      1.0000 0.44282  0.45009  0.70140  Biso   1.000  C
  C23      1.0000 0.39608  0.32658  0.42514  Biso   1.000  C
  C24      1.0000 0.48153  0.25002  0.61116  Biso   1.000  C
  N7       1.0000 0.36230  0.43143  0.72505  Biso   1.000  N
  N8       1.0000 0.48683  0.51385  0.76336  Biso   1.000  N
  C25      1.0000 0.36842  0.25002  0.36483  Biso   1.000  C
  H13      1.0000 0.37701  0.37799  0.38375  Biso   1.000  H
  C26      1.0000 0.45254  0.17523  0.54754  Biso   1.000  C
  H14      1.0000 0.51973  0.25002  0.69465  Biso   1.000  H
  C27      1.0000 0.32403  0.48621  0.82036  Biso   1.000  C
  C28      1.0000 0.44016  0.56067  0.85809  Biso   1.000  C
  C29      1.0000 0.39608  0.17345  0.42514  Biso   1.000  C
  H15      1.0000 0.33009  0.25002  0.28146  Biso   1.000  H
  O6       1.0000 0.48885  0.09962  0.60667  Biso   1.000  O
  N9       1.0000 0.35958  0.55277  0.89262  Biso   1.000  N
  O7       1.0000 0.24250  0.47729  0.84922  Biso   1.000  O
  Cl3      1.0000 0.49277  0.64335  0.95009  Biso   1.000  Cl
  H16      1.0000 0.37701  0.12198  0.38375  Biso   1.000  H
  C30      1.0000 0.44282  0.04994  0.70140  Biso   1.000  C
  C31      1.0000 0.19773  0.40869  0.76868  Biso   1.000  C
  N10      1.0000 0.36230  0.06860  0.72505  Biso   1.000  N
  N11      1.0000 0.48683  0.98611  0.76336  Biso   1.000  N
  H17      1.0000 0.22318  0.39952  0.66568  Biso   1.000  H
  H18      1.0000 0.13950  0.42570  0.75213  Biso   1.000  H
  C32      1.0000 0.19937  0.32709  0.85963  Biso   1.000  C
  C33      1.0000 0.32403  0.01376  0.82036  Biso   1.000  C
  C34      1.0000 0.44016  0.93930  0.85809  Biso   1.000  C
  C35      1.0000 0.20714  0.25002  0.78098  Biso   1.000  C
  C36      1.0000 0.18630  0.32582  0.02200  Biso   1.000  C
  O8       1.0000 0.24250  0.02274  0.84922  Biso   1.000  O
  N12      1.0000 0.35958  0.94719  0.89262  Biso   1.000  N
  Cl4      1.0000 0.49277  0.85662  0.95009  Biso   1.000  Cl
  C37      1.0000 0.19937  0.17294  0.85963  Biso   1.000  C
  H19      1.0000 0.21768  0.25002  0.67278  Biso   1.000  H
  H20      1.0000 0.18131  0.37678  0.07711  Biso   1.000  H
  C38      1.0000 0.18068  0.25002  0.10194  Biso   1.000  C
  C39      1.0000 0.19773  0.09128  0.76868  Biso   1.000  C
  C40      1.0000 0.18630  0.17421  0.02200  Biso   1.000  C
  H21      1.0000 0.17310  0.25002  0.21086  Biso   1.000  H
  H22      1.0000 0.22318  0.10052  0.66568  Biso   1.000  H
  H23      1.0000 0.13950  0.07427  0.75213  Biso   1.000  H
  H24      1.0000 0.18131  0.12319  0.07711  Biso   1.000  H
  C41      1.0000 0.69776  0.40869  0.73132  Biso   1.000  C
  C42      1.0000 0.69940  0.32709  0.64037  Biso   1.000  C
  H25      1.0000 0.72321  0.39952  0.83432  Biso   1.000  H
  H26      1.0000 0.63953  0.42570  0.74787  Biso   1.000  H
  O9       1.0000 0.74253  0.47729  0.65066  Biso   1.000  O
  C43      1.0000 0.68633  0.32582  0.47800  Biso   1.000  C
  C44      1.0000 0.70710  0.25002  0.71902  Biso   1.000  C
  C45      1.0000 0.82406  0.48621  0.67952  Biso   1.000  C
  C46      1.0000 0.68071  0.25002  0.39806  Biso   1.000  C
  H27      1.0000 0.68134  0.37678  0.42289  Biso   1.000  H
  C47      1.0000 0.69940  0.17294  0.64037  Biso   1.000  C
  H28      1.0000 0.71771  0.25002  0.82722  Biso   1.000  H
  N13      1.0000 0.85961  0.55277  0.60726  Biso   1.000  N
  N14      1.0000 0.86233  0.43143  0.77483  Biso   1.000  N
  C48      1.0000 0.68633  0.17421  0.47800  Biso   1.000  C
  H29      1.0000 0.67313  0.25002  0.28914  Biso   1.000  H
  C49      1.0000 0.69776  0.09128  0.73132  Biso   1.000  C
  C50      1.0000 0.94020  0.56067  0.64191  Biso   1.000  C
  C51      1.0000 0.94278  0.45009  0.79860  Biso   1.000  C
  H30      1.0000 0.68134  0.12319  0.42289  Biso   1.000  H
  H31      1.0000 0.72321  0.10052  0.83432  Biso   1.000  H
  H32      1.0000 0.63953  0.07427  0.74787  Biso   1.000  H
  O10      1.0000 0.74253  0.02274  0.65066  Biso   1.000  O
  Cl5      1.0000 0.99280  0.64335  0.54979  Biso   1.000  Cl
  N15      1.0000 0.98686  0.51385  0.73652  Biso   1.000  N
  O11      1.0000 0.98889  0.40034  0.89321  Biso   1.000  O
  C52      1.0000 0.82406  0.01376  0.67952  Biso   1.000  C
  C53      1.0000 0.95251  0.32473  0.95234  Biso   1.000  C
  N16      1.0000 0.86233  0.06860  0.77483  Biso   1.000  N
  N17      1.0000 0.85961  0.94719  0.60726  Biso   1.000  N
  C54      1.0000 0.98156  0.25002  0.88872  Biso   1.000  C
  C55      1.0000 0.89612  0.32658  0.07486  Biso   1.000  C
  C56      1.0000 0.94278  0.04994  0.79860  Biso   1.000  C
  C57      1.0000 0.94020  0.93930  0.64191  Biso   1.000  C
  C58      1.0000 0.95251  0.17523  0.95234  Biso   1.000  C
  H33      1.0000 0.01970  0.25002  0.80523  Biso   1.000  H
  C59      1.0000 0.86839  0.25002  0.13505  Biso   1.000  C
  H34      1.0000 0.87704  0.37799  0.11625  Biso   1.000  H
  O12      1.0000 0.98889  0.09962  0.89321  Biso   1.000  O
  N18      1.0000 0.98686  0.98611  0.73652  Biso   1.000  N
  Cl6      1.0000 0.99280  0.85662  0.54979  Biso   1.000  Cl
  C60      1.0000 0.89612  0.17345  0.07486  Biso   1.000  C
  H35      1.0000 0.83012  0.25002  0.21854  Biso   1.000  H
  H36      1.0000 0.87704  0.12198  0.11625  Biso   1.000  H
  C61      1.0000 0.30231  0.59131  0.26868  Biso   1.000  C
  O13      1.0000 0.25747  0.52271  0.34934  Biso   1.000  O
  H37      1.0000 0.27679  0.60048  0.16568  Biso   1.000  H
  H38      1.0000 0.36053  0.57430  0.25213  Biso   1.000  H
  C62      1.0000 0.30060  0.67291  0.35963  Biso   1.000  C
  C63      1.0000 0.17600  0.51379  0.32036  Biso   1.000  C
  C64      1.0000 0.31374  0.67418  0.52200  Biso   1.000  C
  C65      1.0000 0.29290  0.74998  0.28098  Biso   1.000  C
  N19      1.0000 0.14045  0.44723  0.39274  Biso   1.000  N
  N20      1.0000 0.13773  0.56857  0.22505  Biso   1.000  N
  H39      1.0000 0.31872  0.62316  0.57711  Biso   1.000  H
  C66      1.0000 0.31929  0.74998  0.60182  Biso   1.000  C
  C67      1.0000 0.30060  0.82706  0.35963  Biso   1.000  C
  H40      1.0000 0.28229  0.74998  0.17278  Biso   1.000  H
  C68      1.0000 0.05987  0.43926  0.35809  Biso   1.000  C
  C69      1.0000 0.05722  0.54991  0.20140  Biso   1.000  C
  C70      1.0000 0.31374  0.82579  0.52200  Biso   1.000  C
  H41      1.0000 0.32693  0.74998  0.71086  Biso   1.000  H
  C71      1.0000 0.30231  0.90866  0.26868  Biso   1.000  C
  Cl7      1.0000 0.00720  0.35658  0.45009  Biso   1.000  Cl
  N21      1.0000 0.01320  0.48608  0.26336  Biso   1.000  N
  O14      1.0000 0.01118  0.59959  0.10667  Biso   1.000  O
  H42      1.0000 0.31872  0.87681  0.57711  Biso   1.000  H
  H43      1.0000 0.27679  0.89948  0.16568  Biso   1.000  H
  H44      1.0000 0.36053  0.92566  0.25213  Biso   1.000  H
  O15      1.0000 0.25747  0.97726  0.34934  Biso   1.000  O
  C72      1.0000 0.04749  0.67520  0.04754  Biso   1.000  C
  C73      1.0000 0.17600  0.98618  0.32036  Biso   1.000  C
  C74      1.0000 0.01850  0.74998  0.11116  Biso   1.000  C
  C75      1.0000 0.10388  0.67342  0.92502  Biso   1.000  C
  N22      1.0000 0.13773  0.93140  0.22505  Biso   1.000  N
  N23      1.0000 0.14045  0.05281  0.39274  Biso   1.000  N
  C76      1.0000 0.04749  0.82477  0.04754  Biso   1.000  C
  H45      1.0000 0.98030  0.74998  0.19465  Biso   1.000  H
  H46      1.0000 0.12302  0.62201  0.88375  Biso   1.000  H
  C77      1.0000 0.13161  0.74998  0.86483  Biso   1.000  C
  C78      1.0000 0.05722  0.95006  0.20140  Biso   1.000  C
  C79      1.0000 0.05987  0.06070  0.35809  Biso   1.000  C
  O16      1.0000 0.01118  0.90038  0.10667  Biso   1.000  O
  C80      1.0000 0.10388  0.82655  0.92502  Biso   1.000  C
  H47      1.0000 0.16988  0.74998  0.78146  Biso   1.000  H
  N24      1.0000 0.01320  0.01389  0.26336  Biso   1.000  N
  Cl8      1.0000 0.00720  0.14338  0.45009  Biso   1.000  Cl
  H48      1.0000 0.12302  0.87795  0.88375  Biso   1.000  H
