data_image0
_cell_length_a       29.568
_cell_length_b       8.64
_cell_length_c       27.957
_cell_angle_alpha    90
_cell_angle_beta     104.27
_cell_angle_gamma    90

_symmetry_space_group_name_H-M    "P 1"
_symmetry_int_tables_number       1

loop_
  _symmetry_equiv_pos_as_xyz
  'x, y, z'

loop_
  _atom_site_label
  _atom_site_occupancy
  _atom_site_fract_x
  _atom_site_fract_y
  _atom_site_fract_z
  _atom_site_thermal_displace_type
  _atom_site_B_iso_or_equiv
  _atom_site_type_symbol
  C1       1.0000 0.40679  0.54491  0.67970  Biso   1.000  C
  C2       1.0000 0.37789  0.44109  0.64858  Biso   1.000  C
  H1       1.0000 0.40628  0.65150  0.67128  Biso   1.000  H
  C3       1.0000 0.43638  0.49271  0.72310  Biso   1.000  C
  C4       1.0000 0.37877  0.28495  0.66121  Biso   1.000  C
  H2       1.0000 0.35749  0.47650  0.61880  Biso   1.000  H
  C5       1.0000 0.43767  0.33738  0.73499  Biso   1.000  C
  H3       1.0000 0.45587  0.56389  0.74458  Biso   1.000  H
  C6       1.0000 0.34629  0.17639  0.62910  Biso   1.000  C
  C7       1.0000 0.40848  0.23345  0.70450  Biso   1.000  C
  H4       1.0000 0.45869  0.30162  0.76440  Biso   1.000  H
  N1       1.0000 0.34098  0.16586  0.57802  Biso   1.000  N
  C8       1.0000 0.31508  0.07940  0.64028  Biso   1.000  C
  H5       1.0000 0.40887  0.12720  0.71328  Biso   1.000  H
  C9       1.0000 0.37497  0.21215  0.55159  Biso   1.000  C
  C10      1.0000 0.30778  0.06215  0.56019  Biso   1.000  C
  N2       1.0000 0.29007  0.01123  0.59595  Biso   1.000  N
  C11      1.0000 0.30499  0.04387  0.68870  Biso   1.000  C
  N3       1.0000 0.35493  0.32569  0.51247  Biso   1.000  N
  H6       1.0000 0.38578  0.11991  0.53661  Biso   1.000  H
  H7       1.0000 0.40227  0.25856  0.57499  Biso   1.000  H
  H8       1.0000 0.29828  0.03009  0.52668  Biso   1.000  H
  C12      1.0000 0.25666  0.88449  0.59278  Biso   1.000  C
  C13      1.0000 0.27248  0.12697  0.70520  Biso   1.000  C
  C14      1.0000 0.33108  0.93102  0.71808  Biso   1.000  C
  C15      1.0000 0.31779  0.41632  0.50940  Biso   1.000  C
  C16      1.0000 0.37388  0.35509  0.47261  Biso   1.000  C
  C17      1.0000 0.22198  0.87222  0.54251  Biso   1.000  C
  H9       1.0000 0.27396  0.78576  0.59998  Biso   1.000  H
  H10      1.0000 0.23918  0.89965  0.61850  Biso   1.000  H
  H11      1.0000 0.25477  0.20475  0.68479  Biso   1.000  H
  C18      1.0000 0.26519  0.09861  0.75171  Biso   1.000  C
  H12      1.0000 0.35388  0.87315  0.70708  Biso   1.000  H
  C19      1.0000 0.32295  0.90463  0.76448  Biso   1.000  C
  N4       1.0000 0.31208  0.50116  0.46895  Biso   1.000  N
  H13      1.0000 0.29877  0.41944  0.53229  Biso   1.000  H
  C20      1.0000 0.34728  0.46655  0.44570  Biso   1.000  C
  C21      1.0000 0.41608  0.27465  0.46619  Biso   1.000  C
  N5       1.0000 0.18790  0.99884  0.53107  Biso   1.000  N
  H14      1.0000 0.20478  0.77315  0.54111  Biso   1.000  H
  H15      1.0000 0.23957  0.86875  0.51671  Biso   1.000  H
  H16      1.0000 0.24269  0.15718  0.76311  Biso   1.000  H
  C22      1.0000 0.29016  0.98704  0.78079  Biso   1.000  C
  H17      1.0000 0.34056  0.82755  0.78518  Biso   1.000  H
  C23      1.0000 0.27800  0.62778  0.45751  Biso   1.000  C
  C24      1.0000 0.35267  0.54595  0.40049  Biso   1.000  C
  C25      1.0000 0.45978  0.32384  0.49191  Biso   1.000  C
  C26      1.0000 0.41219  0.14861  0.43400  Biso   1.000  C
  C27      1.0000 0.18218  0.08368  0.49058  Biso   1.000  C
  C28      1.0000 0.15269  0.03345  0.55428  Biso   1.000  C
  H18      1.0000 0.28488  0.96609  0.81238  Biso   1.000  H
  C29      1.0000 0.24327  0.61551  0.40721  Biso   1.000  C
  H19      1.0000 0.29520  0.72685  0.45891  Biso   1.000  H
  H20      1.0000 0.26040  0.63125  0.48331  Biso   1.000  H
  C30      1.0000 0.36328  0.70104  0.40130  Biso   1.000  C
  C31      1.0000 0.34728  0.46065  0.35690  Biso   1.000  C
  H21      1.0000 0.46248  0.41019  0.51350  Biso   1.000  H
  C32      1.0000 0.49940  0.24919  0.48660  Biso   1.000  C
  C33      1.0000 0.45240  0.07569  0.42931  Biso   1.000  C
  H22      1.0000 0.38249  0.11377  0.41581  Biso   1.000  H
  N6       1.0000 0.14501  0.17431  0.48752  Biso   1.000  N
  H23      1.0000 0.20120  0.08056  0.46770  Biso   1.000  H
  C34      1.0000 0.12609  0.14491  0.52738  Biso   1.000  C
  C35      1.0000 0.14730  0.95405  0.59950  Biso   1.000  C
  N7       1.0000 0.20990  0.48877  0.40403  Biso   1.000  N
  H24      1.0000 0.22601  0.71424  0.40001  Biso   1.000  H
  H25      1.0000 0.26078  0.60035  0.38148  Biso   1.000  H
  H26      1.0000 0.36758  0.75810  0.43109  Biso   1.000  H
  C36      1.0000 0.36749  0.77396  0.35841  Biso   1.000  C
  C37      1.0000 0.35250  0.53449  0.31471  Biso   1.000  C
  H27      1.0000 0.34018  0.35336  0.35631  Biso   1.000  H
  C38      1.0000 0.49549  0.12442  0.45489  Biso   1.000  C
  H28      1.0000 0.52928  0.28333  0.50468  Biso   1.000  H
  H29      1.0000 0.45010  0.98947  0.40769  Biso   1.000  H
  C39      1.0000 0.12500  0.28785  0.44840  Biso   1.000  C
  C40      1.0000 0.08389  0.22535  0.53380  Biso   1.000  C
  C41      1.0000 0.15269  0.03935  0.64309  Biso   1.000  C
  C42      1.0000 0.13669  0.79896  0.59868  Biso   1.000  C
  C43      1.0000 0.18489  0.42060  0.35971  Biso   1.000  C
  C44      1.0000 0.19219  0.43785  0.43980  Biso   1.000  C
  H30      1.0000 0.37400  0.88171  0.35878  Biso   1.000  H
  C45      1.0000 0.36239  0.69225  0.31549  Biso   1.000  C
  H31      1.0000 0.34920  0.47743  0.28500  Biso   1.000  H
  H32      1.0000 0.52277  0.07280  0.45091  Biso   1.000  H
  N8       1.0000 0.15895  0.33414  0.42197  Biso   1.000  N
  H33      1.0000 0.11419  0.38009  0.46338  Biso   1.000  H
  H34      1.0000 0.09770  0.24144  0.42500  Biso   1.000  H
  C46      1.0000 0.04020  0.17616  0.50811  Biso   1.000  C
  C47      1.0000 0.08777  0.35139  0.56598  Biso   1.000  C
  H35      1.0000 0.15980  0.14664  0.64371  Biso   1.000  H
  C48      1.0000 0.14748  0.96551  0.68531  Biso   1.000  C
  H36      1.0000 0.13239  0.74190  0.56890  Biso   1.000  H
  C49      1.0000 0.13249  0.72604  0.64161  Biso   1.000  C
  C50      1.0000 0.19498  0.45613  0.31128  Biso   1.000  C
  C51      1.0000 0.15367  0.32361  0.37089  Biso   1.000  C
  H37      1.0000 0.20169  0.46991  0.47331  Biso   1.000  H
  H38      1.0000 0.36559  0.74294  0.28630  Biso   1.000  H
  H39      1.0000 0.03749  0.08981  0.48648  Biso   1.000  H
  C52      1.0000 0.00057  0.25081  0.51339  Biso   1.000  C
  C53      1.0000 0.04758  0.42431  0.57071  Biso   1.000  C
  H40      1.0000 0.11748  0.38623  0.58418  Biso   1.000  H
  H41      1.0000 0.15077  0.02257  0.71498  Biso   1.000  H
  C54      1.0000 0.13758  0.80775  0.68450  Biso   1.000  C
  H42      1.0000 0.12597  0.61829  0.64120  Biso   1.000  H
  C55      1.0000 0.22749  0.37303  0.29478  Biso   1.000  C
  C56      1.0000 0.16889  0.56898  0.28190  Biso   1.000  C
  C57      1.0000 0.12120  0.21505  0.33878  Biso   1.000  C
  C58      1.0000 0.00448  0.37558  0.54509  Biso   1.000  C
  H43      1.0000 0.97069  0.21667  0.49531  Biso   1.000  H
  H44      1.0000 0.04987  0.51053  0.59230  Biso   1.000  H
  H45      1.0000 0.13437  0.75706  0.71369  Biso   1.000  H
  C59      1.0000 0.23478  0.40139  0.24828  Biso   1.000  C
  H46      1.0000 0.24520  0.29525  0.31519  Biso   1.000  H
  C60      1.0000 0.17698  0.59537  0.23551  Biso   1.000  C
  H47      1.0000 0.14608  0.62685  0.29290  Biso   1.000  H
  C61      1.0000 0.12208  0.05891  0.35140  Biso   1.000  C
  C62      1.0000 0.09149  0.26655  0.29549  Biso   1.000  C
  H48      1.0000 0.97716  0.42720  0.54908  Biso   1.000  H
  C63      1.0000 0.20981  0.51296  0.21920  Biso   1.000  C
  H49      1.0000 0.25729  0.34282  0.23691  Biso   1.000  H
  H50      1.0000 0.15940  0.67245  0.21480  Biso   1.000  H
  H51      1.0000 0.14248  0.02350  0.38119  Biso   1.000  H
  C64      1.0000 0.09318  0.95509  0.32029  Biso   1.000  C
  H52      1.0000 0.09110  0.37280  0.28670  Biso   1.000  H
  C65      1.0000 0.06230  0.16262  0.26500  Biso   1.000  C
  H53      1.0000 0.21509  0.53391  0.18760  Biso   1.000  H
  C66      1.0000 0.06358  0.00729  0.27688  Biso   1.000  C
  H54      1.0000 0.09369  0.84850  0.32870  Biso   1.000  H
  H55      1.0000 0.04128  0.19838  0.23558  Biso   1.000  H
  H56      1.0000 0.04410  0.93611  0.25540  Biso   1.000  H
  C67      1.0000 0.56229  0.33738  0.76499  Biso   1.000  C
  C68      1.0000 0.59148  0.23345  0.79548  Biso   1.000  C
  C69      1.0000 0.56357  0.49271  0.77688  Biso   1.000  C
  H57      1.0000 0.54126  0.30162  0.73558  Biso   1.000  H
  C70      1.0000 0.62119  0.28495  0.83881  Biso   1.000  C
  H58      1.0000 0.59109  0.12720  0.78669  Biso   1.000  H
  C71      1.0000 0.59316  0.54491  0.82028  Biso   1.000  C
  H59      1.0000 0.54409  0.56389  0.75540  Biso   1.000  H
  C72      1.0000 0.65366  0.17639  0.87088  Biso   1.000  C
  C73      1.0000 0.62206  0.44109  0.85139  Biso   1.000  C
  H60      1.0000 0.59367  0.65150  0.82870  Biso   1.000  H
  N9       1.0000 0.65894  0.16586  0.92196  Biso   1.000  N
  C74      1.0000 0.68487  0.07940  0.85970  Biso   1.000  C
  H61      1.0000 0.64246  0.47650  0.88118  Biso   1.000  H
  C75      1.0000 0.62498  0.21215  0.94839  Biso   1.000  C
  C76      1.0000 0.69218  0.06215  0.93979  Biso   1.000  C
  N10      1.0000 0.70988  0.01123  0.90402  Biso   1.000  N
  C77      1.0000 0.69496  0.04387  0.81128  Biso   1.000  C
  H62      1.0000 0.61417  0.11991  0.96337  Biso   1.000  H
  H63      1.0000 0.59768  0.25856  0.92499  Biso   1.000  H
  N11      1.0000 0.64499  0.32569  0.98751  Biso   1.000  N
  H64      1.0000 0.70168  0.03009  0.97330  Biso   1.000  H
  C78      1.0000 0.74326  0.88449  0.90720  Biso   1.000  C
  C79      1.0000 0.72747  0.12697  0.79478  Biso   1.000  C
  C80      1.0000 0.66887  0.93102  0.78190  Biso   1.000  C
  C81      1.0000 0.68216  0.41632  0.99057  Biso   1.000  C
  C82      1.0000 0.62611  0.35509  0.02737  Biso   1.000  C
  H65      1.0000 0.72596  0.78576  0.90000  Biso   1.000  H
  H66      1.0000 0.76077  0.89965  0.88147  Biso   1.000  H
  C83      1.0000 0.77798  0.87222  0.95750  Biso   1.000  C
  H67      1.0000 0.74518  0.20475  0.81519  Biso   1.000  H
  C84      1.0000 0.73477  0.09861  0.74831  Biso   1.000  C
  H68      1.0000 0.64607  0.87315  0.79289  Biso   1.000  H
  C85      1.0000 0.67696  0.90463  0.73550  Biso   1.000  C
  H69      1.0000 0.70118  0.41944  0.96769  Biso   1.000  H
  N12      1.0000 0.68791  0.50116  0.03106  Biso   1.000  N
  C86      1.0000 0.65271  0.46655  0.05428  Biso   1.000  C
  C87      1.0000 0.58391  0.27465  0.03379  Biso   1.000  C
  N13      1.0000 0.81207  0.99884  0.96895  Biso   1.000  N
  H70      1.0000 0.79518  0.77315  0.95891  Biso   1.000  H
  H71      1.0000 0.76035  0.86875  0.98330  Biso   1.000  H
  H72      1.0000 0.75728  0.15718  0.73691  Biso   1.000  H
  C88      1.0000 0.70979  0.98704  0.71919  Biso   1.000  C
  H73      1.0000 0.65939  0.82755  0.71480  Biso   1.000  H
  C89      1.0000 0.72200  0.62778  0.04250  Biso   1.000  C
  C90      1.0000 0.64731  0.54595  0.09949  Biso   1.000  C
  C91      1.0000 0.54020  0.32384  0.00807  Biso   1.000  C
  C92      1.0000 0.58779  0.14861  0.06598  Biso   1.000  C
  C93      1.0000 0.84727  0.03345  0.94569  Biso   1.000  C
  C94      1.0000 0.81781  0.08368  0.00940  Biso   1.000  C
  H74      1.0000 0.71508  0.96609  0.68760  Biso   1.000  H
  C95      1.0000 0.75671  0.61551  0.09277  Biso   1.000  C
  H75      1.0000 0.70480  0.72685  0.04110  Biso   1.000  H
  H76      1.0000 0.73958  0.63125  0.01667  Biso   1.000  H
  C96      1.0000 0.63671  0.70104  0.09868  Biso   1.000  C
  C97      1.0000 0.65270  0.46065  0.14308  Biso   1.000  C
  H77      1.0000 0.53747  0.41019  0.98648  Biso   1.000  H
  C98      1.0000 0.50059  0.24919  0.01338  Biso   1.000  C
  C99      1.0000 0.54760  0.07569  0.07070  Biso   1.000  C
  H78      1.0000 0.61750  0.11377  0.08417  Biso   1.000  H
  C100     1.0000 0.87386  0.14491  0.97260  Biso   1.000  C
  C101     1.0000 0.85266  0.95405  0.90048  Biso   1.000  C
  N14      1.0000 0.85498  0.17431  0.01246  Biso   1.000  N
  H79      1.0000 0.79879  0.08056  0.03228  Biso   1.000  H
  N15      1.0000 0.79009  0.48877  0.09595  Biso   1.000  N
  H80      1.0000 0.77398  0.71424  0.09997  Biso   1.000  H
  H81      1.0000 0.73920  0.60035  0.11850  Biso   1.000  H
  H82      1.0000 0.63240  0.75810  0.06889  Biso   1.000  H
  C102     1.0000 0.63251  0.77396  0.14160  Biso   1.000  C
  C103     1.0000 0.64749  0.53449  0.18530  Biso   1.000  C
  H83      1.0000 0.65981  0.35336  0.14367  Biso   1.000  H
  H84      1.0000 0.47067  0.28333  0.99530  Biso   1.000  H
  C104     1.0000 0.50449  0.12442  0.04509  Biso   1.000  C
  H85      1.0000 0.54989  0.98947  0.09229  Biso   1.000  H
  C105     1.0000 0.91606  0.22535  0.96618  Biso   1.000  C
  C106     1.0000 0.84727  0.03935  0.85689  Biso   1.000  C
  C107     1.0000 0.86326  0.79896  0.90129  Biso   1.000  C
  C108     1.0000 0.87499  0.28785  0.05158  Biso   1.000  C
  C109     1.0000 0.80780  0.43785  0.06018  Biso   1.000  C
  C110     1.0000 0.81510  0.42060  0.14027  Biso   1.000  C
  H86      1.0000 0.62599  0.88171  0.14120  Biso   1.000  H
  C111     1.0000 0.63760  0.69225  0.18449  Biso   1.000  C
  H87      1.0000 0.65079  0.47743  0.21497  Biso   1.000  H
  H88      1.0000 0.47718  0.07280  0.04907  Biso   1.000  H
  C112     1.0000 0.95977  0.17616  0.99190  Biso   1.000  C
  C113     1.0000 0.91218  0.35139  0.93399  Biso   1.000  C
  H89      1.0000 0.84016  0.14664  0.85630  Biso   1.000  H
  C114     1.0000 0.85249  0.96551  0.81471  Biso   1.000  C
  H90      1.0000 0.86757  0.74190  0.93108  Biso   1.000  H
  C115     1.0000 0.86747  0.72604  0.85841  Biso   1.000  C
  H91      1.0000 0.88580  0.38009  0.03660  Biso   1.000  H
  H92      1.0000 0.90229  0.24144  0.07498  Biso   1.000  H
  N16      1.0000 0.84100  0.33414  0.07801  Biso   1.000  N
  H93      1.0000 0.79829  0.46991  0.02667  Biso   1.000  H
  C116     1.0000 0.84631  0.32361  0.12909  Biso   1.000  C
  C117     1.0000 0.80501  0.45613  0.18870  Biso   1.000  C
  H94      1.0000 0.63439  0.74294  0.21368  Biso   1.000  H
  C118     1.0000 0.99938  0.25081  0.98659  Biso   1.000  C
  H95      1.0000 0.96250  0.08981  0.01349  Biso   1.000  H
  C119     1.0000 0.95238  0.42431  0.92931  Biso   1.000  C
  H96      1.0000 0.88247  0.38623  0.91580  Biso   1.000  H
  H97      1.0000 0.84918  0.02257  0.78500  Biso   1.000  H
  C120     1.0000 0.86237  0.80775  0.81548  Biso   1.000  C
  H98      1.0000 0.87395  0.61829  0.85878  Biso   1.000  H
  C121     1.0000 0.87879  0.21505  0.16120  Biso   1.000  C
  C122     1.0000 0.77250  0.37303  0.20519  Biso   1.000  C
  C123     1.0000 0.83110  0.56898  0.21808  Biso   1.000  C
  C124     1.0000 0.99548  0.37558  0.95488  Biso   1.000  C
  H99      1.0000 0.02930  0.21667  0.00467  Biso   1.000  H
  H100     1.0000 0.95008  0.51053  0.90768  Biso   1.000  H
  H101     1.0000 0.86558  0.75706  0.78629  Biso   1.000  H
  C125     1.0000 0.87791  0.05891  0.14858  Biso   1.000  C
  C126     1.0000 0.90849  0.26655  0.20449  Biso   1.000  C
  H102     1.0000 0.75479  0.29525  0.18478  Biso   1.000  H
  C127     1.0000 0.76521  0.40139  0.25170  Biso   1.000  C
  H103     1.0000 0.85390  0.62685  0.20708  Biso   1.000  H
  C128     1.0000 0.82301  0.59537  0.26447  Biso   1.000  C
  H104     1.0000 0.02275  0.42720  0.95090  Biso   1.000  H
  C129     1.0000 0.90681  0.95509  0.17969  Biso   1.000  C
  H105     1.0000 0.85751  0.02350  0.11879  Biso   1.000  H
  H106     1.0000 0.90888  0.37280  0.21328  Biso   1.000  H
  C130     1.0000 0.93768  0.16262  0.23498  Biso   1.000  C
  C131     1.0000 0.79018  0.51296  0.28078  Biso   1.000  C
  H107     1.0000 0.74269  0.34282  0.26307  Biso   1.000  H
  H108     1.0000 0.84058  0.67245  0.28517  Biso   1.000  H
  H109     1.0000 0.90630  0.84850  0.17128  Biso   1.000  H
  C132     1.0000 0.93640  0.00729  0.22309  Biso   1.000  C
  H110     1.0000 0.95871  0.19838  0.26439  Biso   1.000  H
  H111     1.0000 0.78490  0.53391  0.31238  Biso   1.000  H
  H112     1.0000 0.95588  0.93611  0.24458  Biso   1.000  H
  C133     1.0000 0.64748  0.46551  0.68531  Biso   1.000  C
  C134     1.0000 0.65269  0.53935  0.64309  Biso   1.000  C
  C135     1.0000 0.63758  0.30775  0.68450  Biso   1.000  C
  H113     1.0000 0.65077  0.52257  0.71498  Biso   1.000  H
  C136     1.0000 0.64730  0.45405  0.59950  Biso   1.000  C
  H114     1.0000 0.65980  0.64664  0.64371  Biso   1.000  H
  C137     1.0000 0.63249  0.22604  0.64161  Biso   1.000  C
  H115     1.0000 0.63437  0.25706  0.71369  Biso   1.000  H
  C138     1.0000 0.65269  0.53345  0.55428  Biso   1.000  C
  C139     1.0000 0.63669  0.29896  0.59868  Biso   1.000  C
  H116     1.0000 0.62597  0.11829  0.64120  Biso   1.000  H
  C140     1.0000 0.62609  0.64491  0.52738  Biso   1.000  C
  N17      1.0000 0.68790  0.49884  0.53107  Biso   1.000  N
  H117     1.0000 0.63239  0.24190  0.56890  Biso   1.000  H
  N18      1.0000 0.64501  0.67431  0.48752  Biso   1.000  N
  C141     1.0000 0.58389  0.72535  0.53380  Biso   1.000  C
  C142     1.0000 0.68218  0.58368  0.49058  Biso   1.000  C
  C143     1.0000 0.72198  0.37222  0.54251  Biso   1.000  C
  C144     1.0000 0.62500  0.78785  0.44840  Biso   1.000  C
  C145     1.0000 0.54020  0.67616  0.50811  Biso   1.000  C
  C146     1.0000 0.58777  0.85139  0.56598  Biso   1.000  C
  H118     1.0000 0.70120  0.58056  0.46770  Biso   1.000  H
  C147     1.0000 0.75666  0.38449  0.59278  Biso   1.000  C
  H119     1.0000 0.70478  0.27315  0.54111  Biso   1.000  H
  H120     1.0000 0.73957  0.36875  0.51671  Biso   1.000  H
  N19      1.0000 0.65895  0.83414  0.42197  Biso   1.000  N
  H121     1.0000 0.61419  0.88009  0.46338  Biso   1.000  H
  H122     1.0000 0.59770  0.74144  0.42500  Biso   1.000  H
  H123     1.0000 0.53749  0.58981  0.48648  Biso   1.000  H
  C148     1.0000 0.50057  0.75081  0.51339  Biso   1.000  C
  C149     1.0000 0.54758  0.92431  0.57071  Biso   1.000  C
  H124     1.0000 0.61748  0.88623  0.58418  Biso   1.000  H
  N20      1.0000 0.79007  0.51123  0.59595  Biso   1.000  N
  H125     1.0000 0.77396  0.28576  0.59998  Biso   1.000  H
  H126     1.0000 0.73918  0.39965  0.61850  Biso   1.000  H
  C150     1.0000 0.65367  0.82361  0.37089  Biso   1.000  C
  C151     1.0000 0.69219  0.93785  0.43980  Biso   1.000  C
  C152     1.0000 0.50448  0.87558  0.54509  Biso   1.000  C
  H127     1.0000 0.47069  0.71667  0.49531  Biso   1.000  H
  H128     1.0000 0.54987  0.01053  0.59230  Biso   1.000  H
  C153     1.0000 0.80778  0.56215  0.56019  Biso   1.000  C
  C154     1.0000 0.81508  0.57940  0.64028  Biso   1.000  C
  C155     1.0000 0.62120  0.71505  0.33878  Biso   1.000  C
  C156     1.0000 0.68489  0.92060  0.35971  Biso   1.000  C
  N21      1.0000 0.70990  0.98877  0.40403  Biso   1.000  N
  H129     1.0000 0.70169  0.96991  0.47331  Biso   1.000  H
  H130     1.0000 0.47716  0.92720  0.54908  Biso   1.000  H
  N22      1.0000 0.84098  0.66586  0.57802  Biso   1.000  N
  H131     1.0000 0.79828  0.53009  0.52668  Biso   1.000  H
  C157     1.0000 0.84629  0.67639  0.62910  Biso   1.000  C
  C158     1.0000 0.80499  0.54387  0.68870  Biso   1.000  C
  C159     1.0000 0.62208  0.55891  0.35140  Biso   1.000  C
  C160     1.0000 0.59149  0.76655  0.29549  Biso   1.000  C
  C161     1.0000 0.69498  0.95613  0.31128  Biso   1.000  C
  C162     1.0000 0.74327  0.11551  0.40721  Biso   1.000  C
  C163     1.0000 0.87497  0.71215  0.55159  Biso   1.000  C
  C164     1.0000 0.87877  0.78495  0.66121  Biso   1.000  C
  C165     1.0000 0.77248  0.62697  0.70520  Biso   1.000  C
  C166     1.0000 0.83108  0.43102  0.71808  Biso   1.000  C
  C167     1.0000 0.59318  0.45509  0.32029  Biso   1.000  C
  H132     1.0000 0.64248  0.52350  0.38119  Biso   1.000  H
  C168     1.0000 0.56230  0.66262  0.26500  Biso   1.000  C
  H133     1.0000 0.59110  0.87280  0.28670  Biso   1.000  H
  C169     1.0000 0.72749  0.87303  0.29478  Biso   1.000  C
  C170     1.0000 0.66889  0.06898  0.28190  Biso   1.000  C
  H134     1.0000 0.72601  0.21424  0.40001  Biso   1.000  H
  H135     1.0000 0.76078  0.10035  0.38148  Biso   1.000  H
  C171     1.0000 0.77800  0.12778  0.45751  Biso   1.000  C
  N23      1.0000 0.85493  0.82569  0.51247  Biso   1.000  N
  H136     1.0000 0.88578  0.61991  0.53661  Biso   1.000  H
  H137     1.0000 0.90227  0.75856  0.57499  Biso   1.000  H
  C172     1.0000 0.87789  0.94109  0.64858  Biso   1.000  C
  C173     1.0000 0.90848  0.73345  0.70450  Biso   1.000  C
  H138     1.0000 0.75477  0.70475  0.68479  Biso   1.000  H
  C174     1.0000 0.76519  0.59861  0.75171  Biso   1.000  C
  H139     1.0000 0.85388  0.37315  0.70708  Biso   1.000  H
  C175     1.0000 0.82295  0.40463  0.76448  Biso   1.000  C
  C176     1.0000 0.56358  0.50729  0.27688  Biso   1.000  C
  H140     1.0000 0.59369  0.34850  0.32870  Biso   1.000  H
  H141     1.0000 0.54128  0.69838  0.23558  Biso   1.000  H
  H142     1.0000 0.74520  0.79525  0.31519  Biso   1.000  H
  C177     1.0000 0.73478  0.90139  0.24828  Biso   1.000  C
  H143     1.0000 0.64608  0.12685  0.29290  Biso   1.000  H
  C178     1.0000 0.67698  0.09537  0.23551  Biso   1.000  C
  N24      1.0000 0.81208  0.00116  0.46895  Biso   1.000  N
  H144     1.0000 0.79520  0.22685  0.45891  Biso   1.000  H
  H145     1.0000 0.76040  0.13125  0.48331  Biso   1.000  H
  C179     1.0000 0.81779  0.91632  0.50940  Biso   1.000  C
  C180     1.0000 0.87388  0.85509  0.47261  Biso   1.000  C
  H146     1.0000 0.85749  0.97650  0.61880  Biso   1.000  H
  C181     1.0000 0.90679  0.04491  0.67970  Biso   1.000  C
  H147     1.0000 0.90887  0.62720  0.71328  Biso   1.000  H
  C182     1.0000 0.93767  0.83738  0.73499  Biso   1.000  C
  C183     1.0000 0.79016  0.48704  0.78079  Biso   1.000  C
  H148     1.0000 0.74269  0.65718  0.76311  Biso   1.000  H
  H149     1.0000 0.84056  0.32755  0.78518  Biso   1.000  H
  H150     1.0000 0.54410  0.43611  0.25540  Biso   1.000  H
  H151     1.0000 0.75729  0.84282  0.23691  Biso   1.000  H
  C184     1.0000 0.70981  0.01296  0.21920  Biso   1.000  C
  H152     1.0000 0.65940  0.17245  0.21480  Biso   1.000  H
  C185     1.0000 0.84728  0.96655  0.44570  Biso   1.000  C
  H153     1.0000 0.79877  0.91944  0.53229  Biso   1.000  H
  C186     1.0000 0.91608  0.77465  0.46619  Biso   1.000  C
  C187     1.0000 0.93638  0.99271  0.72310  Biso   1.000  C
  H154     1.0000 0.90628  0.15150  0.67128  Biso   1.000  H
  H155     1.0000 0.95869  0.80162  0.76440  Biso   1.000  H
  H156     1.0000 0.78488  0.46609  0.81238  Biso   1.000  H
  H157     1.0000 0.71509  0.03391  0.18760  Biso   1.000  H
  C188     1.0000 0.85267  0.04595  0.40049  Biso   1.000  C
  C189     1.0000 0.95978  0.82384  0.49191  Biso   1.000  C
  C190     1.0000 0.91219  0.64861  0.43400  Biso   1.000  C
  H158     1.0000 0.95587  0.06389  0.74458  Biso   1.000  H
  C191     1.0000 0.84728  0.96065  0.35690  Biso   1.000  C
  C192     1.0000 0.86328  0.20104  0.40130  Biso   1.000  C
  H159     1.0000 0.96248  0.91019  0.51350  Biso   1.000  H
  C193     1.0000 0.99940  0.74919  0.48660  Biso   1.000  C
  C194     1.0000 0.95240  0.57569  0.42931  Biso   1.000  C
  H160     1.0000 0.88249  0.61377  0.41581  Biso   1.000  H
  H161     1.0000 0.84018  0.85336  0.35631  Biso   1.000  H
  C195     1.0000 0.85250  0.03449  0.31471  Biso   1.000  C
  H162     1.0000 0.86758  0.25810  0.43109  Biso   1.000  H
  C196     1.0000 0.86749  0.27396  0.35841  Biso   1.000  C
  C197     1.0000 0.99549  0.62442  0.45489  Biso   1.000  C
  H163     1.0000 0.02928  0.78333  0.50468  Biso   1.000  H
  H164     1.0000 0.95010  0.48947  0.40769  Biso   1.000  H
  H165     1.0000 0.84920  0.97743  0.28500  Biso   1.000  H
  C198     1.0000 0.86239  0.19225  0.31549  Biso   1.000  C
  H166     1.0000 0.87400  0.38171  0.35878  Biso   1.000  H
  H167     1.0000 0.02277  0.57280  0.45091  Biso   1.000  H
  H168     1.0000 0.86559  0.24294  0.28630  Biso   1.000  H
  C199     1.0000 0.36237  0.30775  0.81548  Biso   1.000  C
  C200     1.0000 0.36747  0.22604  0.85841  Biso   1.000  C
  C201     1.0000 0.35249  0.46551  0.81471  Biso   1.000  C
  H169     1.0000 0.36558  0.25706  0.78629  Biso   1.000  H
  C202     1.0000 0.36326  0.29896  0.90129  Biso   1.000  C
  H170     1.0000 0.37395  0.11829  0.85878  Biso   1.000  H
  C203     1.0000 0.34727  0.53935  0.85689  Biso   1.000  C
  H171     1.0000 0.34918  0.52257  0.78500  Biso   1.000  H
  C204     1.0000 0.35266  0.45405  0.90048  Biso   1.000  C
  H172     1.0000 0.36757  0.24190  0.93108  Biso   1.000  H
  H173     1.0000 0.34016  0.64664  0.85630  Biso   1.000  H
  C205     1.0000 0.34727  0.53345  0.94569  Biso   1.000  C
  N25      1.0000 0.31207  0.49884  0.96895  Biso   1.000  N
  C206     1.0000 0.37386  0.64491  0.97260  Biso   1.000  C
  C207     1.0000 0.27798  0.37222  0.95750  Biso   1.000  C
  C208     1.0000 0.31781  0.58368  0.00940  Biso   1.000  C
  N26      1.0000 0.35498  0.67431  0.01246  Biso   1.000  N
  C209     1.0000 0.41606  0.72535  0.96618  Biso   1.000  C
  C210     1.0000 0.24326  0.38449  0.90720  Biso   1.000  C
  H174     1.0000 0.29518  0.27315  0.95891  Biso   1.000  H
  H175     1.0000 0.26035  0.36875  0.98330  Biso   1.000  H
  H176     1.0000 0.29879  0.58056  0.03228  Biso   1.000  H
  C211     1.0000 0.37499  0.78785  0.05158  Biso   1.000  C
  C212     1.0000 0.45977  0.67616  0.99190  Biso   1.000  C
  C213     1.0000 0.41218  0.85139  0.93399  Biso   1.000  C
  N27      1.0000 0.20988  0.51123  0.90402  Biso   1.000  N
  H177     1.0000 0.22596  0.28576  0.90000  Biso   1.000  H
  H178     1.0000 0.26077  0.39965  0.88147  Biso   1.000  H
  H179     1.0000 0.38580  0.88009  0.03660  Biso   1.000  H
  H180     1.0000 0.40229  0.74144  0.07498  Biso   1.000  H
  N28      1.0000 0.34100  0.83414  0.07801  Biso   1.000  N
  C214     1.0000 0.49938  0.75081  0.98659  Biso   1.000  C
  H181     1.0000 0.46250  0.58981  0.01349  Biso   1.000  H
  C215     1.0000 0.45238  0.92431  0.92931  Biso   1.000  C
  H182     1.0000 0.38247  0.88623  0.91580  Biso   1.000  H
  C216     1.0000 0.18487  0.57940  0.85970  Biso   1.000  C
  C217     1.0000 0.19218  0.56215  0.93979  Biso   1.000  C
  C218     1.0000 0.30780  0.93785  0.06018  Biso   1.000  C
  C219     1.0000 0.34631  0.82361  0.12909  Biso   1.000  C
  C220     1.0000 0.49548  0.87558  0.95488  Biso   1.000  C
  H183     1.0000 0.52930  0.71667  0.00467  Biso   1.000  H
  H184     1.0000 0.45008  0.01053  0.90768  Biso   1.000  H
  C221     1.0000 0.19496  0.54387  0.81128  Biso   1.000  C
  C222     1.0000 0.15366  0.67639  0.87088  Biso   1.000  C
  N29      1.0000 0.15894  0.66586  0.92196  Biso   1.000  N
  H185     1.0000 0.20168  0.53009  0.97330  Biso   1.000  H
  N30      1.0000 0.29009  0.98877  0.09595  Biso   1.000  N
  H186     1.0000 0.29829  0.96991  0.02667  Biso   1.000  H
  C223     1.0000 0.31510  0.92060  0.14027  Biso   1.000  C
  C224     1.0000 0.37879  0.71505  0.16120  Biso   1.000  C
  H187     1.0000 0.52275  0.92720  0.95090  Biso   1.000  H
  C225     1.0000 0.16887  0.43102  0.78190  Biso   1.000  C
  C226     1.0000 0.22747  0.62697  0.79478  Biso   1.000  C
  C227     1.0000 0.12119  0.78495  0.83881  Biso   1.000  C
  C228     1.0000 0.12498  0.71215  0.94839  Biso   1.000  C
  C229     1.0000 0.25671  0.11551  0.09277  Biso   1.000  C
  C230     1.0000 0.30501  0.95613  0.18870  Biso   1.000  C
  C231     1.0000 0.37791  0.55891  0.14858  Biso   1.000  C
  C232     1.0000 0.40849  0.76655  0.20449  Biso   1.000  C
  C233     1.0000 0.17696  0.40463  0.73550  Biso   1.000  C
  H188     1.0000 0.14607  0.37315  0.79289  Biso   1.000  H
  C234     1.0000 0.23477  0.59861  0.74831  Biso   1.000  C
  H189     1.0000 0.24518  0.70475  0.81519  Biso   1.000  H
  C235     1.0000 0.12206  0.94109  0.85139  Biso   1.000  C
  C236     1.0000 0.09148  0.73345  0.79548  Biso   1.000  C
  H190     1.0000 0.11417  0.61991  0.96337  Biso   1.000  H
  H191     1.0000 0.09768  0.75856  0.92499  Biso   1.000  H
  N31      1.0000 0.14499  0.82569  0.98751  Biso   1.000  N
  C237     1.0000 0.22200  0.12778  0.04250  Biso   1.000  C
  H192     1.0000 0.27398  0.21424  0.09997  Biso   1.000  H
  H193     1.0000 0.23920  0.10035  0.11850  Biso   1.000  H
  C238     1.0000 0.27250  0.87303  0.20519  Biso   1.000  C
  C239     1.0000 0.33110  0.06898  0.21808  Biso   1.000  C
  H194     1.0000 0.35751  0.52350  0.11879  Biso   1.000  H
  C240     1.0000 0.40681  0.45509  0.17969  Biso   1.000  C
  H195     1.0000 0.40888  0.87280  0.21328  Biso   1.000  H
  C241     1.0000 0.43768  0.66262  0.23498  Biso   1.000  C
  C242     1.0000 0.20979  0.48704  0.71919  Biso   1.000  C
  H196     1.0000 0.15939  0.32755  0.71480  Biso   1.000  H
  H197     1.0000 0.25728  0.65718  0.73691  Biso   1.000  H
  H198     1.0000 0.14246  0.97650  0.88118  Biso   1.000  H
  C243     1.0000 0.09316  0.04491  0.82028  Biso   1.000  C
  H199     1.0000 0.09109  0.62720  0.78669  Biso   1.000  H
  C244     1.0000 0.06229  0.83738  0.76499  Biso   1.000  C
  C245     1.0000 0.18216  0.91632  0.99057  Biso   1.000  C
  C246     1.0000 0.12611  0.85509  0.02737  Biso   1.000  C
  N32      1.0000 0.18791  0.00116  0.03106  Biso   1.000  N
  H200     1.0000 0.20480  0.22685  0.04110  Biso   1.000  H
  H201     1.0000 0.23958  0.13125  0.01667  Biso   1.000  H
  H202     1.0000 0.25479  0.79525  0.18478  Biso   1.000  H
  C247     1.0000 0.26521  0.90139  0.25170  Biso   1.000  C
  H203     1.0000 0.35390  0.12685  0.20708  Biso   1.000  H
  C248     1.0000 0.32301  0.09537  0.26447  Biso   1.000  C
  H204     1.0000 0.40630  0.34850  0.17128  Biso   1.000  H
  C249     1.0000 0.43640  0.50729  0.22309  Biso   1.000  C
  H205     1.0000 0.45871  0.69838  0.26439  Biso   1.000  H
  H206     1.0000 0.21508  0.46609  0.68760  Biso   1.000  H
  C250     1.0000 0.06357  0.99271  0.77688  Biso   1.000  C
  H207     1.0000 0.09367  0.15150  0.82870  Biso   1.000  H
  H208     1.0000 0.04126  0.80162  0.73558  Biso   1.000  H
  H209     1.0000 0.20118  0.91944  0.96769  Biso   1.000  H
  C251     1.0000 0.15271  0.96655  0.05428  Biso   1.000  C
  C252     1.0000 0.08391  0.77465  0.03379  Biso   1.000  C
  H210     1.0000 0.24269  0.84282  0.26307  Biso   1.000  H
  C253     1.0000 0.29018  0.01296  0.28078  Biso   1.000  C
  H211     1.0000 0.34058  0.17245  0.28517  Biso   1.000  H
  H212     1.0000 0.45588  0.43611  0.24458  Biso   1.000  H
  H213     1.0000 0.04409  0.06389  0.75540  Biso   1.000  H
  C254     1.0000 0.14731  0.04595  0.09949  Biso   1.000  C
  C255     1.0000 0.04020  0.82384  0.00807  Biso   1.000  C
  C256     1.0000 0.08779  0.64861  0.06598  Biso   1.000  C
  H214     1.0000 0.28490  0.03391  0.31238  Biso   1.000  H
  C257     1.0000 0.15270  0.96065  0.14308  Biso   1.000  C
  C258     1.0000 0.13671  0.20104  0.09868  Biso   1.000  C
  H215     1.0000 0.03747  0.91019  0.98648  Biso   1.000  H
  C259     1.0000 0.00059  0.74919  0.01338  Biso   1.000  C
  C260     1.0000 0.04760  0.57569  0.07070  Biso   1.000  C
  H216     1.0000 0.11750  0.61377  0.08417  Biso   1.000  H
  H217     1.0000 0.15981  0.85336  0.14367  Biso   1.000  H
  C261     1.0000 0.14749  0.03449  0.18530  Biso   1.000  C
  H218     1.0000 0.13240  0.25810  0.06889  Biso   1.000  H
  C262     1.0000 0.13251  0.27396  0.14160  Biso   1.000  C
  H219     1.0000 0.97067  0.78333  0.99530  Biso   1.000  H
  C263     1.0000 0.00449  0.62442  0.04509  Biso   1.000  C
  H220     1.0000 0.04989  0.48947  0.09229  Biso   1.000  H
  H221     1.0000 0.15079  0.97743  0.21497  Biso   1.000  H
  C264     1.0000 0.13760  0.19225  0.18449  Biso   1.000  C
  H222     1.0000 0.12599  0.38171  0.14120  Biso   1.000  H
  H223     1.0000 0.97718  0.57280  0.04907  Biso   1.000  H
  H224     1.0000 0.13439  0.24294  0.21368  Biso   1.000  H
