data_image0
_cell_length_a       7.663
_cell_length_b       10.062
_cell_length_c       11.528
_cell_angle_alpha    91.3
_cell_angle_beta     93.05
_cell_angle_gamma    112.31

_symmetry_space_group_name_H-M    "P 1"
_symmetry_int_tables_number       1

loop_
  _symmetry_equiv_pos_as_xyz
  'x, y, z'

loop_
  _atom_site_label
  _atom_site_occupancy
  _atom_site_fract_x
  _atom_site_fract_y
  _atom_site_fract_z
  _atom_site_thermal_displace_type
  _atom_site_B_iso_or_equiv
  _atom_site_type_symbol
  C1       1.0000 0.94728  0.81918  0.42220  Biso   1.000  C
  N1       1.0000 0.91048  0.70633  0.50542  Biso   1.000  N
  C2       1.0000 0.00374  0.77383  0.30950  Biso   1.000  C
  H1       1.0000 0.83464  0.84005  0.40768  Biso   1.000  H
  H2       1.0000 0.04776  0.90613  0.45464  Biso   1.000  H
  C3       1.0000 0.76642  0.57311  0.45646  Biso   1.000  C
  C4       1.0000 0.86160  0.74896  0.61734  Biso   1.000  C
  N2       1.0000 0.85786  0.64129  0.26123  Biso   1.000  N
  H3       1.0000 0.12146  0.75966  0.32289  Biso   1.000  H
  H4       1.0000 0.02383  0.84888  0.25454  Biso   1.000  H
  C5       1.0000 0.82549  0.52935  0.34359  Biso   1.000  C
  H5       1.0000 0.74724  0.49783  0.51116  Biso   1.000  H
  H6       1.0000 0.64791  0.58575  0.44272  Biso   1.000  H
  H7       1.0000 0.84597  0.66975  0.66909  Biso   1.000  H
  H8       1.0000 0.96940  0.83118  0.64987  Biso   1.000  H
  C6       1.0000 0.69019  0.78231  0.61256  Biso   1.000  C
  C7       1.0000 0.89776  0.59808  0.14679  Biso   1.000  C
  H9       1.0000 0.72744  0.44124  0.31132  Biso   1.000  H
  H10      1.0000 0.94024  0.51139  0.35820  Biso   1.000  H
  C8       1.0000 0.55425  0.81040  0.60604  Biso   1.000  C
  H11      1.0000 0.79442  0.50982  0.11949  Biso   1.000  H
  H12      1.0000 0.90111  0.67158  0.09288  Biso   1.000  H
  C9       1.0000 0.07765  0.57483  0.14401  Biso   1.000  C
  C10      1.0000 0.38697  0.84595  0.58708  Biso   1.000  C
  C11      1.0000 0.46598  0.91500  0.61100  Biso   1.000  C
  C12      1.0000 0.22487  0.56272  0.14462  Biso   1.000  C
  H13      1.0000 0.35158  0.83927  0.50447  Biso   1.000  H
  H14      1.0000 0.28226  0.77744  0.62500  Biso   1.000  H
  O1       1.0000 0.42355  0.98722  0.63221  Biso   1.000  O
  H15      1.0000 0.39160  0.90492  0.53847  Biso   1.000  H
  O2       1.0000 0.34792  0.91303  0.70205  Biso   1.000  O
  H16      1.0000 0.56610  0.00983  0.61430  Biso   1.000  H
  C13      1.0000 0.41320  0.55981  0.13870  Biso   1.000  C
  C14      1.0000 0.39890  0.54099  0.13096  Biso   1.000  C
  C15      1.0000 0.38851  0.00837  0.74422  Biso   1.000  C
  C16      1.0000 0.29513  0.90215  0.81944  Biso   1.000  C
  C17      1.0000 0.35695  0.99765  0.80631  Biso   1.000  C
  H17      1.0000 0.40148  0.46617  0.10749  Biso   1.000  H
  H18      1.0000 0.47294  0.57288  0.21671  Biso   1.000  H
  O3       1.0000 0.53082  0.66803  0.06844  Biso   1.000  O
  H19      1.0000 0.37302  0.44727  0.09461  Biso   1.000  H
  H20      1.0000 0.46621  0.54830  0.20584  Biso   1.000  H
  O4       1.0000 0.50993  0.65094  0.05896  Biso   1.000  O
  C18      1.0000 0.44612  0.15261  0.77927  Biso   1.000  C
  C19      1.0000 0.45003  0.14637  0.81640  Biso   1.000  C
  C20      1.0000 0.25948  0.94017  0.92971  Biso   1.000  C
  H21      1.0000 0.25666  0.80572  0.79588  Biso   1.000  H
  C21      1.0000 0.24398  0.92539  0.89319  Biso   1.000  C
  Cl1      1.0000 0.13903  0.73956  0.88771  Biso   1.000  Cl
  C22      1.0000 0.58948  0.80934  0.11044  Biso   1.000  C
  C23      1.0000 0.56994  0.77736  0.08661  Biso   1.000  C
  H22      1.0000 0.50848  0.22374  0.72900  Biso   1.000  H
  C24      1.0000 0.41049  0.19064  0.88962  Biso   1.000  C
  C25      1.0000 0.43002  0.22262  0.91336  Biso   1.000  C
  H23      1.0000 0.52597  0.19470  0.75831  Biso   1.000  H
  H24      1.0000 0.19712  0.86904  0.97998  Biso   1.000  H
  C26      1.0000 0.31710  0.08442  0.96484  Biso   1.000  C
  C27      1.0000 0.22311  0.00175  0.99006  Biso   1.000  C
  C28      1.0000 0.68292  0.84962  0.99983  Biso   1.000  C
  C29      1.0000 0.68274  0.91557  0.03522  Biso   1.000  C
  C30      1.0000 0.55384  0.84736  0.22071  Biso   1.000  C
  C31      1.0000 0.54999  0.85372  0.18358  Biso   1.000  C
  O5       1.0000 0.46907  0.33206  0.93163  Biso   1.000  O
  O6       1.0000 0.49003  0.34903  0.94102  Biso   1.000  O
  C32      1.0000 0.31699  0.15025  0.00015  Biso   1.000  C
  Cl2      1.0000 0.26711  0.13029  0.09964  Biso   1.000  Cl
  H25      1.0000 0.14750  0.95331  0.04815  Biso   1.000  H
  H26      1.0000 0.69681  0.79863  0.93495  Biso   1.000  H
  C33      1.0000 0.77685  0.99823  0.00991  Biso   1.000  C
  Cl3      1.0000 0.73268  0.86959  0.90043  Biso   1.000  Cl
  C34      1.0000 0.74048  0.05981  0.07027  Biso   1.000  C
  C35      1.0000 0.75598  0.07458  0.10679  Biso   1.000  C
  C36      1.0000 0.61146  0.99161  0.25584  Biso   1.000  C
  H27      1.0000 0.49135  0.77623  0.27097  Biso   1.000  H
  H28      1.0000 0.47399  0.80528  0.24167  Biso   1.000  H
  C37      1.0000 0.64301  0.00233  0.19366  Biso   1.000  C
  C38      1.0000 0.58663  0.44017  0.86127  Biso   1.000  C
  C39      1.0000 0.60093  0.45899  0.86901  Biso   1.000  C
  H29      1.0000 0.30311  0.20125  0.06511  Biso   1.000  H
  H30      1.0000 0.85260  0.04667  0.95182  Biso   1.000  H
  H31      1.0000 0.80284  0.13094  0.02000  Biso   1.000  H
  C40      1.0000 0.70471  0.09784  0.18062  Biso   1.000  C
  Cl4      1.0000 0.86093  0.26042  0.11227  Biso   1.000  Cl
  O7       1.0000 0.57646  0.01286  0.36776  Biso   1.000  O
  O8       1.0000 0.65197  0.08706  0.29802  Biso   1.000  O
  H32      1.0000 0.59848  0.53381  0.89249  Biso   1.000  H
  H33      1.0000 0.52702  0.42710  0.78327  Biso   1.000  H
  C41      1.0000 0.77509  0.43725  0.85536  Biso   1.000  C
  H34      1.0000 0.62681  0.55271  0.90536  Biso   1.000  H
  H35      1.0000 0.53363  0.45168  0.79423  Biso   1.000  H
  H36      1.0000 0.74335  0.19436  0.20410  Biso   1.000  H
  H37      1.0000 0.43386  0.99015  0.38568  Biso   1.000  H
  C42      1.0000 0.61286  0.15403  0.41290  Biso   1.000  C
  H38      1.0000 0.60841  0.09516  0.46151  Biso   1.000  H
  C43      1.0000 0.53398  0.08498  0.38898  Biso   1.000  C
  C44      1.0000 0.92224  0.42526  0.85597  Biso   1.000  C
  C45      1.0000 0.44572  0.18958  0.39403  Biso   1.000  C
  H39      1.0000 0.64825  0.16071  0.49551  Biso   1.000  H
  H40      1.0000 0.71770  0.22254  0.37498  Biso   1.000  H
  C46      1.0000 0.10220  0.40189  0.85319  Biso   1.000  C
  C47      1.0000 0.30977  0.21767  0.38742  Biso   1.000  C
  H41      1.0000 0.20541  0.49015  0.88049  Biso   1.000  H
  H42      1.0000 0.09885  0.32839  0.90710  Biso   1.000  H
  N3       1.0000 0.14211  0.35870  0.73883  Biso   1.000  N
  C48      1.0000 0.13837  0.25102  0.38272  Biso   1.000  C
  C49      1.0000 0.99615  0.22626  0.69048  Biso   1.000  C
  C50      1.0000 0.17447  0.47063  0.65639  Biso   1.000  C
  H43      1.0000 0.15399  0.33023  0.33089  Biso   1.000  H
  H44      1.0000 0.03056  0.16880  0.35011  Biso   1.000  H
  N4       1.0000 0.08955  0.29376  0.49464  Biso   1.000  N
  C51      1.0000 0.05255  0.18079  0.57778  Biso   1.000  C
  H45      1.0000 0.87850  0.24031  0.67709  Biso   1.000  H
  H46      1.0000 0.97614  0.15111  0.74553  Biso   1.000  H
  C52      1.0000 0.23341  0.42687  0.54351  Biso   1.000  C
  H47      1.0000 0.27259  0.55885  0.68874  Biso   1.000  H
  H48      1.0000 0.05972  0.48859  0.64178  Biso   1.000  H
  H49      1.0000 0.95221  0.09385  0.54543  Biso   1.000  H
  H50      1.0000 0.16533  0.15993  0.59230  Biso   1.000  H
  H51      1.0000 0.25265  0.50226  0.48881  Biso   1.000  H
  H52      1.0000 0.35193  0.41424  0.55734  Biso   1.000  H
