data_image0
_cell_length_a       12.927
_cell_length_b       14.71
_cell_length_c       13.986
_cell_angle_alpha    90
_cell_angle_beta     94.42
_cell_angle_gamma    90

_symmetry_space_group_name_H-M    "P 1"
_symmetry_int_tables_number       1

loop_
  _symmetry_equiv_pos_as_xyz
  'x, y, z'

loop_
  _atom_site_label
  _atom_site_occupancy
  _atom_site_fract_x
  _atom_site_fract_y
  _atom_site_fract_z
  _atom_site_thermal_displace_type
  _atom_site_B_iso_or_equiv
  _atom_site_type_symbol
  C1       1.0000 0.52170  0.38083  0.48528  Biso   1.000  C
  C2       1.0000 0.61489  0.35248  0.46083  Biso   1.000  C
  C3       1.0000 0.50602  0.39273  0.58109  Biso   1.000  C
  H1       1.0000 0.46700  0.39198  0.43602  Biso   1.000  H
  O1       1.0000 0.65021  0.33569  0.37047  Biso   1.000  O
  C4       1.0000 0.70141  0.34113  0.53269  Biso   1.000  C
  C5       1.0000 0.58080  0.37920  0.65037  Biso   1.000  C
  H2       1.0000 0.44100  0.41101  0.60103  Biso   1.000  H
  C6       1.0000 0.57482  0.34908  0.29288  Biso   1.000  C
  O2       1.0000 0.79388  0.31577  0.50328  Biso   1.000  O
  C7       1.0000 0.68233  0.35527  0.62764  Biso   1.000  C
  H3       1.0000 0.57103  0.38402  0.71599  Biso   1.000  H
  C8       1.0000 0.61987  0.32107  0.20051  Biso   1.000  C
  H4       1.0000 0.55601  0.41101  0.29001  Biso   1.000  H
  H5       1.0000 0.51601  0.31298  0.30198  Biso   1.000  H
  C9       1.0000 0.87476  0.28450  0.57622  Biso   1.000  C
  H6       1.0000 0.74100  0.34901  0.67898  Biso   1.000  H
  O3       1.0000 0.60844  0.22257  0.19413  Biso   1.000  O
  H7       1.0000 0.58401  0.35099  0.14701  Biso   1.000  H
  H8       1.0000 0.69202  0.33800  0.20202  Biso   1.000  H
  C10      1.0000 0.84982  0.19361  0.61573  Biso   1.000  C
  H9       1.0000 0.88000  0.32903  0.62699  Biso   1.000  H
  H10      1.0000 0.93801  0.28103  0.54703  Biso   1.000  H
  C11      1.0000 0.64428  0.17947  0.11653  Biso   1.000  C
  O4       1.0000 0.85472  0.12223  0.55571  Biso   1.000  O
  C12      1.0000 0.82111  0.16907  0.70093  Biso   1.000  C
  C13      1.0000 0.63343  0.08552  0.10614  Biso   1.000  C
  C14      1.0000 0.69313  0.22937  0.04927  Biso   1.000  C
  C15      1.0000 0.83178  0.04378  0.60626  Biso   1.000  C
  C16      1.0000 0.80889  0.07267  0.69540  Biso   1.000  C
  H11      1.0000 0.80899  0.20503  0.75500  Biso   1.000  H
  O5       1.0000 0.58282  0.04602  0.17921  Biso   1.000  O
  C17      1.0000 0.67013  0.04398  0.02582  Biso   1.000  C
  H12      1.0000 0.70197  0.29402  0.05601  Biso   1.000  H
  C18      1.0000 0.72959  0.18593  0.96974  Biso   1.000  C
  C19      1.0000 0.83483  0.96010  0.55090  Biso   1.000  C
  H13      1.0000 0.78804  0.03297  0.74403  Biso   1.000  H
  C20      1.0000 0.57449  0.94963  0.17477  Biso   1.000  C
  H14      1.0000 0.66197  0.98001  0.01700  Biso   1.000  H
  C21      1.0000 0.71861  0.09422  0.95963  Biso   1.000  C
  H15      1.0000 0.76103  0.21999  0.92104  Biso   1.000  H
  O6       1.0000 0.74557  0.94888  0.48062  Biso   1.000  O
  H16      1.0000 0.89698  0.96098  0.51799  Biso   1.000  H
  H17      1.0000 0.83703  0.91101  0.59400  Biso   1.000  H
  C22      1.0000 0.53092  0.91768  0.26369  Biso   1.000  C
  H18      1.0000 0.64200  0.92400  0.16903  Biso   1.000  H
  H19      1.0000 0.53000  0.93202  0.11998  Biso   1.000  H
  H20      1.0000 0.74602  0.06499  0.90706  Biso   1.000  H
  C23      1.0000 0.65102  0.92053  0.50909  Biso   1.000  C
  O7       1.0000 0.60828  0.92692  0.34257  Biso   1.000  O
  H21      1.0000 0.47300  0.95303  0.27602  Biso   1.000  H
  H22      1.0000 0.51103  0.85602  0.25702  Biso   1.000  H
  C24      1.0000 0.58091  0.90578  0.43272  Biso   1.000  C
  C25      1.0000 0.63222  0.90252  0.60282  Biso   1.000  C
  C26      1.0000 0.47993  0.87702  0.44907  Biso   1.000  C
  C27      1.0000 0.53062  0.87199  0.61638  Biso   1.000  C
  H23      1.0000 0.68399  0.90999  0.65403  Biso   1.000  H
  C28      1.0000 0.45311  0.85948  0.54122  Biso   1.000  C
  H24      1.0000 0.43102  0.87002  0.39600  Biso   1.000  H
  H25      1.0000 0.51503  0.85901  0.67798  Biso   1.000  H
  H26      1.0000 0.38500  0.83997  0.55198  Biso   1.000  H
  C29      1.0000 0.47828  0.61917  0.51469  Biso   1.000  C
  C30      1.0000 0.49397  0.60727  0.41888  Biso   1.000  C
  C31      1.0000 0.38510  0.64752  0.53921  Biso   1.000  C
  H27      1.0000 0.53299  0.60802  0.56403  Biso   1.000  H
  C32      1.0000 0.41919  0.62080  0.34960  Biso   1.000  C
  H28      1.0000 0.55899  0.58899  0.39901  Biso   1.000  H
  C33      1.0000 0.29857  0.65887  0.46728  Biso   1.000  C
  O8       1.0000 0.34977  0.66431  0.62950  Biso   1.000  O
  C34      1.0000 0.31774  0.64473  0.37241  Biso   1.000  C
  H29      1.0000 0.42903  0.61598  0.28398  Biso   1.000  H
  O9       1.0000 0.20611  0.68423  0.49669  Biso   1.000  O
  C35      1.0000 0.42517  0.65092  0.70709  Biso   1.000  C
  H30      1.0000 0.25899  0.65099  0.32099  Biso   1.000  H
  C36      1.0000 0.12523  0.71550  0.42383  Biso   1.000  C
  C37      1.0000 0.38012  0.67893  0.79953  Biso   1.000  C
  H31      1.0000 0.44398  0.58899  0.71003  Biso   1.000  H
  H32      1.0000 0.48397  0.68702  0.69799  Biso   1.000  H
  C38      1.0000 0.15017  0.80639  0.38431  Biso   1.000  C
  H33      1.0000 0.11998  0.67097  0.37298  Biso   1.000  H
  H34      1.0000 0.06199  0.71897  0.45301  Biso   1.000  H
  O10      1.0000 0.39163  0.77743  0.80591  Biso   1.000  O
  H35      1.0000 0.41599  0.64901  0.85303  Biso   1.000  H
  H36      1.0000 0.30797  0.66200  0.79803  Biso   1.000  H
  O11      1.0000 0.14527  0.87777  0.44426  Biso   1.000  O
  C39      1.0000 0.17888  0.83093  0.29912  Biso   1.000  C
  C40      1.0000 0.35571  0.82053  0.88351  Biso   1.000  C
  C41      1.0000 0.16820  0.95622  0.39371  Biso   1.000  C
  C42      1.0000 0.19109  0.92733  0.30457  Biso   1.000  C
  H37      1.0000 0.19100  0.79497  0.24497  Biso   1.000  H
  C43      1.0000 0.36664  0.91448  0.89391  Biso   1.000  C
  C44      1.0000 0.30693  0.77063  0.95070  Biso   1.000  C
  C45      1.0000 0.16516  0.03990  0.44907  Biso   1.000  C
  H38      1.0000 0.21203  0.96703  0.25602  Biso   1.000  H
  O12      1.0000 0.41717  0.95398  0.82083  Biso   1.000  O
  C46      1.0000 0.32994  0.95602  0.97423  Biso   1.000  C
  H39      1.0000 0.29802  0.70598  0.94403  Biso   1.000  H
  C47      1.0000 0.27040  0.81407  0.03031  Biso   1.000  C
  O13      1.0000 0.25442  0.05112  0.51942  Biso   1.000  O
  H40      1.0000 0.10300  0.03902  0.48199  Biso   1.000  H
  H41      1.0000 0.16296  0.08899  0.40597  Biso   1.000  H
  C48      1.0000 0.42550  0.05037  0.82521  Biso   1.000  C
  C49      1.0000 0.28138  0.90578  0.04035  Biso   1.000  C
  H42      1.0000 0.33801  0.01999  0.98297  Biso   1.000  H
  H43      1.0000 0.23896  0.78001  0.07900  Biso   1.000  H
  C50      1.0000 0.34897  0.07947  0.49088  Biso   1.000  C
  C51      1.0000 0.46907  0.08232  0.73628  Biso   1.000  C
  H44      1.0000 0.35799  0.07600  0.83101  Biso   1.000  H
  H45      1.0000 0.46999  0.06798  0.87999  Biso   1.000  H
  H46      1.0000 0.25397  0.93501  0.09298  Biso   1.000  H
  C52      1.0000 0.41908  0.09422  0.56732  Biso   1.000  C
  C53      1.0000 0.36777  0.09748  0.39722  Biso   1.000  C
  O14      1.0000 0.39171  0.07308  0.65740  Biso   1.000  O
  H47      1.0000 0.52699  0.04697  0.72402  Biso   1.000  H
  H48      1.0000 0.48897  0.14398  0.74302  Biso   1.000  H
  C54      1.0000 0.52014  0.12298  0.55090  Biso   1.000  C
  C55      1.0000 0.46936  0.12801  0.38359  Biso   1.000  C
  H49      1.0000 0.31600  0.09001  0.34602  Biso   1.000  H
  C56      1.0000 0.54688  0.14052  0.45882  Biso   1.000  C
  H50      1.0000 0.56896  0.12998  0.60397  Biso   1.000  H
  H51      1.0000 0.48504  0.14099  0.32199  Biso   1.000  H
  H52      1.0000 0.61498  0.16003  0.44799  Biso   1.000  H
  C57      1.0000 0.78143  0.59422  0.54043  Biso   1.000  C
  C58      1.0000 0.82990  0.54398  0.47417  Biso   1.000  C
  C59      1.0000 0.77037  0.68593  0.53032  Biso   1.000  C
  H53      1.0000 0.75402  0.56499  0.59300  Biso   1.000  H
  C60      1.0000 0.86660  0.58552  0.39392  Biso   1.000  C
  H54      1.0000 0.83798  0.48001  0.48299  Biso   1.000  H
  C61      1.0000 0.80690  0.72937  0.45072  Biso   1.000  C
  H55      1.0000 0.73900  0.71999  0.57901  Biso   1.000  H
  O15      1.0000 0.91721  0.54602  0.32077  Biso   1.000  O
  C62      1.0000 0.85568  0.67947  0.38352  Biso   1.000  C
  H56      1.0000 0.79798  0.79402  0.44398  Biso   1.000  H
  C63      1.0000 0.92547  0.44963  0.32522  Biso   1.000  C
  O16      1.0000 0.89160  0.72257  0.30593  Biso   1.000  O
  C64      1.0000 0.96911  0.41768  0.23630  Biso   1.000  C
  H57      1.0000 0.85803  0.42400  0.33103  Biso   1.000  H
  H58      1.0000 0.97003  0.43202  0.38001  Biso   1.000  H
  C65      1.0000 0.88008  0.82107  0.29947  Biso   1.000  C
  O17      1.0000 0.89167  0.42692  0.15741  Biso   1.000  O
  H59      1.0000 0.98901  0.35602  0.24296  Biso   1.000  H
  H60      1.0000 0.02703  0.45303  0.22403  Biso   1.000  H
  C66      1.0000 0.92521  0.84908  0.20711  Biso   1.000  C
  H61      1.0000 0.91603  0.85099  0.35297  Biso   1.000  H
  H62      1.0000 0.80801  0.83800  0.29797  Biso   1.000  H
  C67      1.0000 0.91912  0.40578  0.06727  Biso   1.000  C
  O18      1.0000 0.84982  0.83569  0.12951  Biso   1.000  O
  H63      1.0000 0.94402  0.91101  0.20998  Biso   1.000  H
  H64      1.0000 0.98402  0.81298  0.19800  Biso   1.000  H
  C68      1.0000 0.84902  0.42053  0.99096  Biso   1.000  C
  C69      1.0000 0.02010  0.37702  0.05092  Biso   1.000  C
  C70      1.0000 0.88507  0.85248  0.03923  Biso   1.000  C
  O19      1.0000 0.75439  0.44888  0.01943  Biso   1.000  O
  C71      1.0000 0.86781  0.40252  0.89723  Biso   1.000  C
  C72      1.0000 0.04693  0.35948  0.95884  Biso   1.000  C
  H65      1.0000 0.06901  0.37002  0.10398  Biso   1.000  H
  C73      1.0000 0.79862  0.84113  0.96730  Biso   1.000  C
  C74      1.0000 0.97833  0.88083  0.01470  Biso   1.000  C
  C75      1.0000 0.66521  0.46010  0.94916  Biso   1.000  C
  C76      1.0000 0.96941  0.37199  0.88361  Biso   1.000  C
  H66      1.0000 0.81605  0.40999  0.84603  Biso   1.000  H
  H67      1.0000 0.11503  0.33997  0.94801  Biso   1.000  H
  O20      1.0000 0.70608  0.81577  0.99670  Biso   1.000  O
  C77      1.0000 0.81771  0.85527  0.87242  Biso   1.000  C
  C78      1.0000 0.99402  0.89273  0.91896  Biso   1.000  C
  H68      1.0000 0.03303  0.89198  0.06397  Biso   1.000  H
  C79      1.0000 0.66825  0.54378  0.89372  Biso   1.000  C
  H69      1.0000 0.60305  0.46098  0.98200  Biso   1.000  H
  H70      1.0000 0.66301  0.41101  0.90606  Biso   1.000  H
  H71      1.0000 0.98500  0.35901  0.82201  Biso   1.000  H
  C80      1.0000 0.62520  0.78450  0.92384  Biso   1.000  C
  C81      1.0000 0.91923  0.87920  0.84962  Biso   1.000  C
  H72      1.0000 0.75904  0.84901  0.82100  Biso   1.000  H
  H73      1.0000 0.05904  0.91101  0.89903  Biso   1.000  H
  O21      1.0000 0.64532  0.62223  0.94435  Biso   1.000  O
  C82      1.0000 0.69115  0.57267  0.80465  Biso   1.000  C
  C83      1.0000 0.65021  0.69361  0.88433  Biso   1.000  C
  H74      1.0000 0.62003  0.82903  0.87300  Biso   1.000  H
  H75      1.0000 0.56203  0.78103  0.95303  Biso   1.000  H
  H76      1.0000 0.92900  0.88402  0.78400  Biso   1.000  H
  C84      1.0000 0.67893  0.66907  0.79913  Biso   1.000  C
  H77      1.0000 0.71200  0.53297  0.75603  Biso   1.000  H
  H78      1.0000 0.69105  0.70503  0.74506  Biso   1.000  H
  C85      1.0000 0.21857  0.40578  0.45961  Biso   1.000  C
  C86      1.0000 0.22962  0.31407  0.46972  Biso   1.000  C
  C87      1.0000 0.17009  0.45602  0.52580  Biso   1.000  C
  H79      1.0000 0.24597  0.43501  0.40697  Biso   1.000  H
  C88      1.0000 0.19309  0.27063  0.54932  Biso   1.000  C
  H80      1.0000 0.26099  0.28001  0.42103  Biso   1.000  H
  C89      1.0000 0.13339  0.41448  0.60612  Biso   1.000  C
  H81      1.0000 0.16200  0.51999  0.51698  Biso   1.000  H
  C90      1.0000 0.14431  0.32053  0.61652  Biso   1.000  C
  H82      1.0000 0.20200  0.20598  0.55599  Biso   1.000  H
  O22      1.0000 0.08278  0.45398  0.67920  Biso   1.000  O
  O23      1.0000 0.10839  0.27743  0.69411  Biso   1.000  O
  C91      1.0000 0.07452  0.55037  0.67482  Biso   1.000  C
  C92      1.0000 0.11991  0.17893  0.70050  Biso   1.000  C
  C93      1.0000 0.03088  0.58232  0.76368  Biso   1.000  C
  H83      1.0000 0.14204  0.57600  0.66901  Biso   1.000  H
  H84      1.0000 0.03004  0.56798  0.62003  Biso   1.000  H
  C94      1.0000 0.07478  0.15092  0.79293  Biso   1.000  C
  H85      1.0000 0.08396  0.14901  0.64700  Biso   1.000  H
  H86      1.0000 0.19197  0.16200  0.70200  Biso   1.000  H
  O24      1.0000 0.10832  0.57308  0.84263  Biso   1.000  O
  H87      1.0000 0.01098  0.64398  0.75701  Biso   1.000  H
  H88      1.0000 0.97304  0.54697  0.77601  Biso   1.000  H
  O25      1.0000 0.15017  0.16431  0.87053  Biso   1.000  O
  H89      1.0000 0.05597  0.08899  0.78999  Biso   1.000  H
  H90      1.0000 0.01597  0.18702  0.80197  Biso   1.000  H
  C95      1.0000 0.08086  0.59422  0.93270  Biso   1.000  C
  C96      1.0000 0.11492  0.14752  0.96082  Biso   1.000  C
  C97      1.0000 0.97989  0.62298  0.94913  Biso   1.000  C
  C98      1.0000 0.15097  0.57947  0.00908  Biso   1.000  C
  C99      1.0000 0.02174  0.11917  0.98527  Biso   1.000  C
  C100     1.0000 0.20137  0.15887  0.03267  Biso   1.000  C
  H91      1.0000 0.93098  0.62998  0.89599  Biso   1.000  H
  C101     1.0000 0.95307  0.64052  0.04121  Biso   1.000  C
  O26      1.0000 0.24561  0.55112  0.98061  Biso   1.000  O
  C102     1.0000 0.13217  0.59748  0.10274  Biso   1.000  C
  H92      1.0000 0.96704  0.10802  0.93600  Biso   1.000  H
  C103     1.0000 0.00598  0.10727  0.08108  Biso   1.000  C
  O27      1.0000 0.29391  0.18423  0.00327  Biso   1.000  O
  C104     1.0000 0.18228  0.14473  0.12755  Biso   1.000  C
  H93      1.0000 0.88496  0.66003  0.05196  Biso   1.000  H
  C105     1.0000 0.03058  0.62801  0.11636  Biso   1.000  C
  C106     1.0000 0.33478  0.53990  0.05089  Biso   1.000  C
  H94      1.0000 0.18402  0.59001  0.15394  Biso   1.000  H
  H95      1.0000 0.94095  0.08899  0.10094  Biso   1.000  H
  C107     1.0000 0.08076  0.12080  0.15035  Biso   1.000  C
  C108     1.0000 0.37480  0.21550  0.07620  Biso   1.000  C
  H96      1.0000 0.24095  0.15099  0.17897  Biso   1.000  H
  H97      1.0000 0.01498  0.64099  0.17796  Biso   1.000  H
  C109     1.0000 0.33182  0.45622  0.10625  Biso   1.000  C
  H98      1.0000 0.39702  0.53902  0.01797  Biso   1.000  H
  H99      1.0000 0.33698  0.58899  0.09399  Biso   1.000  H
  H100     1.0000 0.07099  0.11598  0.21597  Biso   1.000  H
  C110     1.0000 0.34977  0.30639  0.11564  Biso   1.000  C
  H101     1.0000 0.37996  0.17097  0.12698  Biso   1.000  H
  H102     1.0000 0.43796  0.21897  0.04694  Biso   1.000  H
  O28      1.0000 0.35468  0.37777  0.05569  Biso   1.000  O
  C111     1.0000 0.30892  0.42733  0.19539  Biso   1.000  C
  C112     1.0000 0.32106  0.33093  0.20084  Biso   1.000  C
  H103     1.0000 0.28799  0.46703  0.24394  Biso   1.000  H
  H104     1.0000 0.30902  0.29497  0.25498  Biso   1.000  H
