data_image0
_cell_length_a       9.774
_cell_length_b       11.296
_cell_length_c       12.97
_cell_angle_alpha    84.32
_cell_angle_beta     74.96
_cell_angle_gamma    72.97

_symmetry_space_group_name_H-M    "P 1"
_symmetry_int_tables_number       1

loop_
  _symmetry_equiv_pos_as_xyz
  'x, y, z'

loop_
  _atom_site_label
  _atom_site_occupancy
  _atom_site_fract_x
  _atom_site_fract_y
  _atom_site_fract_z
  _atom_site_thermal_displace_type
  _atom_site_B_iso_or_equiv
  _atom_site_type_symbol
  C1       1.0000 0.63831  0.28898  0.50009  Biso   1.000  C
  N1       1.0000 0.50911  0.27215  0.48627  Biso   1.000  N
  N2       1.0000 0.63328  0.32272  0.59800  Biso   1.000  N
  C2       1.0000 0.76168  0.28003  0.41535  Biso   1.000  C
  C3       1.0000 0.50838  0.21696  0.39379  Biso   1.000  C
  C4       1.0000 0.36610  0.34818  0.54696  Biso   1.000  C
  C5       1.0000 0.75562  0.34494  0.60774  Biso   1.000  C
  C6       1.0000 0.87890  0.31270  0.43532  Biso   1.000  C
  H1       1.0000 0.76581  0.25302  0.34731  Biso   1.000  H
  N3       1.0000 0.41360  0.28182  0.33757  Biso   1.000  N
  C7       1.0000 0.59169  0.09531  0.36768  Biso   1.000  C
  H2       1.0000 0.37165  0.35643  0.62020  Biso   1.000  H
  H3       1.0000 0.28909  0.30823  0.54840  Biso   1.000  H
  H4       1.0000 0.34240  0.43036  0.51270  Biso   1.000  H
  N4       1.0000 0.87846  0.34397  0.53243  Biso   1.000  N
  H5       1.0000 0.75552  0.36386  0.67738  Biso   1.000  H
  N5       1.0000 0.99790  0.32684  0.35274  Biso   1.000  N
  C8       1.0000 0.40473  0.22551  0.25468  Biso   1.000  C
  C9       1.0000 0.57549  0.04689  0.27783  Biso   1.000  C
  Br1      1.0000 0.70253  0.99565  0.45872  Biso   1.000  Br
  C10      1.0000 0.02953  0.27377  0.25364  Biso   1.000  C
  C11      1.0000 0.04832  0.43633  0.35722  Biso   1.000  C
  N6       1.0000 0.48154  0.11146  0.22185  Biso   1.000  N
  H6       1.0000 0.33644  0.27146  0.21498  Biso   1.000  H
  N7       1.0000 0.64769  0.92375  0.24893  Biso   1.000  N
  C12      1.0000 0.06361  0.14530  0.24262  Biso   1.000  C
  N8       1.0000 0.03877  0.34987  0.16747  Biso   1.000  N
  H7       1.0000 0.96833  0.51145  0.35282  Biso   1.000  H
  H8       1.0000 0.07675  0.43429  0.42462  Biso   1.000  H
  H9       1.0000 0.13342  0.43612  0.29716  Biso   1.000  H
  C13      1.0000 0.55710  0.85699  0.21690  Biso   1.000  C
  C14      1.0000 0.79910  0.87981  0.21874  Biso   1.000  C
  C15      1.0000 0.10002  0.10106  0.13968  Biso   1.000  C
  Br2      1.0000 0.08431  0.03491  0.35937  Biso   1.000  Br
  C16      1.0000 0.08290  0.29593  0.07299  Biso   1.000  C
  H10      1.0000 0.58309  0.77061  0.24238  Biso   1.000  H
  H11      1.0000 0.57531  0.85961  0.13888  Biso   1.000  H
  H12      1.0000 0.45253  0.89627  0.24813  Biso   1.000  H
  N9       1.0000 0.85238  0.75569  0.20772  Biso   1.000  N
  C17      1.0000 0.89074  0.95777  0.19598  Biso   1.000  C
  N10      1.0000 0.14000  0.97339  0.11995  Biso   1.000  N
  N11      1.0000 0.11248  0.17669  0.05351  Biso   1.000  N
  H13      1.0000 0.09463  0.34935  0.01198  Biso   1.000  H
  C18      1.0000 0.99679  0.71603  0.17018  Biso   1.000  C
  H14      1.0000 0.85249  0.04408  0.20828  Biso   1.000  H
  C19      1.0000 0.04036  0.90415  0.15469  Biso   1.000  C
  C20      1.0000 0.27774  0.92200  0.03993  Biso   1.000  C
  N12      1.0000 0.09535  0.78057  0.14111  Biso   1.000  N
  H15      1.0000 0.03592  0.62884  0.16308  Biso   1.000  H
  H16      1.0000 0.25477  0.89891  0.97692  Biso   1.000  H
  H17      1.0000 0.33810  0.84854  0.07028  Biso   1.000  H
  H18      1.0000 0.33242  0.98426  0.01933  Biso   1.000  H
  C21      1.0000 0.36170  0.71099  0.49993  Biso   1.000  C
  N13      1.0000 0.36670  0.67734  0.40202  Biso   1.000  N
  C22      1.0000 0.23831  0.72003  0.58466  Biso   1.000  C
  N14      1.0000 0.49091  0.72781  0.51374  Biso   1.000  N
  C23      1.0000 0.24436  0.65512  0.39227  Biso   1.000  C
  C24      1.0000 0.12111  0.68727  0.56469  Biso   1.000  C
  H19      1.0000 0.23417  0.74704  0.65270  Biso   1.000  H
  C25      1.0000 0.49156  0.78302  0.60614  Biso   1.000  C
  C26      1.0000 0.63394  0.65180  0.45297  Biso   1.000  C
  N15      1.0000 0.12155  0.65600  0.46758  Biso   1.000  N
  H20      1.0000 0.24449  0.63611  0.32264  Biso   1.000  H
  N16      1.0000 0.00214  0.67313  0.64719  Biso   1.000  N
  N17      1.0000 0.58644  0.71816  0.66236  Biso   1.000  N
  C27      1.0000 0.40832  0.90466  0.63234  Biso   1.000  C
  H21      1.0000 0.62824  0.64363  0.37982  Biso   1.000  H
  H22      1.0000 0.71089  0.69183  0.45161  Biso   1.000  H
  H23      1.0000 0.65761  0.56961  0.48731  Biso   1.000  H
  C28      1.0000 0.97048  0.72619  0.74638  Biso   1.000  C
  C29      1.0000 0.95167  0.56373  0.64280  Biso   1.000  C
  C30      1.0000 0.59529  0.77446  0.74534  Biso   1.000  C
  C31      1.0000 0.42453  0.95308  0.72218  Biso   1.000  C
  Br3      1.0000 0.29749  0.00432  0.54129  Biso   1.000  Br
  N18      1.0000 0.96115  0.65010  0.83255  Biso   1.000  N
  C32      1.0000 0.93640  0.85466  0.75740  Biso   1.000  C
  H24      1.0000 0.03168  0.48852  0.64719  Biso   1.000  H
  H25      1.0000 0.92327  0.56568  0.57539  Biso   1.000  H
  H26      1.0000 0.86659  0.56394  0.70277  Biso   1.000  H
  N19      1.0000 0.51847  0.88851  0.77816  Biso   1.000  N
  H27      1.0000 0.66357  0.72851  0.78503  Biso   1.000  H
  N20      1.0000 0.35233  0.07622  0.75109  Biso   1.000  N
  C33      1.0000 0.91708  0.70413  0.92702  Biso   1.000  C
  Br4      1.0000 0.91568  0.96516  0.64064  Biso   1.000  Br
  C34      1.0000 0.90002  0.89892  0.86026  Biso   1.000  C
  C35      1.0000 0.44291  0.14298  0.78311  Biso   1.000  C
  C36      1.0000 0.20091  0.12016  0.78128  Biso   1.000  C
  N21      1.0000 0.88753  0.82328  0.94651  Biso   1.000  N
  H28      1.0000 0.90538  0.65062  0.98803  Biso   1.000  H
  N22      1.0000 0.86002  0.02658  0.88006  Biso   1.000  N
  H29      1.0000 0.41692  0.22936  0.75764  Biso   1.000  H
  H30      1.0000 0.42471  0.14036  0.86114  Biso   1.000  H
  H31      1.0000 0.54748  0.10370  0.75189  Biso   1.000  H
  C37      1.0000 0.10930  0.04220  0.80396  Biso   1.000  C
  N23      1.0000 0.14764  0.24428  0.79230  Biso   1.000  N
  C38      1.0000 0.95966  0.09582  0.84532  Biso   1.000  C
  C39      1.0000 0.72217  0.07797  0.96008  Biso   1.000  C
  H32      1.0000 0.14753  0.95589  0.79174  Biso   1.000  H
  C40      1.0000 0.00319  0.28403  0.82983  Biso   1.000  C
  N24      1.0000 0.90466  0.21940  0.85890  Biso   1.000  N
  H33      1.0000 0.66189  0.15152  0.92974  Biso   1.000  H
  H34      1.0000 0.66760  0.01571  0.98069  Biso   1.000  H
  H35      1.0000 0.74525  0.10106  0.02309  Biso   1.000  H
  H36      1.0000 0.96406  0.37123  0.83694  Biso   1.000  H
