data_image0
_cell_length_a       16.027
_cell_length_b       20.083
_cell_length_c       23.921
_cell_angle_alpha    90
_cell_angle_beta     101.06
_cell_angle_gamma    90

_symmetry_space_group_name_H-M    "P 1"
_symmetry_int_tables_number       1

loop_
  _symmetry_equiv_pos_as_xyz
  'x, y, z'

loop_
  _atom_site_label
  _atom_site_occupancy
  _atom_site_fract_x
  _atom_site_fract_y
  _atom_site_fract_z
  _atom_site_thermal_displace_type
  _atom_site_B_iso_or_equiv
  _atom_site_type_symbol
  C1       1.0000 0.57614  0.52761  0.59749  Biso   1.000  C
  C2       1.0000 0.56594  0.58801  0.56950  Biso   1.000  C
  C3       1.0000 0.60632  0.52432  0.65559  Biso   1.000  C
  H1       1.0000 0.56241  0.48852  0.57700  Biso   1.000  H
  C4       1.0000 0.58385  0.64711  0.59740  Biso   1.000  C
  H2       1.0000 0.54624  0.58841  0.53031  Biso   1.000  H
  C5       1.0000 0.62232  0.58338  0.68468  Biso   1.000  C
  C6       1.0000 0.62190  0.45880  0.68779  Biso   1.000  C
  C7       1.0000 0.57446  0.71478  0.56809  Biso   1.000  C
  C8       1.0000 0.61204  0.64348  0.65661  Biso   1.000  C
  H3       1.0000 0.64044  0.58268  0.72399  Biso   1.000  H
  H4       1.0000 0.64153  0.46761  0.72757  Biso   1.000  H
  H5       1.0000 0.56990  0.43380  0.68268  Biso   1.000  H
  H6       1.0000 0.66414  0.43360  0.67339  Biso   1.000  H
  C9       1.0000 0.53631  0.71070  0.50459  Biso   1.000  C
  C10      1.0000 0.65545  0.75611  0.58138  Biso   1.000  C
  H7       1.0000 0.53256  0.73898  0.58518  Biso   1.000  H
  H8       1.0000 0.62402  0.68272  0.67731  Biso   1.000  H
  C11      1.0000 0.58604  0.72071  0.46361  Biso   1.000  C
  C12      1.0000 0.45134  0.69760  0.48631  Biso   1.000  C
  C13      1.0000 0.64871  0.82562  0.57657  Biso   1.000  C
  C14      1.0000 0.73512  0.72912  0.59987  Biso   1.000  C
  C15      1.0000 0.55194  0.71991  0.40508  Biso   1.000  C
  H9       1.0000 0.64408  0.72818  0.47541  Biso   1.000  H
  C16      1.0000 0.41496  0.69611  0.42898  Biso   1.000  C
  O1       1.0000 0.40202  0.68919  0.52695  Biso   1.000  O
  O2       1.0000 0.57155  0.85281  0.55966  Biso   1.000  O
  C17      1.0000 0.72162  0.86471  0.59020  Biso   1.000  C
  H10      1.0000 0.74016  0.68302  0.60200  Biso   1.000  H
  C18      1.0000 0.80894  0.76742  0.61559  Biso   1.000  C
  C19      1.0000 0.60559  0.73550  0.36061  Biso   1.000  C
  C20      1.0000 0.46569  0.70781  0.38911  Biso   1.000  C
  H11      1.0000 0.35723  0.68730  0.41739  Biso   1.000  H
  H12      1.0000 0.35273  0.68192  0.51127  Biso   1.000  H
  H13      1.0000 0.57603  0.89339  0.55851  Biso   1.000  H
  H14      1.0000 0.71723  0.91062  0.58598  Biso   1.000  H
  C21      1.0000 0.80054  0.83628  0.61001  Biso   1.000  C
  C22      1.0000 0.89351  0.73560  0.64008  Biso   1.000  C
  C23      1.0000 0.61755  0.67769  0.32130  Biso   1.000  C
  C24      1.0000 0.69084  0.76732  0.38421  Biso   1.000  C
  H15      1.0000 0.57337  0.76921  0.33569  Biso   1.000  H
  O3       1.0000 0.43116  0.70980  0.33126  Biso   1.000  O
  O4       1.0000 0.87181  0.87412  0.62620  Biso   1.000  O
  C25      1.0000 0.94757  0.71971  0.59548  Biso   1.000  C
  H16      1.0000 0.92550  0.76911  0.66530  Biso   1.000  H
  C26      1.0000 0.88165  0.67719  0.67820  Biso   1.000  C
  C27      1.0000 0.60168  0.61301  0.33301  Biso   1.000  C
  C28      1.0000 0.65180  0.69078  0.27291  Biso   1.000  C
  C29      1.0000 0.76477  0.72972  0.39989  Biso   1.000  C
  C30      1.0000 0.69923  0.83638  0.39017  Biso   1.000  C
  H17      1.0000 0.38006  0.70199  0.32628  Biso   1.000  H
  H18      1.0000 0.85934  0.91371  0.62228  Biso   1.000  H
  C31      1.0000 0.91383  0.72101  0.53738  Biso   1.000  C
  C32      1.0000 0.03396  0.70791  0.61239  Biso   1.000  C
  C33      1.0000 0.89875  0.61271  0.66687  Biso   1.000  C
  C34      1.0000 0.84751  0.68999  0.72698  Biso   1.000  C
  C35      1.0000 0.61700  0.56162  0.29651  Biso   1.000  C
  H19      1.0000 0.58048  0.60280  0.36551  Biso   1.000  H
  C36      1.0000 0.66768  0.64079  0.23709  Biso   1.000  C
  H20      1.0000 0.66417  0.73450  0.26469  Biso   1.000  H
  C37      1.0000 0.84548  0.75681  0.41871  Biso   1.000  C
  H21      1.0000 0.76006  0.68361  0.39780  Biso   1.000  H
  O5       1.0000 0.62774  0.87382  0.37390  Biso   1.000  O
  C38      1.0000 0.77758  0.86521  0.41019  Biso   1.000  C
  C39      1.0000 0.96296  0.71040  0.49538  Biso   1.000  C
  H22      1.0000 0.85605  0.72942  0.52580  Biso   1.000  H
  C40      1.0000 0.08451  0.69591  0.57278  Biso   1.000  C
  O6       1.0000 0.06892  0.70961  0.66913  Biso   1.000  O
  H23      1.0000 0.92122  0.60250  0.63488  Biso   1.000  H
  C41      1.0000 0.88282  0.56172  0.70321  Biso   1.000  C
  C42      1.0000 0.83164  0.63910  0.76178  Biso   1.000  C
  H24      1.0000 0.83565  0.73361  0.73588  Biso   1.000  H
  H25      1.0000 0.60398  0.51780  0.30422  Biso   1.000  H
  C43      1.0000 0.65116  0.57581  0.24910  Biso   1.000  C
  H26      1.0000 0.68939  0.65090  0.20480  Biso   1.000  H
  C44      1.0000 0.84996  0.82562  0.42348  Biso   1.000  C
  C45      1.0000 0.92565  0.71468  0.43179  Biso   1.000  C
  H27      1.0000 0.63986  0.91341  0.37808  Biso   1.000  H
  H28      1.0000 0.78186  0.91112  0.41488  Biso   1.000  H
  C46      1.0000 0.04902  0.69800  0.51421  Biso   1.000  C
  H29      1.0000 0.14192  0.68650  0.58479  Biso   1.000  H
  H30      1.0000 0.12024  0.70288  0.67360  Biso   1.000  H
  H31      1.0000 0.89523  0.51800  0.69469  Biso   1.000  H
  C47      1.0000 0.84891  0.57422  0.75168  Biso   1.000  C
  H32      1.0000 0.80812  0.64921  0.79338  Biso   1.000  H
  C48      1.0000 0.66879  0.51910  0.21000  Biso   1.000  C
  O7       1.0000 0.92854  0.85271  0.44056  Biso   1.000  O
  H33      1.0000 0.96796  0.73878  0.41501  Biso   1.000  H
  C49      1.0000 0.91636  0.64682  0.40240  Biso   1.000  C
  O8       1.0000 0.09742  0.68909  0.47341  Biso   1.000  O
  C50      1.0000 0.83082  0.51860  0.79049  Biso   1.000  C
  H34      1.0000 0.69087  0.53732  0.17860  Biso   1.000  H
  H35      1.0000 0.70955  0.48902  0.23099  Biso   1.000  H
  H36      1.0000 0.61690  0.49559  0.19568  Biso   1.000  H
  H37      1.0000 0.92457  0.89339  0.44108  Biso   1.000  H
  C51      1.0000 0.93419  0.58721  0.43021  Biso   1.000  C
  C52      1.0000 0.88835  0.64388  0.34379  Biso   1.000  C
  H38      1.0000 0.14713  0.68302  0.48878  Biso   1.000  H
  H39      1.0000 0.84610  0.47662  0.77609  Biso   1.000  H
  H40      1.0000 0.86361  0.52552  0.82810  Biso   1.000  H
  H41      1.0000 0.77141  0.51840  0.79198  Biso   1.000  H
  H42      1.0000 0.95442  0.58701  0.46927  Biso   1.000  H
  C53      1.0000 0.92236  0.52711  0.40091  Biso   1.000  C
  C54      1.0000 0.87679  0.58462  0.31538  Biso   1.000  C
  H43      1.0000 0.87714  0.68341  0.32338  Biso   1.000  H
  H44      1.0000 0.93426  0.48758  0.42110  Biso   1.000  H
  C55      1.0000 0.89365  0.52442  0.34311  Biso   1.000  C
  H45      1.0000 0.85695  0.58482  0.27619  Biso   1.000  H
  C56      1.0000 0.87857  0.45860  0.31180  Biso   1.000  C
  H46      1.0000 0.85928  0.46671  0.27189  Biso   1.000  H
  H47      1.0000 0.93068  0.43370  0.31751  Biso   1.000  H
  H48      1.0000 0.83617  0.43370  0.32628  Biso   1.000  H
  C57      1.0000 0.42378  0.47239  0.40248  Biso   1.000  C
  C58      1.0000 0.43393  0.41199  0.43051  Biso   1.000  C
  C59      1.0000 0.39355  0.47568  0.34438  Biso   1.000  C
  H49      1.0000 0.43746  0.51148  0.42301  Biso   1.000  H
  C60      1.0000 0.41608  0.35289  0.40261  Biso   1.000  C
  H50      1.0000 0.45364  0.41159  0.46970  Biso   1.000  H
  C61      1.0000 0.37754  0.41662  0.31529  Biso   1.000  C
  C62      1.0000 0.37796  0.54120  0.31218  Biso   1.000  C
  C63      1.0000 0.42546  0.28522  0.43187  Biso   1.000  C
  C64      1.0000 0.38784  0.35652  0.34340  Biso   1.000  C
  H51      1.0000 0.35948  0.41732  0.27598  Biso   1.000  H
  H52      1.0000 0.35840  0.53239  0.27240  Biso   1.000  H
  H53      1.0000 0.42996  0.56620  0.31729  Biso   1.000  H
  H54      1.0000 0.33579  0.56640  0.32658  Biso   1.000  H
  C65      1.0000 0.34447  0.24389  0.41859  Biso   1.000  C
  C66      1.0000 0.46355  0.28930  0.49538  Biso   1.000  C
  H55      1.0000 0.46737  0.26102  0.41479  Biso   1.000  H
  H56      1.0000 0.37586  0.31728  0.32270  Biso   1.000  H
  C67      1.0000 0.26474  0.27088  0.40010  Biso   1.000  C
  C68      1.0000 0.35115  0.17438  0.42340  Biso   1.000  C
  C69      1.0000 0.41383  0.27929  0.53640  Biso   1.000  C
  C70      1.0000 0.54853  0.30240  0.51370  Biso   1.000  C
  C71      1.0000 0.19098  0.23258  0.38438  Biso   1.000  C
  H57      1.0000 0.25978  0.31698  0.39801  Biso   1.000  H
  C72      1.0000 0.27825  0.13529  0.40981  Biso   1.000  C
  O9       1.0000 0.42837  0.14719  0.44031  Biso   1.000  O
  C73      1.0000 0.44793  0.28009  0.59489  Biso   1.000  C
  H58      1.0000 0.35586  0.27182  0.52460  Biso   1.000  H
  O10      1.0000 0.59785  0.31081  0.47302  Biso   1.000  O
  C74      1.0000 0.58497  0.30389  0.57099  Biso   1.000  C
  C75      1.0000 0.10635  0.26440  0.35989  Biso   1.000  C
  C76      1.0000 0.19933  0.16372  0.39000  Biso   1.000  C
  H59      1.0000 0.28263  0.08938  0.41398  Biso   1.000  H
  H60      1.0000 0.42385  0.10661  0.44150  Biso   1.000  H
  C77      1.0000 0.39434  0.26450  0.63940  Biso   1.000  C
  C78      1.0000 0.53425  0.29219  0.61090  Biso   1.000  C
  H61      1.0000 0.64713  0.31808  0.48870  Biso   1.000  H
  H62      1.0000 0.64263  0.31270  0.58258  Biso   1.000  H
  C79      1.0000 0.11829  0.32281  0.32181  Biso   1.000  C
  C80      1.0000 0.05236  0.28029  0.40449  Biso   1.000  C
  H63      1.0000 0.07437  0.23089  0.33471  Biso   1.000  H
  O11      1.0000 0.12806  0.12588  0.37382  Biso   1.000  O
  C81      1.0000 0.30903  0.23268  0.61580  Biso   1.000  C
  H64      1.0000 0.42655  0.23079  0.66428  Biso   1.000  H
  C82      1.0000 0.38232  0.32231  0.67867  Biso   1.000  C
  O12      1.0000 0.56872  0.29020  0.66875  Biso   1.000  O
  C83      1.0000 0.15235  0.31001  0.27299  Biso   1.000  C
  C84      1.0000 0.10118  0.38729  0.33310  Biso   1.000  C
  C85      1.0000 0.08603  0.27899  0.46259  Biso   1.000  C
  C86      1.0000 0.96597  0.29209  0.38758  Biso   1.000  C
  H65      1.0000 0.14059  0.08629  0.37769  Biso   1.000  H
  C87      1.0000 0.23515  0.27028  0.60008  Biso   1.000  C
  C88      1.0000 0.30064  0.16362  0.60980  Biso   1.000  C
  C89      1.0000 0.39825  0.38699  0.66700  Biso   1.000  C
  C90      1.0000 0.34814  0.30922  0.72710  Biso   1.000  C
  H66      1.0000 0.61980  0.29801  0.67369  Biso   1.000  H
  C91      1.0000 0.16828  0.36090  0.23819  Biso   1.000  C
  H67      1.0000 0.16428  0.26639  0.26409  Biso   1.000  H
  H68      1.0000 0.07864  0.39750  0.36509  Biso   1.000  H
  C92      1.0000 0.11705  0.43828  0.29680  Biso   1.000  C
  H69      1.0000 0.14383  0.27058  0.47421  Biso   1.000  H
  C93      1.0000 0.03697  0.28960  0.50459  Biso   1.000  C
  O13      1.0000 0.93094  0.29039  0.33084  Biso   1.000  O
  C94      1.0000 0.91535  0.30409  0.42719  Biso   1.000  C
  C95      1.0000 0.15446  0.24319  0.58130  Biso   1.000  C
  H70      1.0000 0.23980  0.31639  0.60217  Biso   1.000  H
  C96      1.0000 0.22234  0.13479  0.58978  Biso   1.000  C
  O14      1.0000 0.37213  0.12618  0.62611  Biso   1.000  O
  H71      1.0000 0.41946  0.39720  0.63450  Biso   1.000  H
  C97      1.0000 0.38294  0.43838  0.70351  Biso   1.000  C
  C98      1.0000 0.33224  0.35921  0.76288  Biso   1.000  C
  H72      1.0000 0.33569  0.26550  0.73528  Biso   1.000  H
  C99      1.0000 0.15096  0.42578  0.24829  Biso   1.000  C
  H73      1.0000 0.19180  0.35079  0.20659  Biso   1.000  H
  H74      1.0000 0.10469  0.48200  0.30528  Biso   1.000  H
  C100     1.0000 0.07421  0.28532  0.56818  Biso   1.000  C
  C101     1.0000 0.95085  0.30200  0.48580  Biso   1.000  C
  H75      1.0000 0.87969  0.29712  0.32641  Biso   1.000  H
  H76      1.0000 0.85794  0.31350  0.41518  Biso   1.000  H
  C102     1.0000 0.14996  0.17438  0.57649  Biso   1.000  C
  H77      1.0000 0.21807  0.08888  0.58509  Biso   1.000  H
  H78      1.0000 0.36001  0.08659  0.62189  Biso   1.000  H
  H79      1.0000 0.39595  0.48220  0.69580  Biso   1.000  H
  C103     1.0000 0.34871  0.42419  0.75087  Biso   1.000  C
  H80      1.0000 0.31054  0.34910  0.79517  Biso   1.000  H
  C104     1.0000 0.16905  0.48140  0.20948  Biso   1.000  C
  H81      1.0000 0.03192  0.26122  0.58501  Biso   1.000  H
  C105     1.0000 0.08356  0.35318  0.59757  Biso   1.000  C
  O15      1.0000 0.90244  0.31091  0.52656  Biso   1.000  O
  O16      1.0000 0.07133  0.14729  0.55945  Biso   1.000  O
  C106     1.0000 0.33114  0.48090  0.78997  Biso   1.000  C
  H82      1.0000 0.15376  0.52338  0.22388  Biso   1.000  H
  H83      1.0000 0.13626  0.47448  0.17192  Biso   1.000  H
  H84      1.0000 0.22846  0.48160  0.20799  Biso   1.000  H
  C107     1.0000 0.06575  0.41279  0.56980  Biso   1.000  C
  C108     1.0000 0.11151  0.35612  0.65618  Biso   1.000  C
  H85      1.0000 0.85274  0.31698  0.51119  Biso   1.000  H
  H86      1.0000 0.07536  0.10661  0.55889  Biso   1.000  H
  H87      1.0000 0.30900  0.46268  0.82141  Biso   1.000  H
  H88      1.0000 0.29031  0.51098  0.76897  Biso   1.000  H
  H89      1.0000 0.38303  0.50441  0.80429  Biso   1.000  H
  H90      1.0000 0.04544  0.41299  0.53070  Biso   1.000  H
  C109     1.0000 0.07751  0.47289  0.59910  Biso   1.000  C
  C110     1.0000 0.12314  0.41538  0.68459  Biso   1.000  C
  H91      1.0000 0.12272  0.31659  0.67659  Biso   1.000  H
  H92      1.0000 0.06560  0.51242  0.57887  Biso   1.000  H
  C111     1.0000 0.10623  0.47558  0.65691  Biso   1.000  C
  H93      1.0000 0.14291  0.41518  0.72378  Biso   1.000  H
  C112     1.0000 0.12129  0.54140  0.68817  Biso   1.000  C
  H94      1.0000 0.14065  0.53329  0.72808  Biso   1.000  H
  H95      1.0000 0.06926  0.56630  0.68251  Biso   1.000  H
  H96      1.0000 0.16376  0.56630  0.67369  Biso   1.000  H
  C113     1.0000 0.83168  0.86088  0.26179  Biso   1.000  C
  C114     1.0000 0.84755  0.80999  0.22699  Biso   1.000  C
  C115     1.0000 0.84894  0.92581  0.25170  Biso   1.000  C
  H97      1.0000 0.80816  0.85082  0.29340  Biso   1.000  H
  C116     1.0000 0.88168  0.82279  0.17818  Biso   1.000  C
  H98      1.0000 0.83568  0.76642  0.23589  Biso   1.000  H
  C117     1.0000 0.88285  0.93831  0.20318  Biso   1.000  C
  C118     1.0000 0.83085  0.98138  0.29050  Biso   1.000  C
  C119     1.0000 0.89361  0.76438  0.14010  Biso   1.000  C
  C120     1.0000 0.89879  0.88732  0.16689  Biso   1.000  C
  H99      1.0000 0.89527  0.98202  0.19470  Biso   1.000  H
  H100     1.0000 0.86365  0.97451  0.32811  Biso   1.000  H
  H101     1.0000 0.77144  0.98158  0.29199  Biso   1.000  H
  H102     1.0000 0.84620  0.02340  0.27610  Biso   1.000  H
  C121     1.0000 0.80898  0.73261  0.11560  Biso   1.000  C
  C122     1.0000 0.94760  0.78031  0.09550  Biso   1.000  C
  H103     1.0000 0.92560  0.73092  0.16531  Biso   1.000  H
  H104     1.0000 0.92126  0.89748  0.13490  Biso   1.000  H
  C123     1.0000 0.80057  0.66370  0.10998  Biso   1.000  C
  C124     1.0000 0.73516  0.77090  0.09989  Biso   1.000  C
  C125     1.0000 0.91387  0.77902  0.03740  Biso   1.000  C
  C126     1.0000 0.03400  0.79211  0.11241  Biso   1.000  C
  C127     1.0000 0.72172  0.63531  0.09022  Biso   1.000  C
  O17      1.0000 0.87190  0.62590  0.12617  Biso   1.000  O
  C128     1.0000 0.65549  0.74391  0.08140  Biso   1.000  C
  H105     1.0000 0.74020  0.81701  0.10202  Biso   1.000  H
  H106     1.0000 0.85608  0.77060  0.02581  Biso   1.000  H
  C129     1.0000 0.96292  0.78962  0.99536  Biso   1.000  C
  O18      1.0000 0.06896  0.79042  0.16915  Biso   1.000  O
  C130     1.0000 0.08461  0.80411  0.07280  Biso   1.000  C
  C131     1.0000 0.64881  0.67440  0.07659  Biso   1.000  C
  H107     1.0000 0.71727  0.58940  0.08600  Biso   1.000  H
  H108     1.0000 0.85937  0.58632  0.12229  Biso   1.000  H
  C132     1.0000 0.57450  0.78519  0.06811  Biso   1.000  C
  C133     1.0000 0.92562  0.78529  0.93176  Biso   1.000  C
  C134     1.0000 0.04911  0.80202  0.01418  Biso   1.000  C
  H109     1.0000 0.12028  0.79709  0.17362  Biso   1.000  H
  H110     1.0000 0.14202  0.81352  0.08481  Biso   1.000  H
  O19      1.0000 0.57159  0.64721  0.05968  Biso   1.000  O
  C135     1.0000 0.53641  0.78932  0.00460  Biso   1.000  C
  H111     1.0000 0.53260  0.76099  0.08519  Biso   1.000  H
  C136     1.0000 0.58389  0.85291  0.09742  Biso   1.000  C
  C137     1.0000 0.84538  0.74322  0.91869  Biso   1.000  C
  H112     1.0000 0.96792  0.76119  0.91498  Biso   1.000  H
  C138     1.0000 0.91633  0.85321  0.90237  Biso   1.000  C
  O20      1.0000 0.09739  0.81088  0.97338  Biso   1.000  O
  H113     1.0000 0.57611  0.60658  0.05848  Biso   1.000  H
  C139     1.0000 0.58600  0.77932  0.96358  Biso   1.000  C
  C140     1.0000 0.45130  0.80242  0.98628  Biso   1.000  C
  C141     1.0000 0.61206  0.85650  0.15658  Biso   1.000  C
  C142     1.0000 0.56598  0.91202  0.06952  Biso   1.000  C
  C143     1.0000 0.76468  0.77030  0.89986  Biso   1.000  C
  C144     1.0000 0.84992  0.67440  0.92346  Biso   1.000  C
  C145     1.0000 0.93409  0.91281  0.93019  Biso   1.000  C
  C146     1.0000 0.88832  0.85610  0.84376  Biso   1.000  C
  H114     1.0000 0.14709  0.81701  0.98875  Biso   1.000  H
  C147     1.0000 0.55190  0.78011  0.90505  Biso   1.000  C
  H115     1.0000 0.64398  0.77180  0.97538  Biso   1.000  H
  O21      1.0000 0.40212  0.81079  0.02696  Biso   1.000  O
  C148     1.0000 0.41493  0.80391  0.92899  Biso   1.000  C
  H116     1.0000 0.62411  0.81731  0.17728  Biso   1.000  H
  C149     1.0000 0.62236  0.91660  0.18469  Biso   1.000  C
  C150     1.0000 0.57618  0.97241  0.09750  Biso   1.000  C
  H117     1.0000 0.54626  0.91162  0.03029  Biso   1.000  H
  C151     1.0000 0.69080  0.73271  0.88418  Biso   1.000  C
  H118     1.0000 0.76002  0.81641  0.89777  Biso   1.000  H
  C152     1.0000 0.77749  0.63482  0.91017  Biso   1.000  C
  O22      1.0000 0.92850  0.64731  0.94054  Biso   1.000  O
  H119     1.0000 0.95439  0.91301  0.96929  Biso   1.000  H
  C153     1.0000 0.92233  0.97291  0.90088  Biso   1.000  C
  C154     1.0000 0.87670  0.91540  0.81539  Biso   1.000  C
  H120     1.0000 0.87711  0.81661  0.82336  Biso   1.000  H
  C155     1.0000 0.46559  0.79221  0.88908  Biso   1.000  C
  C156     1.0000 0.60549  0.76448  0.86059  Biso   1.000  C
  H121     1.0000 0.35277  0.81810  0.01129  Biso   1.000  H
  H122     1.0000 0.35720  0.81268  0.91736  Biso   1.000  H
  H123     1.0000 0.64048  0.91729  0.22401  Biso   1.000  H
  C157     1.0000 0.60635  0.97570  0.15560  Biso   1.000  C
  H124     1.0000 0.56251  0.01150  0.07701  Biso   1.000  H
  C158     1.0000 0.69920  0.66360  0.89019  Biso   1.000  C
  H125     1.0000 0.78183  0.58891  0.91489  Biso   1.000  H
  H126     1.0000 0.92448  0.60658  0.94109  Biso   1.000  H
  C159     1.0000 0.89361  0.97560  0.84308  Biso   1.000  C
  H127     1.0000 0.93422  0.01240  0.92107  Biso   1.000  H
  H128     1.0000 0.85692  0.91520  0.77616  Biso   1.000  H
  O23      1.0000 0.43112  0.79022  0.83124  Biso   1.000  O
  H129     1.0000 0.57334  0.73082  0.83567  Biso   1.000  H
  C160     1.0000 0.61751  0.82229  0.82127  Biso   1.000  C
  C161     1.0000 0.62200  0.04118  0.18780  Biso   1.000  C
  O24      1.0000 0.62770  0.62620  0.87388  Biso   1.000  O
  C162     1.0000 0.87853  0.04138  0.81177  Biso   1.000  C
  H130     1.0000 0.38004  0.79799  0.82630  Biso   1.000  H
  C163     1.0000 0.60165  0.88702  0.83298  Biso   1.000  C
  C164     1.0000 0.65170  0.80919  0.77288  Biso   1.000  C
  H131     1.0000 0.64157  0.03242  0.22759  Biso   1.000  H
  H132     1.0000 0.57000  0.06618  0.18269  Biso   1.000  H
  H133     1.0000 0.66418  0.06642  0.17341  Biso   1.000  H
  H134     1.0000 0.63983  0.58662  0.87809  Biso   1.000  H
  H135     1.0000 0.85924  0.03331  0.77186  Biso   1.000  H
  H136     1.0000 0.93064  0.06632  0.81748  Biso   1.000  H
  H137     1.0000 0.83614  0.06632  0.82630  Biso   1.000  H
  H138     1.0000 0.58044  0.89718  0.86548  Biso   1.000  H
  C165     1.0000 0.61690  0.93841  0.79648  Biso   1.000  C
  C166     1.0000 0.66765  0.85918  0.73706  Biso   1.000  C
  H139     1.0000 0.66413  0.76552  0.76466  Biso   1.000  H
  H140     1.0000 0.60395  0.98222  0.80419  Biso   1.000  H
  C167     1.0000 0.65112  0.92421  0.74907  Biso   1.000  C
  H141     1.0000 0.68935  0.84908  0.70477  Biso   1.000  H
  C168     1.0000 0.66875  0.98088  0.70997  Biso   1.000  C
  H142     1.0000 0.69083  0.96270  0.67858  Biso   1.000  H
  H143     1.0000 0.70952  0.01100  0.73097  Biso   1.000  H
  H144     1.0000 0.61681  0.00438  0.69570  Biso   1.000  H
  C169     1.0000 0.16824  0.13912  0.73818  Biso   1.000  C
  C170     1.0000 0.15092  0.07419  0.74827  Biso   1.000  C
  H145     1.0000 0.19170  0.14918  0.70657  Biso   1.000  H
  C171     1.0000 0.15231  0.19001  0.77298  Biso   1.000  C
  C172     1.0000 0.11702  0.06169  0.79679  Biso   1.000  C
  C173     1.0000 0.16901  0.01862  0.70947  Biso   1.000  C
  C174     1.0000 0.11818  0.17721  0.82179  Biso   1.000  C
  H146     1.0000 0.16424  0.23358  0.76408  Biso   1.000  H
  C175     1.0000 0.10114  0.11268  0.83308  Biso   1.000  C
  H147     1.0000 0.10461  0.01798  0.80531  Biso   1.000  H
  H148     1.0000 0.13623  0.02549  0.67190  Biso   1.000  H
  H149     1.0000 0.22842  0.01842  0.70798  Biso   1.000  H
  H150     1.0000 0.15374  0.97660  0.72391  Biso   1.000  H
  C176     1.0000 0.10631  0.23562  0.85987  Biso   1.000  C
  H151     1.0000 0.07860  0.10252  0.86507  Biso   1.000  H
  C177     1.0000 0.05232  0.21969  0.90447  Biso   1.000  C
  C178     1.0000 0.19090  0.26739  0.88441  Biso   1.000  C
  H152     1.0000 0.07434  0.26908  0.83470  Biso   1.000  H
  C179     1.0000 0.08599  0.22098  0.96257  Biso   1.000  C
  C180     1.0000 0.96588  0.20789  0.88760  Biso   1.000  C
  C181     1.0000 0.26470  0.22910  0.90008  Biso   1.000  C
  C182     1.0000 0.19929  0.33630  0.88999  Biso   1.000  C
  H153     1.0000 0.14379  0.22940  0.97420  Biso   1.000  H
  C183     1.0000 0.03701  0.21038  0.00461  Biso   1.000  C
  O25      1.0000 0.93090  0.20958  0.83082  Biso   1.000  O
  C184     1.0000 0.91531  0.19589  0.92717  Biso   1.000  C
  C185     1.0000 0.34437  0.25609  0.91857  Biso   1.000  C
  H154     1.0000 0.25968  0.18299  0.89800  Biso   1.000  H
  O26      1.0000 0.12802  0.37410  0.87380  Biso   1.000  O
  C186     1.0000 0.27822  0.36469  0.90980  Biso   1.000  C
  C187     1.0000 0.95081  0.19798  0.98579  Biso   1.000  C
  C188     1.0000 0.07431  0.21471  0.06821  Biso   1.000  C
  H155     1.0000 0.87959  0.20291  0.82639  Biso   1.000  H
  H156     1.0000 0.85792  0.18648  0.91520  Biso   1.000  H
  C189     1.0000 0.35112  0.32560  0.92338  Biso   1.000  C
  C190     1.0000 0.42543  0.21481  0.93190  Biso   1.000  C
  H157     1.0000 0.14049  0.41368  0.87768  Biso   1.000  H
  H158     1.0000 0.28259  0.41060  0.91397  Biso   1.000  H
  O27      1.0000 0.90247  0.18912  0.02659  Biso   1.000  O
  C191     1.0000 0.15450  0.25678  0.08133  Biso   1.000  C
  H159     1.0000 0.03200  0.23881  0.08499  Biso   1.000  H
  C192     1.0000 0.08360  0.14679  0.09760  Biso   1.000  C
  O28      1.0000 0.42829  0.35279  0.94034  Biso   1.000  O
  C193     1.0000 0.46351  0.21068  0.99537  Biso   1.000  C
  H160     1.0000 0.46733  0.23901  0.91478  Biso   1.000  H
  C194     1.0000 0.41598  0.14709  0.90260  Biso   1.000  C
  H161     1.0000 0.85277  0.18299  0.01121  Biso   1.000  H
  C195     1.0000 0.15000  0.32560  0.07651  Biso   1.000  C
  C196     1.0000 0.23519  0.22970  0.10011  Biso   1.000  C
  C197     1.0000 0.06579  0.08719  0.06983  Biso   1.000  C
  C198     1.0000 0.11161  0.14390  0.15621  Biso   1.000  C
  H162     1.0000 0.42381  0.39342  0.94149  Biso   1.000  H
  C199     1.0000 0.41387  0.22068  0.03643  Biso   1.000  C
  C200     1.0000 0.54863  0.19758  0.01373  Biso   1.000  C
  C201     1.0000 0.38780  0.14350  0.84339  Biso   1.000  C
  C202     1.0000 0.43389  0.08798  0.93050  Biso   1.000  C
  O29      1.0000 0.07137  0.35269  0.05948  Biso   1.000  O
  C203     1.0000 0.22238  0.36518  0.08980  Biso   1.000  C
  H163     1.0000 0.23990  0.18359  0.10220  Biso   1.000  H
  C204     1.0000 0.30907  0.26729  0.11583  Biso   1.000  C
  H164     1.0000 0.04548  0.08699  0.03072  Biso   1.000  H
  C205     1.0000 0.07761  0.02709  0.09913  Biso   1.000  C
  C206     1.0000 0.12318  0.08460  0.18462  Biso   1.000  C
  H165     1.0000 0.12275  0.18339  0.17661  Biso   1.000  H
  C207     1.0000 0.44796  0.21989  0.09491  Biso   1.000  C
  H166     1.0000 0.35590  0.22820  0.02463  Biso   1.000  H
  O30      1.0000 0.59781  0.18921  0.97301  Biso   1.000  O
  C208     1.0000 0.58500  0.19609  0.07102  Biso   1.000  C
  H167     1.0000 0.37582  0.18269  0.82269  Biso   1.000  H
  C209     1.0000 0.37750  0.08340  0.81528  Biso   1.000  C
  C210     1.0000 0.42368  0.02759  0.90247  Biso   1.000  C
  H168     1.0000 0.45360  0.08838  0.96968  Biso   1.000  H
  H169     1.0000 0.07539  0.39342  0.05892  Biso   1.000  H
  H170     1.0000 0.21810  0.41109  0.08512  Biso   1.000  H
  C211     1.0000 0.30067  0.33640  0.10982  Biso   1.000  C
  C212     1.0000 0.39438  0.23552  0.13943  Biso   1.000  C
  H171     1.0000 0.06570  0.98760  0.07890  Biso   1.000  H
  C213     1.0000 0.10625  0.02440  0.15689  Biso   1.000  C
  H172     1.0000 0.14294  0.08480  0.22381  Biso   1.000  H
  C214     1.0000 0.53428  0.20779  0.11093  Biso   1.000  C
  H173     1.0000 0.64709  0.18190  0.98868  Biso   1.000  H
  H174     1.0000 0.64267  0.18732  0.08260  Biso   1.000  H
  H175     1.0000 0.35939  0.08271  0.77600  Biso   1.000  H
  C215     1.0000 0.39351  0.02430  0.84437  Biso   1.000  C
  H176     1.0000 0.43742  0.98850  0.92300  Biso   1.000  H
  O31      1.0000 0.37216  0.37380  0.12609  Biso   1.000  O
  H177     1.0000 0.42659  0.26918  0.16430  Biso   1.000  H
  C216     1.0000 0.38235  0.17771  0.17870  Biso   1.000  C
  C217     1.0000 0.12139  0.95862  0.18820  Biso   1.000  C
  O32      1.0000 0.56875  0.20978  0.16878  Biso   1.000  O
  C218     1.0000 0.37794  0.95882  0.81221  Biso   1.000  C
  H178     1.0000 0.36011  0.41338  0.12192  Biso   1.000  H
  C219     1.0000 0.39829  0.11298  0.16703  Biso   1.000  C
  C220     1.0000 0.34816  0.19081  0.22709  Biso   1.000  C
  H179     1.0000 0.14068  0.96669  0.22811  Biso   1.000  H
  H180     1.0000 0.06928  0.93368  0.18249  Biso   1.000  H
  H181     1.0000 0.16379  0.93368  0.17372  Biso   1.000  H
  H182     1.0000 0.61990  0.20201  0.17372  Biso   1.000  H
  H183     1.0000 0.35830  0.96758  0.77238  Biso   1.000  H
  H184     1.0000 0.42993  0.93382  0.81728  Biso   1.000  H
  H185     1.0000 0.33570  0.93358  0.82661  Biso   1.000  H
  H186     1.0000 0.41950  0.10282  0.13453  Biso   1.000  H
  C221     1.0000 0.38296  0.06159  0.20349  Biso   1.000  C
  C222     1.0000 0.33228  0.14082  0.26291  Biso   1.000  C
  H187     1.0000 0.33579  0.23448  0.23531  Biso   1.000  H
  H188     1.0000 0.39599  0.01778  0.19582  Biso   1.000  H
  C223     1.0000 0.34874  0.07579  0.25090  Biso   1.000  C
  H189     1.0000 0.31057  0.15092  0.29520  Biso   1.000  H
  C224     1.0000 0.33117  0.01912  0.29000  Biso   1.000  C
  H190     1.0000 0.29035  0.98900  0.26900  Biso   1.000  H
  H191     1.0000 0.38307  0.99562  0.30431  Biso   1.000  H
  H192     1.0000 0.30909  0.03730  0.32139  Biso   1.000  H
