data_image0
_cell_length_a       13.856
_cell_length_b       13.868
_cell_length_c       14.776
_cell_angle_alpha    83.16
_cell_angle_beta     86.48
_cell_angle_gamma    69.66

_symmetry_space_group_name_H-M    "P 1"
_symmetry_int_tables_number       1

loop_
  _symmetry_equiv_pos_as_xyz
  'x, y, z'

loop_
  _atom_site_label
  _atom_site_occupancy
  _atom_site_fract_x
  _atom_site_fract_y
  _atom_site_fract_z
  _atom_site_thermal_displace_type
  _atom_site_B_iso_or_equiv
  _atom_site_type_symbol
  C1       1.0000 0.68076  0.51283  0.63972  Biso   1.000  C
  C2       1.0000 0.67093  0.43509  0.72017  Biso   1.000  C
  C3       1.0000 0.79338  0.50510  0.61415  Biso   1.000  C
  H1       1.0000 0.64867  0.50153  0.58579  Biso   1.000  H
  H2       1.0000 0.64172  0.58373  0.65533  Biso   1.000  H
  C4       1.0000 0.56905  0.48325  0.76803  Biso   1.000  C
  H3       1.0000 0.72811  0.41973  0.76285  Biso   1.000  H
  H4       1.0000 0.67393  0.36969  0.69774  Biso   1.000  H
  C5       1.0000 0.79308  0.58834  0.53793  Biso   1.000  C
  C6       1.0000 0.84454  0.51718  0.69780  Biso   1.000  C
  C7       1.0000 0.85231  0.39867  0.58163  Biso   1.000  C
  N1       1.0000 0.49076  0.45400  0.74362  Biso   1.000  N
  O1       1.0000 0.55943  0.54717  0.82114  Biso   1.000  O
  C8       1.0000 0.85505  0.58669  0.46225  Biso   1.000  C
  N2       1.0000 0.72266  0.68737  0.53615  Biso   1.000  N
  C9       1.0000 0.93524  0.45698  0.73789  Biso   1.000  C
  N3       1.0000 0.79840  0.59632  0.75160  Biso   1.000  N
  H5       1.0000 0.92334  0.39387  0.56499  Biso   1.000  H
  H6       1.0000 0.85267  0.34440  0.63072  Biso   1.000  H
  H7       1.0000 0.81860  0.38983  0.52831  Biso   1.000  H
  C10      1.0000 0.38739  0.48714  0.77287  Biso   1.000  C
  H8       1.0000 0.50743  0.40793  0.70401  Biso   1.000  H
  Li1      1.0000 0.44270  0.66374  0.84595  Biso   1.000  Li
  H9       1.0000 0.91124  0.52880  0.44520  Biso   1.000  H
  C11      1.0000 0.82084  0.68677  0.41330  Biso   1.000  C
  C12      1.0000 0.73882  0.74742  0.45966  Biso   1.000  C
  H10      1.0000 0.67429  0.70903  0.57795  Biso   1.000  H
  C13      1.0000 0.94381  0.50111  0.81787  Biso   1.000  C
  H11      1.0000 0.98374  0.39657  0.71621  Biso   1.000  H
  C14      1.0000 0.85842  0.58692  0.82516  Biso   1.000  C
  H12      1.0000 0.73896  0.64587  0.74042  Biso   1.000  H
  C15      1.0000 0.32324  0.44219  0.73810  Biso   1.000  C
  N4       1.0000 0.35532  0.55948  0.83082  Biso   1.000  N
  O2       1.0000 0.29333  0.77475  0.83327  Biso   1.000  O
  O3       1.0000 0.45853  0.71886  0.95388  Biso   1.000  O
  H13      1.0000 0.85021  0.70756  0.35794  Biso   1.000  H
  C16      1.0000 0.66877  0.85888  0.43798  Biso   1.000  C
  H14      1.0000 0.99929  0.47539  0.85905  Biso   1.000  H
  C17      1.0000 0.82652  0.66486  0.89491  Biso   1.000  C
  H15      1.0000 0.34921  0.39109  0.69685  Biso   1.000  H
  C18      1.0000 0.22200  0.47394  0.76550  Biso   1.000  C
  C19      1.0000 0.25545  0.58714  0.85898  Biso   1.000  C
  C20      1.0000 0.23718  0.75809  0.91093  Biso   1.000  C
  C21      1.0000 0.23629  0.84787  0.76271  Biso   1.000  C
  H16      1.0000 0.42412  0.78273  0.95940  Biso   1.000  H
  C22      1.0000 0.46611  0.66636  0.04326  Biso   1.000  C
  C23      1.0000 0.69715  0.93094  0.49252  Biso   1.000  C
  C24      1.0000 0.68084  0.89112  0.33591  Biso   1.000  C
  C25      1.0000 0.55599  0.86803  0.45748  Biso   1.000  C
  C26      1.0000 0.83607  0.76666  0.85291  Biso   1.000  C
  C27      1.0000 0.89838  0.62457  0.97597  Biso   1.000  C
  C28      1.0000 0.71609  0.67957  0.93043  Biso   1.000  C
  H17      1.0000 0.17590  0.44633  0.74212  Biso   1.000  H
  C29      1.0000 0.18688  0.54679  0.82762  Biso   1.000  C
  C30      1.0000 0.22118  0.66390  0.92702  Biso   1.000  C
  C31      1.0000 0.20150  0.83248  0.97243  Biso   1.000  C
  H18      1.0000 0.19228  0.91052  0.78889  Biso   1.000  H
  H19      1.0000 0.28397  0.86537  0.71751  Biso   1.000  H
  H20      1.0000 0.19351  0.81791  0.73319  Biso   1.000  H
  H21      1.0000 0.50162  0.69537  0.08206  Biso   1.000  H
  H22      1.0000 0.39689  0.67491  0.06849  Biso   1.000  H
  H23      1.0000 0.50512  0.59268  0.04074  Biso   1.000  H
  N5       1.0000 0.68795  0.92695  0.58592  Biso   1.000  N
  C32      1.0000 0.73323  0.00950  0.46423  Biso   1.000  C
  H24      1.0000 0.66177  0.84586  0.29992  Biso   1.000  H
  H25      1.0000 0.63595  0.96281  0.32091  Biso   1.000  H
  H26      1.0000 0.75265  0.88524  0.32194  Biso   1.000  H
  H27      1.0000 0.54568  0.85151  0.52293  Biso   1.000  H
  H28      1.0000 0.51093  0.93888  0.43852  Biso   1.000  H
  H29      1.0000 0.53916  0.81968  0.42352  Biso   1.000  H
  C33      1.0000 0.91259  0.80753  0.85714  Biso   1.000  C
  N6       1.0000 0.76018  0.83781  0.79959  Biso   1.000  N
  H30      1.0000 0.96896  0.61724  0.95545  Biso   1.000  H
  H31      1.0000 0.87619  0.67362  0.02220  Biso   1.000  H
  H32      1.0000 0.89590  0.55724  0.00229  Biso   1.000  H
  H33      1.0000 0.66876  0.70348  0.87923  Biso   1.000  H
  H34      1.0000 0.71308  0.61353  0.96015  Biso   1.000  H
  H35      1.0000 0.69610  0.73104  0.97440  Biso   1.000  H
  H36      1.0000 0.11704  0.56857  0.84820  Biso   1.000  H
  C34      1.0000 0.16960  0.64416  0.00733  Biso   1.000  C
  C35      1.0000 0.21818  0.93335  0.95320  Biso   1.000  C
  C36      1.0000 0.14836  0.81133  0.05097  Biso   1.000  C
  H37      1.0000 0.66624  0.88234  0.62104  Biso   1.000  H
  C37      1.0000 0.71704  0.00215  0.61722  Biso   1.000  C
  H38      1.0000 0.74754  0.03055  0.40280  Biso   1.000  H
  C38      1.0000 0.74596  0.05446  0.54236  Biso   1.000  C
  C39      1.0000 0.88115  0.90658  0.80655  Biso   1.000  C
  H39      1.0000 0.97547  0.77521  0.88850  Biso   1.000  H
  C40      1.0000 0.78660  0.92419  0.77150  Biso   1.000  C
  H40      1.0000 0.70299  0.82957  0.78541  Biso   1.000  H
  H41      1.0000 0.15913  0.57963  0.01974  Biso   1.000  H
  C41      1.0000 0.13367  0.71700  0.06890  Biso   1.000  C
  N7       1.0000 0.31555  0.92991  0.93615  Biso   1.000  N
  C42      1.0000 0.13576  0.02530  0.95081  Biso   1.000  C
  H42      1.0000 0.12211  0.86191  0.09269  Biso   1.000  H
  C43      1.0000 0.71420  0.01807  0.71717  Biso   1.000  C
  H43      1.0000 0.77024  0.11059  0.54249  Biso   1.000  H
  H44      1.0000 0.91910  0.95253  0.79843  Biso   1.000  H
  H45      1.0000 0.09881  0.70240  0.12337  Biso   1.000  H
  C44      1.0000 0.33160  0.01960  0.91325  Biso   1.000  C
  H46      1.0000 0.06801  0.02544  0.96520  Biso   1.000  H
  C45      1.0000 0.15414  0.11656  0.92702  Biso   1.000  C
  C46      1.0000 0.60243  0.04159  0.75487  Biso   1.000  C
  C47      1.0000 0.74651  0.11197  0.72555  Biso   1.000  C
  C48      1.0000 0.25270  0.11535  0.90738  Biso   1.000  C
  N8       1.0000 0.43527  0.00703  0.89470  Biso   1.000  N
  H47      1.0000 0.09838  0.18049  0.92422  Biso   1.000  H
  C49      1.0000 0.59133  0.04654  0.85850  Biso   1.000  C
  H48      1.0000 0.57689  0.98745  0.73932  Biso   1.000  H
  H49      1.0000 0.55840  0.10860  0.72419  Biso   1.000  H
  H50      1.0000 0.69887  0.17336  0.69160  Biso   1.000  H
  H51      1.0000 0.74476  0.12334  0.78991  Biso   1.000  H
  H52      1.0000 0.81648  0.09894  0.70053  Biso   1.000  H
  H53      1.0000 0.26649  0.17766  0.89034  Biso   1.000  H
  C50      1.0000 0.47232  0.08715  0.87861  Biso   1.000  C
  C51      1.0000 0.48699  0.07520  0.89443  Biso   1.000  C
  O4       1.0000 0.42453  0.17918  0.87814  Biso   1.000  O
  O5       1.0000 0.44137  0.15586  0.92443  Biso   1.000  O
  C52      1.0000 0.31929  0.48711  0.36025  Biso   1.000  C
  C53      1.0000 0.20674  0.49484  0.38589  Biso   1.000  C
  H54      1.0000 0.35148  0.49833  0.41418  Biso   1.000  H
  H55      1.0000 0.35833  0.41620  0.34471  Biso   1.000  H
  C54      1.0000 0.32912  0.56485  0.27987  Biso   1.000  C
  C55      1.0000 0.15558  0.48276  0.30223  Biso   1.000  C
  C56      1.0000 0.20697  0.41160  0.46211  Biso   1.000  C
  C57      1.0000 0.14774  0.60127  0.41841  Biso   1.000  C
  H56      1.0000 0.27197  0.58013  0.23719  Biso   1.000  H
  H57      1.0000 0.32619  0.63025  0.30230  Biso   1.000  H
  C58      1.0000 0.43107  0.51668  0.23201  Biso   1.000  C
  N9       1.0000 0.20165  0.40361  0.24844  Biso   1.000  N
  C59      1.0000 0.06488  0.54295  0.26215  Biso   1.000  C
  N10      1.0000 0.27746  0.31257  0.46388  Biso   1.000  N
  C60      1.0000 0.14507  0.41324  0.53779  Biso   1.000  C
  H58      1.0000 0.07678  0.60606  0.43505  Biso   1.000  H
  H59      1.0000 0.14738  0.65553  0.36932  Biso   1.000  H
  H60      1.0000 0.18147  0.61002  0.47172  Biso   1.000  H
  N11      1.0000 0.50939  0.54586  0.25642  Biso   1.000  N
  O6       1.0000 0.44069  0.45276  0.17890  Biso   1.000  O
  C61      1.0000 0.14163  0.41302  0.17488  Biso   1.000  C
  H61      1.0000 0.26117  0.35407  0.25962  Biso   1.000  H
  C62      1.0000 0.05626  0.49875  0.18217  Biso   1.000  C
  H62      1.0000 0.01639  0.60337  0.28383  Biso   1.000  H
  C63      1.0000 0.26123  0.25252  0.54038  Biso   1.000  C
  H63      1.0000 0.32584  0.29091  0.42209  Biso   1.000  H
  C64      1.0000 0.17921  0.31316  0.58674  Biso   1.000  C
  H64      1.0000 0.08889  0.47113  0.55483  Biso   1.000  H
  C65      1.0000 0.61276  0.51272  0.22717  Biso   1.000  C
  H65      1.0000 0.49265  0.59192  0.29603  Biso   1.000  H
  Li2      1.0000 0.55742  0.33619  0.15408  Biso   1.000  Li
  C66      1.0000 0.17353  0.33507  0.10513  Biso   1.000  C
  H66      1.0000 0.00076  0.52454  0.14099  Biso   1.000  H
  C67      1.0000 0.33128  0.14106  0.56199  Biso   1.000  C
  H67      1.0000 0.14984  0.29238  0.64210  Biso   1.000  H
  C68      1.0000 0.67681  0.55774  0.26194  Biso   1.000  C
  N12      1.0000 0.64473  0.44045  0.16922  Biso   1.000  N
  O7       1.0000 0.70672  0.22518  0.16676  Biso   1.000  O
  O8       1.0000 0.54154  0.28100  0.04616  Biso   1.000  O
  C69      1.0000 0.16398  0.23328  0.14713  Biso   1.000  C
  C70      1.0000 0.10167  0.37536  0.02407  Biso   1.000  C
  C71      1.0000 0.28403  0.32036  0.06961  Biso   1.000  C
  C72      1.0000 0.30297  0.06900  0.50752  Biso   1.000  C
  C73      1.0000 0.31921  0.10881  0.66412  Biso   1.000  C
  C74      1.0000 0.44414  0.13190  0.54256  Biso   1.000  C
  H68      1.0000 0.65084  0.60884  0.30319  Biso   1.000  H
  C75      1.0000 0.77813  0.52600  0.23453  Biso   1.000  C
  C76      1.0000 0.74460  0.41280  0.14099  Biso   1.000  C
  C77      1.0000 0.76287  0.24184  0.08911  Biso   1.000  C
  C78      1.0000 0.76383  0.15207  0.23733  Biso   1.000  C
  H69      1.0000 0.57600  0.21721  0.04063  Biso   1.000  H
  C79      1.0000 0.53396  0.33350  0.95678  Biso   1.000  C
  N13      1.0000 0.23997  0.16205  0.20044  Biso   1.000  N
  C80      1.0000 0.08754  0.19241  0.14283  Biso   1.000  C
  H70      1.0000 0.03116  0.38270  0.04459  Biso   1.000  H
  H71      1.0000 0.12386  0.32631  0.97784  Biso   1.000  H
  H72      1.0000 0.10422  0.44269  0.99775  Biso   1.000  H
  H73      1.0000 0.33129  0.29646  0.12081  Biso   1.000  H
  H74      1.0000 0.28704  0.38641  0.03988  Biso   1.000  H
  H75      1.0000 0.30403  0.26890  0.02557  Biso   1.000  H
  N14      1.0000 0.31210  0.07299  0.41411  Biso   1.000  N
  C81      1.0000 0.26682  0.99043  0.53581  Biso   1.000  C
  H76      1.0000 0.33835  0.15407  0.70012  Biso   1.000  H
  H77      1.0000 0.36412  0.03705  0.67912  Biso   1.000  H
  H78      1.0000 0.24740  0.11469  0.67810  Biso   1.000  H
  H79      1.0000 0.45437  0.14842  0.47711  Biso   1.000  H
  H80      1.0000 0.48912  0.06106  0.56152  Biso   1.000  H
  H81      1.0000 0.46089  0.18025  0.57651  Biso   1.000  H
  C82      1.0000 0.81324  0.45315  0.17242  Biso   1.000  C
  H82      1.0000 0.82425  0.55353  0.25792  Biso   1.000  H
  C83      1.0000 0.77894  0.33603  0.07302  Biso   1.000  C
  C84      1.0000 0.79855  0.16745  0.02761  Biso   1.000  C
  H83      1.0000 0.80777  0.08943  0.21108  Biso   1.000  H
  H84      1.0000 0.71608  0.13456  0.28253  Biso   1.000  H
  H85      1.0000 0.80657  0.18196  0.26678  Biso   1.000  H
  H86      1.0000 0.49843  0.30457  0.91798  Biso   1.000  H
  H87      1.0000 0.60316  0.32503  0.93155  Biso   1.000  H
  H88      1.0000 0.49496  0.40719  0.95923  Biso   1.000  H
  C85      1.0000 0.21352  0.07575  0.22847  Biso   1.000  C
  H89      1.0000 0.29713  0.17037  0.21462  Biso   1.000  H
  C86      1.0000 0.11890  0.09336  0.19349  Biso   1.000  C
  H90      1.0000 0.02461  0.22466  0.11147  Biso   1.000  H
  C87      1.0000 0.28303  0.99771  0.38282  Biso   1.000  C
  H91      1.0000 0.33381  0.11760  0.37900  Biso   1.000  H
  C88      1.0000 0.25409  0.94547  0.45768  Biso   1.000  C
  H92      1.0000 0.25251  0.96939  0.59724  Biso   1.000  H
  H93      1.0000 0.88301  0.43136  0.15183  Biso   1.000  H
  C89      1.0000 0.83045  0.35577  0.99270  Biso   1.000  C
  C90      1.0000 0.78187  0.06659  0.04684  Biso   1.000  C
  C91      1.0000 0.85177  0.18861  0.94900  Biso   1.000  C
  C92      1.0000 0.28593  0.98188  0.28280  Biso   1.000  C
  H94      1.0000 0.08102  0.04741  0.20160  Biso   1.000  H
  H95      1.0000 0.22981  0.88935  0.45754  Biso   1.000  H
  C93      1.0000 0.86646  0.28293  0.93114  Biso   1.000  C
  H96      1.0000 0.84100  0.42031  0.98023  Biso   1.000  H
  N15      1.0000 0.68450  0.07003  0.06388  Biso   1.000  N
  C94      1.0000 0.86429  0.97463  0.04922  Biso   1.000  C
  H97      1.0000 0.87794  0.13802  0.90735  Biso   1.000  H
  C95      1.0000 0.39762  0.95834  0.24517  Biso   1.000  C
  C96      1.0000 0.25361  0.88797  0.27442  Biso   1.000  C
  H98      1.0000 0.90124  0.29754  0.87667  Biso   1.000  H
  C97      1.0000 0.66845  0.98034  0.08679  Biso   1.000  C
  C98      1.0000 0.84598  0.88338  0.07302  Biso   1.000  C
  H99      1.0000 0.93204  0.97450  0.03477  Biso   1.000  H
  H100     1.0000 0.42316  0.01249  0.26071  Biso   1.000  H
  C99      1.0000 0.40880  0.95340  0.14147  Biso   1.000  C
  H101     1.0000 0.44173  0.89135  0.27578  Biso   1.000  H
  H102     1.0000 0.30118  0.82657  0.30844  Biso   1.000  H
  H103     1.0000 0.25529  0.87659  0.21013  Biso   1.000  H
  H104     1.0000 0.18357  0.90099  0.29951  Biso   1.000  H
  N16      1.0000 0.56479  0.99291  0.10527  Biso   1.000  N
  C100     1.0000 0.74735  0.88459  0.09265  Biso   1.000  C
  H105     1.0000 0.90167  0.81945  0.07581  Biso   1.000  H
  C101     1.0000 0.52780  0.91279  0.12143  Biso   1.000  C
  C102     1.0000 0.51313  0.92474  0.10561  Biso   1.000  C
  H106     1.0000 0.73356  0.82228  0.10970  Biso   1.000  H
  O9       1.0000 0.57560  0.82075  0.12190  Biso   1.000  O
  O10      1.0000 0.55868  0.84408  0.07561  Biso   1.000  O
