data_image0
_cell_length_a       30.584
_cell_length_b       9.147
_cell_length_c       18.617
_cell_angle_alpha    90
_cell_angle_beta     123.31
_cell_angle_gamma    90

_symmetry_space_group_name_H-M    "P 1"
_symmetry_int_tables_number       1

loop_
  _symmetry_equiv_pos_as_xyz
  'x, y, z'

loop_
  _atom_site_label
  _atom_site_occupancy
  _atom_site_fract_x
  _atom_site_fract_y
  _atom_site_fract_z
  _atom_site_thermal_displace_type
  _atom_site_B_iso_or_equiv
  _atom_site_type_symbol
  C1       1.0000 0.38974  0.68722  0.35267  Biso   1.000  C
  N1       1.0000 0.35780  0.61157  0.28081  Biso   1.000  N
  C2       1.0000 0.37207  0.79786  0.37992  Biso   1.000  C
  H1       1.0000 0.42590  0.66350  0.38603  Biso   1.000  H
  C3       1.0000 0.30789  0.65278  0.23871  Biso   1.000  C
  N2       1.0000 0.32180  0.83656  0.33686  Biso   1.000  N
  N3       1.0000 0.40767  0.87799  0.45551  Biso   1.000  N
  H2       1.0000 0.28331  0.60238  0.18729  Biso   1.000  H
  C4       1.0000 0.29007  0.76342  0.26532  Biso   1.000  C
  C5       1.0000 0.41021  0.84465  0.53412  Biso   1.000  C
  C6       1.0000 0.42609  0.00732  0.44567  Biso   1.000  C
  N4       1.0000 0.23607  0.80223  0.21673  Biso   1.000  N
  H3       1.0000 0.44649  0.85165  0.58328  Biso   1.000  H
  H4       1.0000 0.39719  0.74527  0.53058  Biso   1.000  H
  H5       1.0000 0.38860  0.91451  0.54119  Biso   1.000  H
  N5       1.0000 0.41842  0.03028  0.36874  Biso   1.000  N
  C7       1.0000 0.45122  0.11140  0.51078  Biso   1.000  C
  C8       1.0000 0.21560  0.86826  0.13819  Biso   1.000  C
  C9       1.0000 0.20276  0.73838  0.24199  Biso   1.000  C
  C10      1.0000 0.43619  0.15426  0.35627  Biso   1.000  C
  N6       1.0000 0.46869  0.23603  0.49761  Biso   1.000  N
  H6       1.0000 0.45601  0.09369  0.56490  Biso   1.000  H
  N7       1.0000 0.25040  0.91221  0.12051  Biso   1.000  N
  C11      1.0000 0.16201  0.89253  0.08098  Biso   1.000  C
  H7       1.0000 0.17959  0.81382  0.24077  Biso   1.000  H
  H8       1.0000 0.22460  0.69837  0.30029  Biso   1.000  H
  H9       1.0000 0.18170  0.65989  0.20188  Biso   1.000  H
  N8       1.0000 0.42811  0.17306  0.27567  Biso   1.000  N
  C12      1.0000 0.46174  0.26019  0.42086  Biso   1.000  C
  C13      1.0000 0.23229  0.98163  0.04570  Biso   1.000  C
  N9       1.0000 0.14468  0.96556  0.00733  Biso   1.000  N
  H10      1.0000 0.13788  0.85755  0.09410  Biso   1.000  H
  C14      1.0000 0.39876  0.06319  0.21262  Biso   1.000  C
  C15      1.0000 0.43012  0.31934  0.24598  Biso   1.000  C
  H11      1.0000 0.47401  0.34798  0.41052  Biso   1.000  H
  C16      1.0000 0.17911  0.01006  0.98894  Biso   1.000  C
  N10      1.0000 0.26955  0.02154  0.02982  Biso   1.000  N
  N11      1.0000 0.34975  0.09555  0.15111  Biso   1.000  N
  C17      1.0000 0.42178  0.92905  0.21731  Biso   1.000  C
  H12      1.0000 0.40331  0.38122  0.24411  Biso   1.000  H
  H13      1.0000 0.42369  0.31300  0.18839  Biso   1.000  H
  H14      1.0000 0.46469  0.36220  0.28570  Biso   1.000  H
  H15      1.0000 0.16731  0.06122  0.93682  Biso   1.000  H
  C18      1.0000 0.32275  0.98950  0.09390  Biso   1.000  C
  C19      1.0000 0.25819  0.09752  0.95250  Biso   1.000  C
  C20      1.0000 0.39399  0.82650  0.15863  Biso   1.000  C
  H16      1.0000 0.45709  0.91090  0.26211  Biso   1.000  H
  C21      1.0000 0.34386  0.85624  0.09532  Biso   1.000  C
  H17      1.0000 0.22023  0.10058  0.91085  Biso   1.000  H
  H18      1.0000 0.27472  0.04548  0.92743  Biso   1.000  H
  H19      1.0000 0.27190  0.19744  0.96741  Biso   1.000  H
  H20      1.0000 0.40909  0.73423  0.16107  Biso   1.000  H
  H21      1.0000 0.32339  0.78561  0.05219  Biso   1.000  H
  C22      1.0000 0.61028  0.31267  0.64730  Biso   1.000  C
  C23      1.0000 0.62792  0.20214  0.62005  Biso   1.000  C
  N12      1.0000 0.64221  0.38843  0.71922  Biso   1.000  N
  H22      1.0000 0.57411  0.33650  0.61401  Biso   1.000  H
  N13      1.0000 0.59232  0.12201  0.54446  Biso   1.000  N
  N14      1.0000 0.67821  0.16344  0.66318  Biso   1.000  N
  C24      1.0000 0.69212  0.34722  0.76132  Biso   1.000  C
  C25      1.0000 0.58980  0.15524  0.46592  Biso   1.000  C
  C26      1.0000 0.57390  0.99268  0.55430  Biso   1.000  C
  C27      1.0000 0.70993  0.23647  0.73471  Biso   1.000  C
  H23      1.0000 0.71671  0.39762  0.81268  Biso   1.000  H
  H24      1.0000 0.55350  0.14825  0.41669  Biso   1.000  H
  H25      1.0000 0.60280  0.25473  0.46939  Biso   1.000  H
  H26      1.0000 0.61138  0.08538  0.45879  Biso   1.000  H
  N15      1.0000 0.58162  0.96961  0.63130  Biso   1.000  N
  C28      1.0000 0.54879  0.88860  0.48925  Biso   1.000  C
  N16      1.0000 0.76392  0.19766  0.78324  Biso   1.000  N
  C29      1.0000 0.56380  0.84563  0.64370  Biso   1.000  C
  N17      1.0000 0.53132  0.76397  0.50243  Biso   1.000  N
  H27      1.0000 0.54398  0.90631  0.43507  Biso   1.000  H
  C30      1.0000 0.78439  0.13174  0.86178  Biso   1.000  C
  C31      1.0000 0.79723  0.26162  0.75798  Biso   1.000  C
  N18      1.0000 0.57191  0.82683  0.72430  Biso   1.000  N
  C32      1.0000 0.53827  0.73981  0.57917  Biso   1.000  C
  N19      1.0000 0.74961  0.08768  0.87952  Biso   1.000  N
  C33      1.0000 0.83797  0.10736  0.91899  Biso   1.000  C
  H28      1.0000 0.82040  0.18607  0.75920  Biso   1.000  H
  H29      1.0000 0.77539  0.30163  0.69968  Biso   1.000  H
  H30      1.0000 0.81829  0.34011  0.79809  Biso   1.000  H
  C34      1.0000 0.60122  0.93681  0.78735  Biso   1.000  C
  C35      1.0000 0.56987  0.68055  0.75400  Biso   1.000  C
  H31      1.0000 0.52600  0.65202  0.58952  Biso   1.000  H
  C36      1.0000 0.76770  0.01826  0.95427  Biso   1.000  C
  N20      1.0000 0.85533  0.03444  0.99271  Biso   1.000  N
  H32      1.0000 0.86210  0.14234  0.90587  Biso   1.000  H
  C37      1.0000 0.57823  0.07084  0.78273  Biso   1.000  C
  N21      1.0000 0.65025  0.90434  0.84893  Biso   1.000  N
  H33      1.0000 0.59670  0.61878  0.75592  Biso   1.000  H
  H34      1.0000 0.57630  0.68700  0.81159  Biso   1.000  H
  H35      1.0000 0.53530  0.63780  0.71427  Biso   1.000  H
  N22      1.0000 0.73044  0.97846  0.97015  Biso   1.000  N
  C38      1.0000 0.82090  0.98983  0.01109  Biso   1.000  C
  C39      1.0000 0.60602  0.17350  0.84141  Biso   1.000  C
  H36      1.0000 0.54291  0.08910  0.73793  Biso   1.000  H
  C40      1.0000 0.67726  0.01039  0.90613  Biso   1.000  C
  C41      1.0000 0.74180  0.90248  0.04747  Biso   1.000  C
  H37      1.0000 0.83268  0.93878  0.06315  Biso   1.000  H
  H38      1.0000 0.59089  0.26566  0.83890  Biso   1.000  H
  C42      1.0000 0.65615  0.14365  0.90472  Biso   1.000  C
  H39      1.0000 0.77978  0.89931  0.08918  Biso   1.000  H
  H40      1.0000 0.72529  0.95441  0.07260  Biso   1.000  H
  H41      1.0000 0.72808  0.80256  0.03256  Biso   1.000  H
  H42      1.0000 0.67660  0.21439  0.94778  Biso   1.000  H
  N23      1.0000 0.35533  0.46562  0.49272  Biso   1.000  N
  C43      1.0000 0.33798  0.39259  0.41900  Biso   1.000  C
  C44      1.0000 0.32090  0.51011  0.51111  Biso   1.000  C
  C45      1.0000 0.28440  0.36832  0.36180  Biso   1.000  C
  H43      1.0000 0.36211  0.35760  0.40589  Biso   1.000  H
  C46      1.0000 0.26771  0.48169  0.45429  Biso   1.000  C
  H44      1.0000 0.33270  0.56117  0.56323  Biso   1.000  H
  N24      1.0000 0.26393  0.30228  0.28325  Biso   1.000  N
  N25      1.0000 0.24962  0.41227  0.37954  Biso   1.000  N
  N26      1.0000 0.23044  0.52148  0.47016  Biso   1.000  N
  C47      1.0000 0.20994  0.26347  0.23473  Biso   1.000  C
  C48      1.0000 0.29724  0.23844  0.25799  Biso   1.000  C
  C49      1.0000 0.17724  0.48956  0.40608  Biso   1.000  C
  C50      1.0000 0.24184  0.59746  0.54748  Biso   1.000  C
  N27      1.0000 0.17819  0.33661  0.16313  Biso   1.000  N
  C51      1.0000 0.19210  0.15284  0.26127  Biso   1.000  C
  H45      1.0000 0.32040  0.31387  0.25922  Biso   1.000  H
  H46      1.0000 0.27540  0.19843  0.19970  Biso   1.000  H
  H47      1.0000 0.31830  0.15994  0.29810  Biso   1.000  H
  N28      1.0000 0.15026  0.59561  0.34894  Biso   1.000  N
  C52      1.0000 0.15616  0.35629  0.40473  Biso   1.000  C
  H48      1.0000 0.27978  0.60052  0.58920  Biso   1.000  H
  H49      1.0000 0.22529  0.54542  0.57262  Biso   1.000  H
  H50      1.0000 0.22809  0.69739  0.53257  Biso   1.000  H
  C53      1.0000 0.12793  0.29791  0.12006  Biso   1.000  C
  N29      1.0000 0.14219  0.11162  0.21917  Biso   1.000  N
  H51      1.0000 0.21671  0.10244  0.31269  Biso   1.000  H
  C54      1.0000 0.10123  0.56314  0.28737  Biso   1.000  C
  C55      1.0000 0.10602  0.32645  0.34142  Biso   1.000  C
  H52      1.0000 0.17660  0.28556  0.44780  Biso   1.000  H
  N30      1.0000 0.09233  0.37794  0.04448  Biso   1.000  N
  C56      1.0000 0.11029  0.18727  0.14732  Biso   1.000  C
  N31      1.0000 0.07188  0.67312  0.22432  Biso   1.000  N
  C57      1.0000 0.07821  0.42910  0.28268  Biso   1.000  C
  H53      1.0000 0.09090  0.23428  0.33892  Biso   1.000  H
  C58      1.0000 0.07390  0.50727  0.05431  Biso   1.000  C
  C59      1.0000 0.08981  0.34470  0.96593  Biso   1.000  C
  H54      1.0000 0.07412  0.16344  0.11402  Biso   1.000  H
  C60      1.0000 0.06380  0.65431  0.14372  Biso   1.000  C
  C61      1.0000 0.06987  0.81939  0.25401  Biso   1.000  C
  H55      1.0000 0.04290  0.41085  0.23788  Biso   1.000  H
  N32      1.0000 0.08160  0.53023  0.13131  Biso   1.000  N
  C62      1.0000 0.04879  0.61135  0.98927  Biso   1.000  C
  H56      1.0000 0.05350  0.35170  0.91670  Biso   1.000  H
  H57      1.0000 0.10281  0.24533  0.96941  Biso   1.000  H
  H58      1.0000 0.11139  0.41456  0.95880  Biso   1.000  H
  C63      1.0000 0.03827  0.76014  0.07919  Biso   1.000  C
  H59      1.0000 0.09669  0.88116  0.25587  Biso   1.000  H
  H60      1.0000 0.07631  0.81294  0.31160  Biso   1.000  H
  H61      1.0000 0.03531  0.86214  0.21429  Biso   1.000  H
  N33      1.0000 0.03132  0.73598  0.00244  Biso   1.000  N
  H62      1.0000 0.04401  0.59364  0.93515  Biso   1.000  H
  H63      1.0000 0.02598  0.84793  0.08947  Biso   1.000  H
  N34      1.0000 0.64467  0.53438  0.50731  Biso   1.000  N
  C64      1.0000 0.66201  0.60741  0.58097  Biso   1.000  C
  C65      1.0000 0.67911  0.48989  0.48893  Biso   1.000  C
  C66      1.0000 0.71559  0.63168  0.63817  Biso   1.000  C
  H64      1.0000 0.63791  0.64240  0.59408  Biso   1.000  H
  H65      1.0000 0.66730  0.43883  0.43680  Biso   1.000  H
  C67      1.0000 0.73228  0.51831  0.54568  Biso   1.000  C
  N35      1.0000 0.73608  0.69772  0.71678  Biso   1.000  N
  N36      1.0000 0.75039  0.58762  0.62050  Biso   1.000  N
  N37      1.0000 0.76954  0.47852  0.52981  Biso   1.000  N
  C68      1.0000 0.79007  0.73642  0.76531  Biso   1.000  C
  C69      1.0000 0.70275  0.76156  0.74198  Biso   1.000  C
  C70      1.0000 0.82275  0.51033  0.59389  Biso   1.000  C
  C71      1.0000 0.75818  0.40254  0.45249  Biso   1.000  C
  N38      1.0000 0.82180  0.66339  0.83684  Biso   1.000  N
  C72      1.0000 0.80789  0.84716  0.73870  Biso   1.000  C
  H66      1.0000 0.67961  0.68602  0.74082  Biso   1.000  H
  H67      1.0000 0.72459  0.80157  0.80027  Biso   1.000  H
  H68      1.0000 0.68169  0.84006  0.70187  Biso   1.000  H
  N39      1.0000 0.84975  0.40439  0.65109  Biso   1.000  N
  C73      1.0000 0.84385  0.64371  0.59530  Biso   1.000  C
  H69      1.0000 0.72020  0.39937  0.41077  Biso   1.000  H
  H70      1.0000 0.77472  0.45447  0.42742  Biso   1.000  H
  H71      1.0000 0.77189  0.30261  0.46740  Biso   1.000  H
  C74      1.0000 0.87206  0.70209  0.87991  Biso   1.000  C
  N40      1.0000 0.85779  0.88838  0.78080  Biso   1.000  N
  H72      1.0000 0.78331  0.89756  0.68728  Biso   1.000  H
  C75      1.0000 0.89876  0.43676  0.71260  Biso   1.000  C
  C76      1.0000 0.89398  0.67344  0.65861  Biso   1.000  C
  H73      1.0000 0.82338  0.71433  0.55218  Biso   1.000  H
  N41      1.0000 0.90768  0.62195  0.95556  Biso   1.000  N
  C77      1.0000 0.88975  0.81262  0.85272  Biso   1.000  C
  N42      1.0000 0.92811  0.32688  0.77566  Biso   1.000  N
  C78      1.0000 0.92177  0.57090  0.71730  Biso   1.000  C
  H74      1.0000 0.90911  0.76572  0.66112  Biso   1.000  H
  C79      1.0000 0.92610  0.49273  0.94572  Biso   1.000  C
  C80      1.0000 0.91020  0.65530  0.03410  Biso   1.000  C
  H75      1.0000 0.92589  0.83645  0.88601  Biso   1.000  H
  C81      1.0000 0.93621  0.34569  0.85632  Biso   1.000  C
  C82      1.0000 0.93014  0.18061  0.74603  Biso   1.000  C
  H76      1.0000 0.95709  0.58905  0.76209  Biso   1.000  H
  N43      1.0000 0.91841  0.46966  0.86872  Biso   1.000  N
  C83      1.0000 0.95122  0.38854  0.01077  Biso   1.000  C
  H77      1.0000 0.94648  0.64830  0.08327  Biso   1.000  H
  H78      1.0000 0.89718  0.75467  0.03057  Biso   1.000  H
  H79      1.0000 0.88860  0.58533  0.04117  Biso   1.000  H
  C84      1.0000 0.96173  0.23975  0.92085  Biso   1.000  C
  H80      1.0000 0.90330  0.11884  0.74410  Biso   1.000  H
  H81      1.0000 0.92368  0.18695  0.68837  Biso   1.000  H
  H82      1.0000 0.96468  0.13775  0.78568  Biso   1.000  H
  N44      1.0000 0.96869  0.26402  0.99759  Biso   1.000  N
  H83      1.0000 0.95600  0.40625  0.06489  Biso   1.000  H
  H84      1.0000 0.97400  0.15196  0.91050  Biso   1.000  H
  C85      1.0000 0.39398  0.17350  0.65861  Biso   1.000  C
  C86      1.0000 0.34385  0.14365  0.59530  Biso   1.000  C
  H85      1.0000 0.40911  0.26566  0.66112  Biso   1.000  H
  C87      1.0000 0.42177  0.07084  0.71730  Biso   1.000  C
  C88      1.0000 0.32275  0.01039  0.59389  Biso   1.000  C
  H86      1.0000 0.32338  0.21439  0.55218  Biso   1.000  H
  H87      1.0000 0.45709  0.08910  0.76209  Biso   1.000  H
  C89      1.0000 0.39876  0.93681  0.71260  Biso   1.000  C
  N45      1.0000 0.26954  0.97846  0.52981  Biso   1.000  N
  N46      1.0000 0.34975  0.90434  0.65109  Biso   1.000  N
  N47      1.0000 0.42811  0.82683  0.77566  Biso   1.000  N
  C90      1.0000 0.23228  0.01826  0.54568  Biso   1.000  C
  C91      1.0000 0.25818  0.90248  0.45249  Biso   1.000  C
  C92      1.0000 0.43621  0.84563  0.85632  Biso   1.000  C
  C93      1.0000 0.43014  0.68055  0.74603  Biso   1.000  C
  N48      1.0000 0.25039  0.08768  0.62050  Biso   1.000  N
  C94      1.0000 0.17911  0.98983  0.48893  Biso   1.000  C
  H88      1.0000 0.22020  0.89931  0.41077  Biso   1.000  H
  H89      1.0000 0.27472  0.95441  0.42742  Biso   1.000  H
  H90      1.0000 0.27189  0.80256  0.46740  Biso   1.000  H
  N49      1.0000 0.41841  0.96961  0.86872  Biso   1.000  N
  C95      1.0000 0.46173  0.73981  0.92085  Biso   1.000  C
  H91      1.0000 0.40330  0.61878  0.74410  Biso   1.000  H
  H92      1.0000 0.42368  0.68700  0.68837  Biso   1.000  H
  H93      1.0000 0.46468  0.63780  0.78568  Biso   1.000  H
  C96      1.0000 0.21559  0.13174  0.63817  Biso   1.000  C
  N50      1.0000 0.14467  0.03444  0.50731  Biso   1.000  N
  H94      1.0000 0.16730  0.93878  0.43680  Biso   1.000  H
  C97      1.0000 0.42610  0.99268  0.94572  Biso   1.000  C
  N51      1.0000 0.46869  0.76397  0.99759  Biso   1.000  N
  H95      1.0000 0.47400  0.65202  0.91050  Biso   1.000  H
  N52      1.0000 0.23608  0.19766  0.71678  Biso   1.000  N
  C98      1.0000 0.16201  0.10736  0.58097  Biso   1.000  C
  N53      1.0000 0.40768  0.12201  0.95556  Biso   1.000  N
  C99      1.0000 0.45122  0.88860  0.01077  Biso   1.000  C
  C100     1.0000 0.29007  0.23647  0.76531  Biso   1.000  C
  C101     1.0000 0.20275  0.26162  0.74198  Biso   1.000  C
  H96      1.0000 0.13791  0.14234  0.59408  Biso   1.000  H
  C102     1.0000 0.37206  0.20214  0.87991  Biso   1.000  C
  C103     1.0000 0.41020  0.15524  0.03410  Biso   1.000  C
  H97      1.0000 0.45600  0.90631  0.06489  Biso   1.000  H
  N54      1.0000 0.32180  0.16344  0.83684  Biso   1.000  N
  C104     1.0000 0.30789  0.34722  0.73870  Biso   1.000  C
  H98      1.0000 0.17961  0.18607  0.74082  Biso   1.000  H
  H99      1.0000 0.22459  0.30163  0.80027  Biso   1.000  H
  H100     1.0000 0.18169  0.34011  0.70187  Biso   1.000  H
  C105     1.0000 0.38975  0.31267  0.85272  Biso   1.000  C
  H101     1.0000 0.44648  0.14825  0.08327  Biso   1.000  H
  H102     1.0000 0.39718  0.25473  0.03057  Biso   1.000  H
  H103     1.0000 0.38860  0.08538  0.04117  Biso   1.000  H
  N55      1.0000 0.35779  0.38843  0.78080  Biso   1.000  N
  H104     1.0000 0.28331  0.39762  0.68728  Biso   1.000  H
  H105     1.0000 0.42589  0.33650  0.88601  Biso   1.000  H
  C106     1.0000 0.60602  0.82650  0.34142  Biso   1.000  C
  H106     1.0000 0.59090  0.73423  0.33892  Biso   1.000  H
  C107     1.0000 0.65616  0.85624  0.40473  Biso   1.000  C
  C108     1.0000 0.57821  0.92905  0.28268  Biso   1.000  C
  C109     1.0000 0.67724  0.98950  0.40608  Biso   1.000  C
  H107     1.0000 0.67660  0.78561  0.44780  Biso   1.000  H
  H108     1.0000 0.54290  0.91090  0.23788  Biso   1.000  H
  C110     1.0000 0.60123  0.06319  0.28737  Biso   1.000  C
  N56      1.0000 0.73044  0.02154  0.47016  Biso   1.000  N
  N57      1.0000 0.65026  0.09555  0.34894  Biso   1.000  N
  N58      1.0000 0.57188  0.17306  0.22432  Biso   1.000  N
  C111     1.0000 0.76771  0.98163  0.45429  Biso   1.000  C
  C112     1.0000 0.74184  0.09752  0.54748  Biso   1.000  C
  C113     1.0000 0.56380  0.15426  0.14372  Biso   1.000  C
  C114     1.0000 0.56987  0.31934  0.25401  Biso   1.000  C
  N59      1.0000 0.74962  0.91221  0.37954  Biso   1.000  N
  C115     1.0000 0.82090  0.01006  0.51111  Biso   1.000  C
  H109     1.0000 0.77978  0.10058  0.58920  Biso   1.000  H
  H110     1.0000 0.72529  0.04548  0.57262  Biso   1.000  H
  H111     1.0000 0.72809  0.19744  0.53257  Biso   1.000  H
  N60      1.0000 0.58160  0.03028  0.13131  Biso   1.000  N
  C116     1.0000 0.53827  0.26019  0.07919  Biso   1.000  C
  H112     1.0000 0.59669  0.38122  0.25587  Biso   1.000  H
  H113     1.0000 0.57631  0.31300  0.31160  Biso   1.000  H
  H114     1.0000 0.53531  0.36220  0.21429  Biso   1.000  H
  C117     1.0000 0.78440  0.86826  0.36180  Biso   1.000  C
  N61      1.0000 0.85533  0.96556  0.49272  Biso   1.000  N
  H115     1.0000 0.83270  0.06122  0.56323  Biso   1.000  H
  C118     1.0000 0.57390  0.00732  0.05431  Biso   1.000  C
  N62      1.0000 0.53132  0.23603  0.00244  Biso   1.000  N
  H116     1.0000 0.52598  0.34798  0.08947  Biso   1.000  H
  N63      1.0000 0.76393  0.80223  0.28325  Biso   1.000  N
  C119     1.0000 0.83798  0.89253  0.41900  Biso   1.000  C
  N64      1.0000 0.59233  0.87799  0.04448  Biso   1.000  N
  C120     1.0000 0.54879  0.11140  0.98927  Biso   1.000  C
  C121     1.0000 0.70994  0.76342  0.23473  Biso   1.000  C
  C122     1.0000 0.79724  0.73838  0.25799  Biso   1.000  C
  H117     1.0000 0.86211  0.85755  0.40589  Biso   1.000  H
  C123     1.0000 0.62793  0.79786  0.12006  Biso   1.000  C
  C124     1.0000 0.58981  0.84465  0.96593  Biso   1.000  C
  H118     1.0000 0.54401  0.09369  0.93515  Biso   1.000  H
  N65      1.0000 0.67819  0.83656  0.16313  Biso   1.000  N
  C125     1.0000 0.69210  0.65278  0.26127  Biso   1.000  C
  H119     1.0000 0.82040  0.81382  0.25922  Biso   1.000  H
  H120     1.0000 0.77540  0.69837  0.19970  Biso   1.000  H
  H121     1.0000 0.81830  0.65989  0.29810  Biso   1.000  H
  C126     1.0000 0.61029  0.68722  0.14732  Biso   1.000  C
  H122     1.0000 0.55350  0.85165  0.91670  Biso   1.000  H
  H123     1.0000 0.60281  0.74527  0.96941  Biso   1.000  H
  H124     1.0000 0.61139  0.91451  0.95880  Biso   1.000  H
  N66      1.0000 0.64219  0.61157  0.21917  Biso   1.000  N
  H125     1.0000 0.71671  0.60238  0.31269  Biso   1.000  H
  H126     1.0000 0.57412  0.66350  0.11402  Biso   1.000  H
  C127     1.0000 0.29723  0.76156  0.75798  Biso   1.000  C
  N67      1.0000 0.26392  0.69772  0.78324  Biso   1.000  N
  H127     1.0000 0.32040  0.68602  0.75920  Biso   1.000  H
  H128     1.0000 0.27539  0.80157  0.69968  Biso   1.000  H
  H129     1.0000 0.31829  0.84006  0.79809  Biso   1.000  H
  C128     1.0000 0.20993  0.73642  0.73471  Biso   1.000  C
  C129     1.0000 0.28439  0.63168  0.86178  Biso   1.000  C
  N68      1.0000 0.17821  0.66339  0.66318  Biso   1.000  N
  C130     1.0000 0.19212  0.84716  0.76132  Biso   1.000  C
  N69      1.0000 0.24961  0.58762  0.87952  Biso   1.000  N
  C131     1.0000 0.33797  0.60741  0.91899  Biso   1.000  C
  C132     1.0000 0.12792  0.70209  0.62005  Biso   1.000  C
  N70      1.0000 0.14221  0.88838  0.71922  Biso   1.000  N
  H130     1.0000 0.21671  0.89756  0.81268  Biso   1.000  H
  C133     1.0000 0.26770  0.51831  0.95427  Biso   1.000  C
  N71      1.0000 0.35533  0.53438  0.99271  Biso   1.000  N
  H131     1.0000 0.36210  0.64240  0.90587  Biso   1.000  H
  N72      1.0000 0.09232  0.62195  0.54446  Biso   1.000  N
  C134     1.0000 0.11028  0.81262  0.64730  Biso   1.000  C
  N73      1.0000 0.23044  0.47852  0.97015  Biso   1.000  N
  C135     1.0000 0.32090  0.48989  0.01109  Biso   1.000  C
  C136     1.0000 0.08980  0.65530  0.46592  Biso   1.000  C
  C137     1.0000 0.07390  0.49273  0.55430  Biso   1.000  C
  H132     1.0000 0.07411  0.83645  0.61401  Biso   1.000  H
  C138     1.0000 0.17726  0.51033  0.90613  Biso   1.000  C
  C139     1.0000 0.24180  0.40254  0.04747  Biso   1.000  C
  H133     1.0000 0.33268  0.43883  0.06315  Biso   1.000  H
  H134     1.0000 0.05350  0.64830  0.41669  Biso   1.000  H
  H135     1.0000 0.10280  0.75467  0.46939  Biso   1.000  H
  H136     1.0000 0.11138  0.58533  0.45879  Biso   1.000  H
  N74      1.0000 0.08162  0.46966  0.63130  Biso   1.000  N
  C140     1.0000 0.04879  0.38854  0.48925  Biso   1.000  C
  N75      1.0000 0.15025  0.40439  0.84893  Biso   1.000  N
  C141     1.0000 0.15615  0.64371  0.90472  Biso   1.000  C
  H137     1.0000 0.27978  0.39937  0.08918  Biso   1.000  H
  H138     1.0000 0.22529  0.45447  0.07260  Biso   1.000  H
  H139     1.0000 0.22808  0.30261  0.03256  Biso   1.000  H
  C142     1.0000 0.06380  0.34569  0.64370  Biso   1.000  C
  N76      1.0000 0.03132  0.26402  0.50243  Biso   1.000  N
  H140     1.0000 0.04398  0.40625  0.43507  Biso   1.000  H
  C143     1.0000 0.10122  0.43676  0.78735  Biso   1.000  C
  C144     1.0000 0.10602  0.67344  0.84141  Biso   1.000  C
  H141     1.0000 0.17660  0.71433  0.94778  Biso   1.000  H
  N77      1.0000 0.07191  0.32688  0.72430  Biso   1.000  N
  C145     1.0000 0.03827  0.23975  0.57917  Biso   1.000  C
  C146     1.0000 0.07823  0.57090  0.78273  Biso   1.000  C
  H142     1.0000 0.09089  0.76572  0.83890  Biso   1.000  H
  C147     1.0000 0.06987  0.18061  0.75400  Biso   1.000  C
  H143     1.0000 0.02600  0.15196  0.58952  Biso   1.000  H
  H144     1.0000 0.04291  0.58905  0.73793  Biso   1.000  H
  H145     1.0000 0.09670  0.11884  0.75592  Biso   1.000  H
  H146     1.0000 0.07630  0.18695  0.81159  Biso   1.000  H
  H147     1.0000 0.03530  0.13775  0.71427  Biso   1.000  H
  C148     1.0000 0.70276  0.23844  0.24199  Biso   1.000  C
  N78      1.0000 0.73607  0.30228  0.21673  Biso   1.000  N
  H148     1.0000 0.67959  0.31387  0.24077  Biso   1.000  H
  H149     1.0000 0.72460  0.19843  0.30029  Biso   1.000  H
  H150     1.0000 0.68170  0.15994  0.20188  Biso   1.000  H
  C149     1.0000 0.79007  0.26347  0.26532  Biso   1.000  C
  C150     1.0000 0.71560  0.36832  0.13819  Biso   1.000  C
  N79      1.0000 0.82180  0.33661  0.33686  Biso   1.000  N
  C151     1.0000 0.80789  0.15284  0.23871  Biso   1.000  C
  N80      1.0000 0.75040  0.41227  0.12051  Biso   1.000  N
  C152     1.0000 0.66201  0.39259  0.08098  Biso   1.000  C
  C153     1.0000 0.87207  0.29791  0.37992  Biso   1.000  C
  N81      1.0000 0.85780  0.11162  0.28081  Biso   1.000  N
  H151     1.0000 0.78331  0.10244  0.18729  Biso   1.000  H
  C154     1.0000 0.73229  0.48169  0.04570  Biso   1.000  C
  N82      1.0000 0.64468  0.46562  0.00733  Biso   1.000  N
  H152     1.0000 0.63788  0.35760  0.09410  Biso   1.000  H
  N83      1.0000 0.90767  0.37794  0.45551  Biso   1.000  N
  C155     1.0000 0.88974  0.18727  0.35267  Biso   1.000  C
  N84      1.0000 0.76955  0.52148  0.02982  Biso   1.000  N
  C156     1.0000 0.67911  0.51011  0.98894  Biso   1.000  C
  C157     1.0000 0.92609  0.50727  0.44567  Biso   1.000  C
  C158     1.0000 0.91021  0.34470  0.53412  Biso   1.000  C
  H153     1.0000 0.92590  0.16344  0.38603  Biso   1.000  H
  C159     1.0000 0.82275  0.48956  0.09390  Biso   1.000  C
  C160     1.0000 0.75819  0.59746  0.95250  Biso   1.000  C
  H154     1.0000 0.66731  0.56117  0.93682  Biso   1.000  H
  N85      1.0000 0.91842  0.53023  0.36874  Biso   1.000  N
  C161     1.0000 0.95122  0.61135  0.51078  Biso   1.000  C
  H155     1.0000 0.94649  0.35170  0.58328  Biso   1.000  H
  H156     1.0000 0.89719  0.24533  0.53058  Biso   1.000  H
  H157     1.0000 0.88860  0.41456  0.54119  Biso   1.000  H
  N86      1.0000 0.84975  0.59561  0.15111  Biso   1.000  N
  C162     1.0000 0.84386  0.35629  0.09532  Biso   1.000  C
  H158     1.0000 0.72023  0.60052  0.91085  Biso   1.000  H
  H159     1.0000 0.77472  0.54542  0.92743  Biso   1.000  H
  H160     1.0000 0.77190  0.69739  0.96741  Biso   1.000  H
  C163     1.0000 0.93619  0.65431  0.35627  Biso   1.000  C
  N87      1.0000 0.96869  0.73598  0.49761  Biso   1.000  N
  H161     1.0000 0.95601  0.59364  0.56490  Biso   1.000  H
  C164     1.0000 0.89876  0.56314  0.21262  Biso   1.000  C
  C165     1.0000 0.89399  0.32645  0.15863  Biso   1.000  C
  H162     1.0000 0.82339  0.28556  0.05219  Biso   1.000  H
  N88      1.0000 0.92811  0.67312  0.27567  Biso   1.000  N
  C166     1.0000 0.96174  0.76014  0.42086  Biso   1.000  C
  C167     1.0000 0.92178  0.42910  0.21731  Biso   1.000  C
  H163     1.0000 0.90909  0.23428  0.16107  Biso   1.000  H
  C168     1.0000 0.93012  0.81939  0.24598  Biso   1.000  C
  H164     1.0000 0.97401  0.84793  0.41052  Biso   1.000  H
  H165     1.0000 0.95709  0.41085  0.26211  Biso   1.000  H
  H166     1.0000 0.90331  0.88116  0.24411  Biso   1.000  H
  H167     1.0000 0.92369  0.81294  0.18839  Biso   1.000  H
  H168     1.0000 0.96469  0.86214  0.28570  Biso   1.000  H
