data_image0
_cell_length_a       16.134
_cell_length_b       22.741
_cell_length_c       23.945
_cell_angle_alpha    116.87
_cell_angle_beta     94.55
_cell_angle_gamma    95.6

_symmetry_space_group_name_H-M    "P 1"
_symmetry_int_tables_number       1

loop_
  _symmetry_equiv_pos_as_xyz
  'x, y, z'

loop_
  _atom_site_label
  _atom_site_occupancy
  _atom_site_fract_x
  _atom_site_fract_y
  _atom_site_fract_z
  _atom_site_thermal_displace_type
  _atom_site_B_iso_or_equiv
  _atom_site_type_symbol
  C1       1.0000 0.83361  0.35709  0.69652  Biso   1.000  C
  C2       1.0000 0.87712  0.30471  0.70659  Biso   1.000  C
  C3       1.0000 0.84503  0.41429  0.75770  Biso   1.000  C
  C4       1.0000 0.89037  0.23777  0.66149  Biso   1.000  C
  C5       1.0000 0.89642  0.32689  0.76881  Biso   1.000  C
  C6       1.0000 0.86977  0.39819  0.80819  Biso   1.000  C
  S1       1.0000 0.85871  0.20238  0.58400  Biso   1.000  S
  N1       1.0000 0.93449  0.20689  0.68962  Biso   1.000  N
  C7       1.0000 0.94141  0.28633  0.79032  Biso   1.000  C
  C8       1.0000 0.77251  0.13592  0.57332  Biso   1.000  C
  N2       1.0000 0.95743  0.23020  0.75141  Biso   1.000  N
  S2       1.0000 0.97758  0.32462  0.87121  Biso   1.000  S
  C9       1.0000 0.73670  0.08293  0.51271  Biso   1.000  C
  C10      1.0000 0.74130  0.14539  0.62778  Biso   1.000  C
  C11      1.0000 0.00427  0.25300  0.88151  Biso   1.000  C
  C12      1.0000 0.77141  0.06941  0.44799  Biso   1.000  C
  C13      1.0000 0.67570  0.03820  0.50699  Biso   1.000  C
  C14      1.0000 0.66879  0.09709  0.61899  Biso   1.000  C
  C15      1.0000 0.94969  0.21828  0.89229  Biso   1.000  C
  C16      1.0000 0.08581  0.26230  0.89829  Biso   1.000  C
  O1       1.0000 0.81541  0.12979  0.45418  Biso   1.000  O
  O2       1.0000 0.77238  0.01749  0.40520  Biso   1.000  O
  C17      1.0000 0.63717  0.03670  0.55890  Biso   1.000  C
  C18      1.0000 0.63332  0.10552  0.68272  Biso   1.000  C
  C19      1.0000 0.96732  0.16260  0.91489  Biso   1.000  C
  C20      1.0000 0.85900  0.21000  0.88548  Biso   1.000  C
  C21      1.0000 0.11329  0.20442  0.91030  Biso   1.000  C
  S3       1.0000 0.55359  0.98143  0.54949  Biso   1.000  S
  O3       1.0000 0.63651  0.16271  0.72351  Biso   1.000  O
  O4       1.0000 0.61502  0.05270  0.68900  Biso   1.000  O
  C22      1.0000 0.05582  0.16691  0.91981  Biso   1.000  C
  O5       1.0000 0.82799  0.20668  0.92028  Biso   1.000  O
  O6       1.0000 0.80972  0.21719  0.84232  Biso   1.000  O
  C23      1.0000 0.17902  0.17898  0.90501  Biso   1.000  C
  C24      1.0000 0.59617  0.91692  0.56070  Biso   1.000  C
  S4       1.0000 0.08998  0.10332  0.94311  Biso   1.000  S
  O7       1.0000 0.24398  0.17511  0.93541  Biso   1.000  O
  N3       1.0000 0.67691  0.92152  0.57039  Biso   1.000  N
  C25      1.0000 0.53748  0.86811  0.55928  Biso   1.000  C
  C26      1.0000 0.99570  0.05192  0.93621  Biso   1.000  C
  N4       1.0000 0.70528  0.87153  0.58282  Biso   1.000  N
  C27      1.0000 0.57150  0.81891  0.57091  Biso   1.000  C
  C28      1.0000 0.43381  0.86184  0.55261  Biso   1.000  C
  N5       1.0000 0.97119  0.00262  0.87990  Biso   1.000  N
  C29      1.0000 0.93883  0.06693  0.98212  Biso   1.000  C
  C30      1.0000 0.64972  0.82931  0.58722  Biso   1.000  C
  C31      1.0000 0.48792  0.76324  0.56249  Biso   1.000  C
  C32      1.0000 0.40472  0.80202  0.56490  Biso   1.000  C
  N6       1.0000 0.90101  0.95539  0.86809  Biso   1.000  N
  C33      1.0000 0.87798  0.01731  0.97280  Biso   1.000  C
  C34      1.0000 0.94899  0.12306  0.05757  Biso   1.000  C
  S5       1.0000 0.69807  0.76121  0.59568  Biso   1.000  S
  C35      1.0000 0.84920  0.97044  0.91371  Biso   1.000  C
  C36      1.0000 0.82837  0.03940  0.02840  Biso   1.000  C
  C37      1.0000 0.88166  0.10637  0.07846  Biso   1.000  C
  C38      1.0000 0.70209  0.80871  0.68068  Biso   1.000  C
  S6       1.0000 0.76341  0.90732  0.89891  Biso   1.000  S
  C39      1.0000 0.76921  0.78323  0.71099  Biso   1.000  C
  C40      1.0000 0.67218  0.85062  0.71671  Biso   1.000  C
  C41      1.0000 0.74198  0.86833  0.81670  Biso   1.000  C
  C42      1.0000 0.81337  0.72431  0.68111  Biso   1.000  C
  C43      1.0000 0.78287  0.81842  0.78110  Biso   1.000  C
  C44      1.0000 0.68087  0.89054  0.77760  Biso   1.000  C
  O8       1.0000 0.79362  0.68394  0.62102  Biso   1.000  O
  O9       1.0000 0.89060  0.72221  0.70990  Biso   1.000  O
  C45      1.0000 0.65351  0.95344  0.81282  Biso   1.000  C
  O10      1.0000 0.69273  0.00601  0.84870  Biso   1.000  O
  O11      1.0000 0.55887  0.94270  0.79438  Biso   1.000  O
  C46      1.0000 0.16644  0.64293  0.30351  Biso   1.000  C
  C47      1.0000 0.15501  0.58570  0.24229  Biso   1.000  C
  C48      1.0000 0.12292  0.69529  0.29340  Biso   1.000  C
  C49      1.0000 0.13021  0.60181  0.19180  Biso   1.000  C
  C50      1.0000 0.10362  0.67310  0.23118  Biso   1.000  C
  C51      1.0000 0.10960  0.76218  0.33850  Biso   1.000  C
  C52      1.0000 0.05858  0.71369  0.20972  Biso   1.000  C
  S7       1.0000 0.14132  0.79757  0.41598  Biso   1.000  S
  N7       1.0000 0.06549  0.79312  0.31042  Biso   1.000  N
  S8       1.0000 0.02240  0.67537  0.12878  Biso   1.000  S
  N8       1.0000 0.04261  0.76980  0.24858  Biso   1.000  N
  C53      1.0000 0.22748  0.86410  0.42671  Biso   1.000  C
  C54      1.0000 0.99572  0.74702  0.11852  Biso   1.000  C
  C55      1.0000 0.26328  0.91709  0.48732  Biso   1.000  C
  C56      1.0000 0.25868  0.85460  0.37221  Biso   1.000  C
  C57      1.0000 0.05029  0.78172  0.10770  Biso   1.000  C
  C58      1.0000 0.91417  0.73769  0.10169  Biso   1.000  C
  C59      1.0000 0.32427  0.96179  0.49300  Biso   1.000  C
  C60      1.0000 0.22862  0.93058  0.55200  Biso   1.000  C
  C61      1.0000 0.33119  0.90291  0.38100  Biso   1.000  C
  C62      1.0000 0.03272  0.83739  0.08510  Biso   1.000  C
  C63      1.0000 0.14098  0.78999  0.11450  Biso   1.000  C
  C64      1.0000 0.88669  0.79558  0.08968  Biso   1.000  C
  C65      1.0000 0.36281  0.96329  0.44109  Biso   1.000  C
  O12      1.0000 0.18457  0.87020  0.54580  Biso   1.000  O
  O13      1.0000 0.22760  0.98251  0.59478  Biso   1.000  O
  C66      1.0000 0.36673  0.89450  0.31732  Biso   1.000  C
  C67      1.0000 0.94422  0.83309  0.08018  Biso   1.000  C
  O14      1.0000 0.17199  0.79331  0.07971  Biso   1.000  O
  O15      1.0000 0.19032  0.78279  0.15771  Biso   1.000  O
  C68      1.0000 0.82102  0.82101  0.09498  Biso   1.000  C
  S9       1.0000 0.44639  0.01857  0.45049  Biso   1.000  S
  O16      1.0000 0.36348  0.83731  0.27652  Biso   1.000  O
  O17      1.0000 0.38502  0.94730  0.31098  Biso   1.000  O
  S10      1.0000 0.91001  0.89670  0.05692  Biso   1.000  S
  O18      1.0000 0.75599  0.82489  0.06458  Biso   1.000  O
  C69      1.0000 0.40380  0.08308  0.43929  Biso   1.000  C
  C70      1.0000 0.00429  0.94810  0.06382  Biso   1.000  C
  N9       1.0000 0.32313  0.07848  0.42960  Biso   1.000  N
  C71      1.0000 0.46250  0.13189  0.44071  Biso   1.000  C
  N10      1.0000 0.02878  0.99738  0.12008  Biso   1.000  N
  C72      1.0000 0.06122  0.93309  0.01792  Biso   1.000  C
  N11      1.0000 0.29471  0.12849  0.41721  Biso   1.000  N
  C73      1.0000 0.42848  0.18108  0.42908  Biso   1.000  C
  C74      1.0000 0.56624  0.13818  0.44742  Biso   1.000  C
  N12      1.0000 0.09902  0.04460  0.13190  Biso   1.000  N
  C75      1.0000 0.12200  0.98269  0.02718  Biso   1.000  C
  C76      1.0000 0.05105  0.87693  0.94242  Biso   1.000  C
  C77      1.0000 0.35032  0.17071  0.41282  Biso   1.000  C
  C78      1.0000 0.51212  0.23676  0.43749  Biso   1.000  C
  C79      1.0000 0.59532  0.19798  0.43508  Biso   1.000  C
  C80      1.0000 0.15077  0.02955  0.08628  Biso   1.000  C
  C81      1.0000 0.17162  0.96062  0.97163  Biso   1.000  C
  C82      1.0000 0.11832  0.89363  0.92152  Biso   1.000  C
  S11      1.0000 0.30191  0.23879  0.40431  Biso   1.000  S
  S12      1.0000 0.23663  0.09268  0.10108  Biso   1.000  S
  C83      1.0000 0.29789  0.19128  0.31930  Biso   1.000  C
  C84      1.0000 0.25799  0.13166  0.18329  Biso   1.000  C
  C85      1.0000 0.23083  0.21677  0.28900  Biso   1.000  C
  C86      1.0000 0.32780  0.14938  0.28328  Biso   1.000  C
  C87      1.0000 0.21711  0.18158  0.21889  Biso   1.000  C
  C88      1.0000 0.31911  0.10946  0.22239  Biso   1.000  C
  C89      1.0000 0.18660  0.27569  0.31888  Biso   1.000  C
  C90      1.0000 0.34648  0.04658  0.18721  Biso   1.000  C
  O19      1.0000 0.20643  0.31608  0.37901  Biso   1.000  O
  O20      1.0000 0.10943  0.27779  0.29009  Biso   1.000  O
  O21      1.0000 0.30731  0.99398  0.15128  Biso   1.000  O
  O22      1.0000 0.44111  0.05729  0.20560  Biso   1.000  O
