data_image0
_cell_length_a       14.952
_cell_length_b       14.986
_cell_length_c       17.027
_cell_angle_alpha    109.46
_cell_angle_beta     100.65
_cell_angle_gamma    104.69

_symmetry_space_group_name_H-M    "P 1"
_symmetry_int_tables_number       1

loop_
  _symmetry_equiv_pos_as_xyz
  'x, y, z'

loop_
  _atom_site_label
  _atom_site_occupancy
  _atom_site_fract_x
  _atom_site_fract_y
  _atom_site_fract_z
  _atom_site_thermal_displace_type
  _atom_site_B_iso_or_equiv
  _atom_site_type_symbol
  C1       1.0000 0.68936  0.57833  0.69674  Biso   1.000  C
  O1       1.0000 0.61967  0.60827  0.73560  Biso   1.000  O
  H1       1.0000 0.69135  0.51488  0.70020  Biso   1.000  H
  H2       1.0000 0.67157  0.56909  0.63546  Biso   1.000  H
  H3       1.0000 0.75325  0.63047  0.72764  Biso   1.000  H
  C2       1.0000 0.63321  0.62438  0.82178  Biso   1.000  C
  C3       1.0000 0.56468  0.65575  0.85868  Biso   1.000  C
  C4       1.0000 0.70951  0.60980  0.87049  Biso   1.000  C
  C5       1.0000 0.48103  0.66829  0.80229  Biso   1.000  C
  C6       1.0000 0.57730  0.67363  0.94631  Biso   1.000  C
  C7       1.0000 0.71723  0.62636  0.95674  Biso   1.000  C
  H4       1.0000 0.75594  0.58878  0.84480  Biso   1.000  H
  C8       1.0000 0.51126  0.76548  0.78821  Biso   1.000  C
  H5       1.0000 0.46047  0.61172  0.74368  Biso   1.000  H
  C9       1.0000 0.39127  0.66109  0.83482  Biso   1.000  C
  C10      1.0000 0.65215  0.65968  0.99755  Biso   1.000  C
  H6       1.0000 0.53212  0.69668  0.97265  Biso   1.000  H
  O2       1.0000 0.78757  0.60825  0.00779  Biso   1.000  O
  C11      1.0000 0.46618  0.76773  0.70952  Biso   1.000  C
  C12      1.0000 0.57703  0.85518  0.85164  Biso   1.000  C
  H7       1.0000 0.34384  0.67698  0.79779  Biso   1.000  H
  H8       1.0000 0.41056  0.71266  0.89500  Biso   1.000  H
  C13      1.0000 0.34246  0.55905  0.83450  Biso   1.000  C
  C14      1.0000 0.66729  0.67861  0.09300  Biso   1.000  C
  C15      1.0000 0.87628  0.61368  0.98771  Biso   1.000  C
  O3       1.0000 0.39859  0.67839  0.64882  Biso   1.000  O
  C16      1.0000 0.48957  0.85547  0.69531  Biso   1.000  C
  H9       1.0000 0.60852  0.85486  0.90536  Biso   1.000  H
  C17      1.0000 0.60002  0.94626  0.84167  Biso   1.000  C
  H10      1.0000 0.38645  0.54569  0.87596  Biso   1.000  H
  H11      1.0000 0.28326  0.55870  0.85138  Biso   1.000  H
  H12      1.0000 0.32617  0.50690  0.77589  Biso   1.000  H
  C18      1.0000 0.75830  0.76829  0.15115  Biso   1.000  C
  H13      1.0000 0.67775  0.61799  0.09991  Biso   1.000  H
  C19      1.0000 0.58036  0.69153  0.12579  Biso   1.000  C
  H14      1.0000 0.86552  0.55966  0.93059  Biso   1.000  H
  H15      1.0000 0.90586  0.67950  0.98549  Biso   1.000  H
  C20      1.0000 0.94077  0.60135  0.05922  Biso   1.000  C
  C21      1.0000 0.35070  0.67523  0.56648  Biso   1.000  C
  C22      1.0000 0.55609  0.94355  0.76076  Biso   1.000  C
  H16      1.0000 0.46002  0.85523  0.64067  Biso   1.000  H
  C23      1.0000 0.66098  0.04564  0.91756  Biso   1.000  C
  C24      1.0000 0.77517  0.86075  0.14476  Biso   1.000  C
  C25      1.0000 0.82411  0.76356  0.21850  Biso   1.000  C
  H17      1.0000 0.52283  0.63099  0.08921  Biso   1.000  H
  H18      1.0000 0.56703  0.74988  0.11784  Biso   1.000  H
  C26      1.0000 0.59374  0.70705  0.21921  Biso   1.000  C
  C27      1.0000 0.49267  0.58802  0.08296  Biso   1.000  C
  H19      1.0000 0.59923  0.71468  0.19001  Biso   1.000  H
  H20      1.0000 0.56024  0.74322  0.11073  Biso   1.000  H
  H21      1.0000 0.94877  0.65407  0.11621  Biso   1.000  H
  N1       1.0000 0.89855  0.50235  0.05890  Biso   1.000  N
  H22      1.0000 0.00544  0.60892  0.05036  Biso   1.000  H
  C28      1.0000 0.28051  0.57001  0.51576  Biso   1.000  C
  H23      1.0000 0.31616  0.72431  0.57476  Biso   1.000  H
  H24      1.0000 0.39817  0.69144  0.53538  Biso   1.000  H
  O4       1.0000 0.58182  0.03322  0.75027  Biso   1.000  O
  H25      1.0000 0.68097  0.09567  0.89174  Biso   1.000  H
  C29      1.0000 0.75341  0.04501  0.97167  Biso   1.000  C
  C30      1.0000 0.59816  0.08304  0.97395  Biso   1.000  C
  C31      1.0000 0.85131  0.94820  0.20168  Biso   1.000  C
  H26      1.0000 0.73184  0.86460  0.09854  Biso   1.000  H
  C32      1.0000 0.90091  0.84831  0.27613  Biso   1.000  C
  O5       1.0000 0.80769  0.67147  0.22313  Biso   1.000  O
  H27      1.0000 0.60393  0.64827  0.22743  Biso   1.000  H
  H28      1.0000 0.65026  0.76715  0.25631  Biso   1.000  H
  H29      1.0000 0.53593  0.71600  0.23532  Biso   1.000  H
  H30      1.0000 0.44135  0.59450  0.11060  Biso   1.000  H
  H31      1.0000 0.46740  0.57062  0.02043  Biso   1.000  H
  H32      1.0000 0.51507  0.53476  0.09130  Biso   1.000  H
  C33      1.0000 0.95223  0.47359  0.11797  Biso   1.000  C
  H33      1.0000 0.83935  0.49522  0.06333  Biso   1.000  H
  N2       1.0000 0.20725  0.55101  0.55859  Biso   1.000  N
  H34      1.0000 0.31519  0.52126  0.51191  Biso   1.000  H
  H35      1.0000 0.24974  0.56151  0.45578  Biso   1.000  H
  C34      1.0000 0.51640  0.04812  0.68898  Biso   1.000  C
  C35      1.0000 0.55140  0.01427  0.65495  Biso   1.000  C
  C36      1.0000 0.83809  0.06595  0.94709  Biso   1.000  C
  C37      1.0000 0.76274  0.03617  0.05147  Biso   1.000  C
  H36      1.0000 0.57197  0.03216  0.99644  Biso   1.000  H
  C38      1.0000 0.51449  0.10295  0.92544  Biso   1.000  C
  H37      1.0000 0.63949  0.14600  0.02474  Biso   1.000  H
  C39      1.0000 0.85714  0.05021  0.19835  Biso   1.000  C
  C40      1.0000 0.91373  0.94006  0.26850  Biso   1.000  C
  H38      1.0000 0.94533  0.84388  0.32124  Biso   1.000  H
  C41      1.0000 0.87568  0.66318  0.28858  Biso   1.000  C
  C42      1.0000 0.91523  0.37407  0.11099  Biso   1.000  C
  C43      1.0000 0.04045  0.53728  0.17899  Biso   1.000  C
  C44      1.0000 0.13030  0.46065  0.52169  Biso   1.000  C
  H39      1.0000 0.23016  0.57134  0.61909  Biso   1.000  H
  H40      1.0000 0.48062  0.98469  0.63181  Biso   1.000  H
  H41      1.0000 0.45187  0.02959  0.69681  Biso   1.000  H
  H42      1.0000 0.53810  0.11901  0.69759  Biso   1.000  H
  H43      1.0000 0.51372  0.00600  0.62985  Biso   1.000  H
  H44      1.0000 0.57310  0.07805  0.64830  Biso   1.000  H
  H45      1.0000 0.58041  0.96780  0.62300  Biso   1.000  H
  O6       1.0000 0.82503  0.06896  0.86644  Biso   1.000  O
  C45      1.0000 0.92712  0.08278  0.00179  Biso   1.000  C
  H46      1.0000 0.70552  0.01850  0.06790  Biso   1.000  H
  C46      1.0000 0.85015  0.05132  0.10851  Biso   1.000  C
  H47      1.0000 0.47206  0.04065  0.87596  Biso   1.000  H
  H48      1.0000 0.47757  0.12656  0.96495  Biso   1.000  H
  H49      1.0000 0.53979  0.15440  0.90406  Biso   1.000  H
  H50      1.0000 0.92203  0.09918  0.23779  Biso   1.000  H
  C47      1.0000 0.78054  0.08410  0.23832  Biso   1.000  C
  O7       1.0000 0.98875  0.02642  0.32679  Biso   1.000  O
  H51      1.0000 0.87623  0.70701  0.34634  Biso   1.000  H
  H52      1.0000 0.85715  0.59329  0.28304  Biso   1.000  H
  H53      1.0000 0.94029  0.68360  0.28141  Biso   1.000  H
  C48      1.0000 0.96837  0.34296  0.16556  Biso   1.000  C
  N3       1.0000 0.82664  0.30977  0.05147  Biso   1.000  N
  H54      1.0000 0.06526  0.60448  0.18394  Biso   1.000  H
  C49      1.0000 0.09303  0.50491  0.23277  Biso   1.000  C
  C50      1.0000 0.11559  0.38499  0.44085  Biso   1.000  C
  C51      1.0000 0.06279  0.44818  0.56746  Biso   1.000  C
  C52      1.0000 0.90594  0.11553  0.84284  Biso   1.000  C
  H55      1.0000 0.98376  0.09743  0.98405  Biso   1.000  H
  C53      1.0000 0.93319  0.07747  0.08283  Biso   1.000  C
  H56      1.0000 0.79131  0.08289  0.29699  Biso   1.000  H
  H57      1.0000 0.71571  0.03465  0.20200  Biso   1.000  H
  C54      1.0000 0.78058  0.18889  0.24640  Biso   1.000  C
  C55      1.0000 0.03825  0.02276  0.40528  Biso   1.000  C
  H58      1.0000 0.94377  0.27620  0.16171  Biso   1.000  H
  C56      1.0000 0.05636  0.40704  0.22534  Biso   1.000  C
  H59      1.0000 0.81199  0.24801  0.04501  Biso   1.000  H
  H60      1.0000 0.80202  0.32502  0.01202  Biso   1.000  H
  H61      1.0000 0.15343  0.54929  0.27424  Biso   1.000  H
  H62      1.0000 0.16126  0.39261  0.40936  Biso   1.000  H
  C57      1.0000 0.03514  0.29922  0.40656  Biso   1.000  C
  N4       1.0000 0.08164  0.52393  0.64941  Biso   1.000  N
  C58      1.0000 0.98266  0.36075  0.53317  Biso   1.000  C
  H63      1.0000 0.95117  0.17710  0.89285  Biso   1.000  H
  H64      1.0000 0.94119  0.06871  0.82315  Biso   1.000  H
  C59      1.0000 0.86253  0.14114  0.76963  Biso   1.000  C
  O8       1.0000 0.01986  0.09733  0.14111  Biso   1.000  O
  H65      1.0000 0.75980  0.18828  0.18812  Biso   1.000  H
  H66      1.0000 0.73591  0.20777  0.27893  Biso   1.000  H
  H67      1.0000 0.84602  0.23777  0.27743  Biso   1.000  H
  H68      1.0000 0.99182  0.00549  0.43690  Biso   1.000  H
  H69      1.0000 0.06881  0.97046  0.39120  Biso   1.000  H
  C60      1.0000 0.11404  0.12371  0.46109  Biso   1.000  C
  H70      1.0000 0.09191  0.38376  0.26159  Biso   1.000  H
  H71      1.0000 0.02478  0.24876  0.35088  Biso   1.000  H
  C61      1.0000 0.96965  0.28622  0.45239  Biso   1.000  C
  H72      1.0000 0.03194  0.51486  0.67594  Biso   1.000  H
  H73      1.0000 0.10093  0.58989  0.64778  Biso   1.000  H
  H74      1.0000 0.93716  0.35159  0.56446  Biso   1.000  H
  H75      1.0000 0.81176  0.08017  0.72314  Biso   1.000  H
  H76      1.0000 0.91321  0.16552  0.74427  Biso   1.000  H
  N5       1.0000 0.82072  0.21876  0.80268  Biso   1.000  N
  C62      1.0000 0.10601  0.15610  0.13153  Biso   1.000  C
  H77      1.0000 0.14693  0.12338  0.51702  Biso   1.000  H
  H78      1.0000 0.08340  0.17616  0.47400  Biso   1.000  H
  N6       1.0000 0.18423  0.14607  0.41552  Biso   1.000  N
  H79      1.0000 0.91518  0.22615  0.42879  Biso   1.000  H
  C63      1.0000 0.75819  0.23930  0.74420  Biso   1.000  C
  H80      1.0000 0.79327  0.21200  0.84754  Biso   1.000  H
  H81      1.0000 0.09768  0.21747  0.12774  Biso   1.000  H
  H82      1.0000 0.16110  0.17417  0.18205  Biso   1.000  H
  H83      1.0000 0.11807  0.11679  0.07833  Biso   1.000  H
  C64      1.0000 0.26808  0.23162  0.45828  Biso   1.000  C
  H84      1.0000 0.15295  0.14223  0.35860  Biso   1.000  H
  C65      1.0000 0.74549  0.20192  0.65528  Biso   1.000  C
  C66      1.0000 0.70874  0.30469  0.77947  Biso   1.000  C
  C67      1.0000 0.29629  0.29049  0.54760  Biso   1.000  C
  C68      1.0000 0.32792  0.25496  0.40841  Biso   1.000  C
  H85      1.0000 0.78101  0.16113  0.63115  Biso   1.000  H
  C69      1.0000 0.68071  0.22425  0.60110  Biso   1.000  C
  C70      1.0000 0.64410  0.32416  0.72373  Biso   1.000  C
  N7       1.0000 0.72629  0.34520  0.87055  Biso   1.000  N
  H86      1.0000 0.25645  0.27516  0.58209  Biso   1.000  H
  C71      1.0000 0.38302  0.37194  0.58613  Biso   1.000  C
  C72      1.0000 0.41310  0.33678  0.44864  Biso   1.000  C
  N8       1.0000 0.29566  0.19741  0.31792  Biso   1.000  N
  H87      1.0000 0.67217  0.19830  0.54008  Biso   1.000  H
  C73      1.0000 0.62880  0.28321  0.63500  Biso   1.000  C
  H88      1.0000 0.60970  0.36659  0.74707  Biso   1.000  H
  H89      1.0000 0.69495  0.39290  0.88646  Biso   1.000  H
  H90      1.0000 0.79498  0.36988  0.90400  Biso   1.000  H
  H91      1.0000 0.40236  0.41156  0.64702  Biso   1.000  H
  C74      1.0000 0.44012  0.39507  0.53684  Biso   1.000  C
  H92      1.0000 0.45361  0.35303  0.41493  Biso   1.000  H
  H93      1.0000 0.34197  0.21496  0.29243  Biso   1.000  H
  H94      1.0000 0.26903  0.12599  0.30592  Biso   1.000  H
  H95      1.0000 0.58269  0.29559  0.59738  Biso   1.000  H
  H96      1.0000 0.49848  0.45131  0.56318  Biso   1.000  H
  C75      1.0000 0.31053  0.42151  0.30322  Biso   1.000  C
  H97      1.0000 0.30854  0.48497  0.29977  Biso   1.000  H
  H98      1.0000 0.32838  0.43075  0.36451  Biso   1.000  H
  H99      1.0000 0.24670  0.36938  0.27232  Biso   1.000  H
  O9       1.0000 0.38030  0.39165  0.26437  Biso   1.000  O
  C76      1.0000 0.36668  0.37547  0.17818  Biso   1.000  C
  C77      1.0000 0.43521  0.34409  0.14128  Biso   1.000  C
  C78      1.0000 0.29038  0.39004  0.12948  Biso   1.000  C
  C79      1.0000 0.42259  0.32622  0.05366  Biso   1.000  C
  C80      1.0000 0.51888  0.33162  0.19767  Biso   1.000  C
  H100     1.0000 0.24394  0.41107  0.15516  Biso   1.000  H
  C81      1.0000 0.28273  0.37349  0.04322  Biso   1.000  C
  C82      1.0000 0.34773  0.34017  0.00241  Biso   1.000  C
  H101     1.0000 0.46777  0.30317  0.02732  Biso   1.000  H
  H102     1.0000 0.53949  0.38812  0.25628  Biso   1.000  H
  C83      1.0000 0.48863  0.23437  0.21175  Biso   1.000  C
  C84      1.0000 0.60862  0.33876  0.16514  Biso   1.000  C
  O10      1.0000 0.21232  0.39160  0.99218  Biso   1.000  O
  C85      1.0000 0.33260  0.32124  0.90697  Biso   1.000  C
  C86      1.0000 0.42285  0.14467  0.14832  Biso   1.000  C
  C87      1.0000 0.53378  0.23212  0.29044  Biso   1.000  C
  H103     1.0000 0.65604  0.32287  0.20217  Biso   1.000  H
  H104     1.0000 0.58940  0.28719  0.10496  Biso   1.000  H
  C88      1.0000 0.65749  0.44079  0.16547  Biso   1.000  C
  C89      1.0000 0.12367  0.38617  0.01226  Biso   1.000  C
  C90      1.0000 0.24159  0.23156  0.84881  Biso   1.000  C
  H105     1.0000 0.32214  0.38186  0.90006  Biso   1.000  H
  C91      1.0000 0.41952  0.30831  0.87417  Biso   1.000  C
  H106     1.0000 0.39136  0.14499  0.09460  Biso   1.000  H
  C92      1.0000 0.39993  0.05359  0.15829  Biso   1.000  C
  C93      1.0000 0.51039  0.14438  0.30466  Biso   1.000  C
  O11      1.0000 0.60130  0.32145  0.35114  Biso   1.000  O
  H107     1.0000 0.61344  0.45415  0.12400  Biso   1.000  H
  H108     1.0000 0.71669  0.44114  0.14858  Biso   1.000  H
  H109     1.0000 0.67379  0.49295  0.22408  Biso   1.000  H
  H110     1.0000 0.13437  0.44019  0.06937  Biso   1.000  H
  H111     1.0000 0.09403  0.32035  0.01447  Biso   1.000  H
  C94      1.0000 0.05912  0.39849  0.94074  Biso   1.000  C
  C95      1.0000 0.22478  0.13910  0.85520  Biso   1.000  C
  C96      1.0000 0.17585  0.23628  0.78147  Biso   1.000  C
  H112     1.0000 0.47705  0.36886  0.91075  Biso   1.000  H
  H113     1.0000 0.43285  0.24997  0.88213  Biso   1.000  H
  C97      1.0000 0.40615  0.29279  0.78075  Biso   1.000  C
  C98      1.0000 0.50722  0.41182  0.91701  Biso   1.000  C
  H114     1.0000 0.40066  0.28516  0.80996  Biso   1.000  H
  H115     1.0000 0.43965  0.25662  0.88923  Biso   1.000  H
  C99      1.0000 0.44380  0.05629  0.23920  Biso   1.000  C
  C100     1.0000 0.33897  0.95421  0.08241  Biso   1.000  C
  H116     1.0000 0.53989  0.14468  0.35929  Biso   1.000  H
  C101     1.0000 0.64919  0.32461  0.43348  Biso   1.000  C
  H117     1.0000 0.99447  0.39095  0.94967  Biso   1.000  H
  H118     1.0000 0.05118  0.34578  0.88376  Biso   1.000  H
  N9       1.0000 0.10134  0.49750  0.94106  Biso   1.000  N
  C102     1.0000 0.14858  0.05165  0.79829  Biso   1.000  C
  H119     1.0000 0.26804  0.13525  0.90143  Biso   1.000  H
  C103     1.0000 0.09899  0.15160  0.72383  Biso   1.000  C
  O12      1.0000 0.19219  0.32838  0.77684  Biso   1.000  O
  H120     1.0000 0.39595  0.35157  0.77253  Biso   1.000  H
  H121     1.0000 0.34970  0.23270  0.74365  Biso   1.000  H
  H122     1.0000 0.46396  0.28385  0.76465  Biso   1.000  H
  H123     1.0000 0.55854  0.40535  0.88936  Biso   1.000  H
  H124     1.0000 0.53255  0.42922  0.97953  Biso   1.000  H
  H125     1.0000 0.48489  0.46509  0.90866  Biso   1.000  H
  O13      1.0000 0.41813  0.96663  0.24970  Biso   1.000  O
  H126     1.0000 0.31891  0.90418  0.10822  Biso   1.000  H
  C104     1.0000 0.24648  0.95483  0.02829  Biso   1.000  C
  C105     1.0000 0.40173  0.91681  0.02601  Biso   1.000  C
  H127     1.0000 0.68380  0.27554  0.42520  Biso   1.000  H
  H128     1.0000 0.60179  0.30840  0.46458  Biso   1.000  H
  C106     1.0000 0.71945  0.42983  0.48420  Biso   1.000  C
  C107     1.0000 0.04766  0.52625  0.88200  Biso   1.000  C
  H129     1.0000 0.16053  0.50462  0.93663  Biso   1.000  H
  C108     1.0000 0.14276  0.94971  0.80161  Biso   1.000  C
  C109     1.0000 0.08616  0.05979  0.73146  Biso   1.000  C
  H130     1.0000 0.05456  0.15597  0.67872  Biso   1.000  H
  C110     1.0000 0.12421  0.33667  0.71138  Biso   1.000  C
  C111     1.0000 0.48349  0.95172  0.31098  Biso   1.000  C
  C112     1.0000 0.44849  0.98557  0.34501  Biso   1.000  C
  C113     1.0000 0.23722  0.96368  0.94850  Biso   1.000  C
  C114     1.0000 0.16179  0.93389  0.05287  Biso   1.000  C
  H131     1.0000 0.36039  0.85384  0.97523  Biso   1.000  H
  H132     1.0000 0.42792  0.96768  0.00352  Biso   1.000  H
  C115     1.0000 0.48547  0.89690  0.07452  Biso   1.000  C
  H133     1.0000 0.68476  0.47859  0.48805  Biso   1.000  H
  H134     1.0000 0.75015  0.43833  0.54418  Biso   1.000  H
  N10      1.0000 0.79264  0.44884  0.44137  Biso   1.000  N
  C116     1.0000 0.95944  0.46257  0.82097  Biso   1.000  C
  C117     1.0000 0.08465  0.62578  0.88897  Biso   1.000  C
  C118     1.0000 0.14973  0.94853  0.89145  Biso   1.000  C
  H135     1.0000 0.07792  0.90067  0.76217  Biso   1.000  H
  C119     1.0000 0.21942  0.91574  0.76165  Biso   1.000  C
  O14      1.0000 0.01121  0.97343  0.67318  Biso   1.000  O
  H136     1.0000 0.12367  0.29291  0.65362  Biso   1.000  H
  H137     1.0000 0.14274  0.40655  0.71692  Biso   1.000  H
  H138     1.0000 0.05969  0.31632  0.71855  Biso   1.000  H
  H139     1.0000 0.51927  0.01515  0.36816  Biso   1.000  H
  H140     1.0000 0.54802  0.97026  0.30316  Biso   1.000  H
  H141     1.0000 0.46179  0.88084  0.30237  Biso   1.000  H
  H142     1.0000 0.48624  0.99384  0.37011  Biso   1.000  H
  H143     1.0000 0.42681  0.92186  0.35166  Biso   1.000  H
  H144     1.0000 0.41947  0.03205  0.37696  Biso   1.000  H
  H145     1.0000 0.29436  0.98135  0.93207  Biso   1.000  H
  C120     1.0000 0.07279  0.91714  0.99817  Biso   1.000  C
  O15      1.0000 0.17493  0.93089  0.13352  Biso   1.000  O
  H146     1.0000 0.52783  0.95919  0.12400  Biso   1.000  H
  H147     1.0000 0.52231  0.87329  0.03501  Biso   1.000  H
  H148     1.0000 0.46012  0.84551  0.09590  Biso   1.000  H
  C121     1.0000 0.86966  0.53919  0.47827  Biso   1.000  C
  H149     1.0000 0.76973  0.42851  0.38087  Biso   1.000  H
  H150     1.0000 0.93463  0.39537  0.81602  Biso   1.000  H
  C122     1.0000 0.90686  0.49494  0.76719  Biso   1.000  C
  C123     1.0000 0.03152  0.65689  0.83440  Biso   1.000  C
  N11      1.0000 0.17332  0.69008  0.94850  Biso   1.000  N
  C124     1.0000 0.06676  0.92237  0.91714  Biso   1.000  C
  H151     1.0000 0.20860  0.91702  0.70297  Biso   1.000  H
  H152     1.0000 0.28417  0.96520  0.79796  Biso   1.000  H
  C125     1.0000 0.21931  0.81095  0.75356  Biso   1.000  C
  C126     1.0000 0.96164  0.97708  0.59468  Biso   1.000  C
  H153     1.0000 0.01613  0.90242  0.01591  Biso   1.000  H
  C127     1.0000 0.09402  0.88431  0.15712  Biso   1.000  C
  C128     1.0000 0.88438  0.61492  0.55911  Biso   1.000  C
  C129     1.0000 0.93716  0.55167  0.43250  Biso   1.000  C
  H154     1.0000 0.84645  0.45056  0.72572  Biso   1.000  H
  C130     1.0000 0.94353  0.59281  0.77462  Biso   1.000  C
  H155     1.0000 0.05612  0.72364  0.83825  Biso   1.000  H
  H156     1.0000 0.18790  0.75183  0.95495  Biso   1.000  H
  H157     1.0000 0.19794  0.67482  0.98794  Biso   1.000  H
  O16      1.0000 0.98003  0.90251  0.85885  Biso   1.000  O
  H158     1.0000 0.24009  0.81156  0.81185  Biso   1.000  H
  H159     1.0000 0.26398  0.79208  0.72103  Biso   1.000  H
  H160     1.0000 0.15387  0.76207  0.72253  Biso   1.000  H
  C131     1.0000 0.88585  0.87614  0.53888  Biso   1.000  C
  H161     1.0000 0.93108  0.02938  0.60876  Biso   1.000  H
  H162     1.0000 0.00809  0.99443  0.56306  Biso   1.000  H
  H163     1.0000 0.04874  0.82282  0.10712  Biso   1.000  H
  H164     1.0000 0.05872  0.93120  0.17681  Biso   1.000  H
  C132     1.0000 0.13738  0.85877  0.23033  Biso   1.000  C
  H165     1.0000 0.83869  0.60724  0.59060  Biso   1.000  H
  C133     1.0000 0.96475  0.70063  0.59341  Biso   1.000  C
  N12      1.0000 0.91832  0.47591  0.35055  Biso   1.000  N
  C134     1.0000 0.01723  0.63910  0.46680  Biso   1.000  C
  H166     1.0000 0.90798  0.61609  0.73837  Biso   1.000  H
  C135     1.0000 0.89387  0.84375  0.86844  Biso   1.000  C
  H167     1.0000 0.85303  0.87647  0.48294  Biso   1.000  H
  H168     1.0000 0.91655  0.82369  0.52597  Biso   1.000  H
  N13      1.0000 0.81565  0.85377  0.58445  Biso   1.000  N
  H169     1.0000 0.18812  0.91968  0.27682  Biso   1.000  H
  H170     1.0000 0.08668  0.83433  0.25570  Biso   1.000  H
  N14      1.0000 0.17916  0.78109  0.19728  Biso   1.000  N
  H171     1.0000 0.97511  0.75108  0.64908  Biso   1.000  H
  C136     1.0000 0.03023  0.71363  0.54757  Biso   1.000  C
  H172     1.0000 0.96801  0.48499  0.32402  Biso   1.000  H
  H173     1.0000 0.89896  0.40996  0.35218  Biso   1.000  H
  H174     1.0000 0.06273  0.64825  0.43550  Biso   1.000  H
  H175     1.0000 0.90221  0.78237  0.87222  Biso   1.000  H
  H176     1.0000 0.83879  0.82568  0.81791  Biso   1.000  H
  H177     1.0000 0.88182  0.88306  0.92164  Biso   1.000  H
  C137     1.0000 0.73181  0.76823  0.54168  Biso   1.000  C
  H178     1.0000 0.84693  0.85762  0.64136  Biso   1.000  H
  C138     1.0000 0.24169  0.76054  0.25576  Biso   1.000  C
  H179     1.0000 0.20664  0.78792  0.15243  Biso   1.000  H
  H180     1.0000 0.08471  0.77370  0.57117  Biso   1.000  H
  C139     1.0000 0.70366  0.70935  0.45236  Biso   1.000  C
  C140     1.0000 0.67203  0.74489  0.59155  Biso   1.000  C
  C141     1.0000 0.25439  0.79792  0.34469  Biso   1.000  C
  C142     1.0000 0.29115  0.69515  0.22049  Biso   1.000  C
  H181     1.0000 0.74344  0.72469  0.41787  Biso   1.000  H
  C143     1.0000 0.61693  0.62790  0.41383  Biso   1.000  C
  C144     1.0000 0.58679  0.66307  0.55133  Biso   1.000  C
  N15      1.0000 0.70423  0.80244  0.68204  Biso   1.000  N
  H182     1.0000 0.21896  0.83879  0.36881  Biso   1.000  H
  C145     1.0000 0.31918  0.77560  0.39886  Biso   1.000  C
  C146     1.0000 0.35579  0.67569  0.27623  Biso   1.000  C
  N16      1.0000 0.27366  0.65464  0.12941  Biso   1.000  N
  H183     1.0000 0.59753  0.58828  0.35294  Biso   1.000  H
  C147     1.0000 0.55976  0.60477  0.46312  Biso   1.000  C
  H184     1.0000 0.54635  0.64682  0.58503  Biso   1.000  H
  H185     1.0000 0.65792  0.78488  0.70753  Biso   1.000  H
  H186     1.0000 0.73093  0.87385  0.69404  Biso   1.000  H
  H187     1.0000 0.32771  0.80155  0.45989  Biso   1.000  H
  C148     1.0000 0.37109  0.71663  0.36496  Biso   1.000  C
  H188     1.0000 0.39025  0.63326  0.25289  Biso   1.000  H
  H189     1.0000 0.30496  0.60702  0.11350  Biso   1.000  H
  H190     1.0000 0.20491  0.62997  0.09597  Biso   1.000  H
  H191     1.0000 0.50147  0.54854  0.43678  Biso   1.000  H
  H192     1.0000 0.41720  0.70426  0.40258  Biso   1.000  H
