data_image0
_cell_length_a       9.2
_cell_length_b       16.063
_cell_length_c       19.924
_cell_angle_alpha    90
_cell_angle_beta     90
_cell_angle_gamma    90

_symmetry_space_group_name_H-M    "P 1"
_symmetry_int_tables_number       1

loop_
  _symmetry_equiv_pos_as_xyz
  'x, y, z'

loop_
  _atom_site_label
  _atom_site_occupancy
  _atom_site_fract_x
  _atom_site_fract_y
  _atom_site_fract_z
  _atom_site_thermal_displace_type
  _atom_site_B_iso_or_equiv
  _atom_site_type_symbol
  O1       1.0000 0.23685  0.33101  0.29246  Biso   1.000  O
  C1       1.0000 0.24696  0.24099  0.29713  Biso   1.000  C
  C2       1.0000 0.17696  0.36239  0.23113  Biso   1.000  C
  H1       1.0000 0.28826  0.22561  0.34069  Biso   1.000  H
  H2       1.0000 0.30957  0.22001  0.26109  Biso   1.000  H
  H3       1.0000 0.14978  0.21671  0.29261  Biso   1.000  H
  N1       1.0000 0.17217  0.44581  0.23073  Biso   1.000  N
  N2       1.0000 0.12815  0.31140  0.17843  Biso   1.000  N
  C3       1.0000 0.10826  0.47532  0.17045  Biso   1.000  C
  C4       1.0000 0.07217  0.35155  0.12051  Biso   1.000  C
  O2       1.0000 0.09663  0.55899  0.16924  Biso   1.000  O
  N3       1.0000 0.05609  0.43317  0.11228  Biso   1.000  N
  O3       1.0000 0.02772  0.30082  0.06580  Biso   1.000  O
  C5       1.0000 0.00489  0.59447  0.11469  Biso   1.000  C
  C6       1.0000 0.97185  0.33655  0.00010  Biso   1.000  C
  C7       1.0000 0.06413  0.62305  0.04909  Biso   1.000  C
  C8       1.0000 0.85957  0.60518  0.13240  Biso   1.000  C
  C9       1.0000 0.82652  0.32460  0.98454  Biso   1.000  C
  C10      1.0000 0.06413  0.37695  0.95091  Biso   1.000  C
  H4       1.0000 0.16413  0.61470  0.03930  Biso   1.000  H
  C11      1.0000 0.97185  0.66345  0.99990  Biso   1.000  C
  H5       1.0000 0.82152  0.58700  0.17421  Biso   1.000  H
  C12      1.0000 0.77130  0.64627  0.08216  Biso   1.000  C
  C13      1.0000 0.77130  0.35373  0.91784  Biso   1.000  C
  H6       1.0000 0.76304  0.29839  0.01571  Biso   1.000  H
  C14      1.0000 0.00489  0.40553  0.88531  Biso   1.000  C
  H7       1.0000 0.16413  0.38530  0.96070  Biso   1.000  H
  C15      1.0000 0.82652  0.67540  0.01546  Biso   1.000  C
  O4       1.0000 0.02772  0.69918  0.93420  Biso   1.000  O
  H8       1.0000 0.67163  0.65542  0.09220  Biso   1.000  H
  C16      1.0000 0.85957  0.39482  0.86760  Biso   1.000  C
  H9       1.0000 0.67163  0.34458  0.90780  Biso   1.000  H
  O5       1.0000 0.09663  0.44101  0.83076  Biso   1.000  O
  H10      1.0000 0.76304  0.70161  0.98429  Biso   1.000  H
  C17      1.0000 0.07217  0.64845  0.87949  Biso   1.000  C
  H11      1.0000 0.82152  0.41300  0.82579  Biso   1.000  H
  C18      1.0000 0.10826  0.52468  0.82955  Biso   1.000  C
  N4       1.0000 0.05609  0.56683  0.88772  Biso   1.000  N
  N5       1.0000 0.12815  0.68860  0.82157  Biso   1.000  N
  N6       1.0000 0.17217  0.55419  0.76927  Biso   1.000  N
  C19      1.0000 0.17696  0.63761  0.76887  Biso   1.000  C
  O6       1.0000 0.23685  0.66899  0.70754  Biso   1.000  O
  C20      1.0000 0.24696  0.75901  0.70287  Biso   1.000  C
  H12      1.0000 0.28826  0.77439  0.65931  Biso   1.000  H
  H13      1.0000 0.30957  0.77999  0.73891  Biso   1.000  H
  H14      1.0000 0.14978  0.78329  0.70739  Biso   1.000  H
  C21      1.0000 0.82304  0.36239  0.26887  Biso   1.000  C
  O7       1.0000 0.76304  0.33101  0.20754  Biso   1.000  O
  N7       1.0000 0.82783  0.44581  0.26927  Biso   1.000  N
  N8       1.0000 0.87185  0.31140  0.32157  Biso   1.000  N
  C22      1.0000 0.75304  0.24099  0.20287  Biso   1.000  C
  C23      1.0000 0.89174  0.47532  0.32955  Biso   1.000  C
  C24      1.0000 0.92783  0.35155  0.37949  Biso   1.000  C
  H15      1.0000 0.71174  0.22561  0.15931  Biso   1.000  H
  H16      1.0000 0.69043  0.22001  0.23891  Biso   1.000  H
  H17      1.0000 0.85022  0.21671  0.20739  Biso   1.000  H
  O8       1.0000 0.90337  0.55899  0.33076  Biso   1.000  O
  N9       1.0000 0.94391  0.43317  0.38772  Biso   1.000  N
  O9       1.0000 0.97228  0.30082  0.43420  Biso   1.000  O
  C25      1.0000 0.99511  0.59447  0.38531  Biso   1.000  C
  C26      1.0000 0.02815  0.33655  0.49990  Biso   1.000  C
  C27      1.0000 0.93587  0.62305  0.45091  Biso   1.000  C
  C28      1.0000 0.14043  0.60518  0.36760  Biso   1.000  C
  C29      1.0000 0.93587  0.37695  0.54909  Biso   1.000  C
  C30      1.0000 0.17348  0.32460  0.51546  Biso   1.000  C
  H18      1.0000 0.83587  0.61470  0.46070  Biso   1.000  H
  C31      1.0000 0.02815  0.66345  0.50010  Biso   1.000  C
  H19      1.0000 0.17848  0.58700  0.32579  Biso   1.000  H
  C32      1.0000 0.22870  0.64627  0.41784  Biso   1.000  C
  C33      1.0000 0.99511  0.40553  0.61469  Biso   1.000  C
  H20      1.0000 0.83587  0.38530  0.53930  Biso   1.000  H
  C34      1.0000 0.22870  0.35373  0.58216  Biso   1.000  C
  H21      1.0000 0.23696  0.29839  0.48429  Biso   1.000  H
  O10      1.0000 0.97228  0.69918  0.56580  Biso   1.000  O
  C35      1.0000 0.17348  0.67540  0.48454  Biso   1.000  C
  H22      1.0000 0.32837  0.65542  0.40780  Biso   1.000  H
  O11      1.0000 0.90337  0.44101  0.66924  Biso   1.000  O
  C36      1.0000 0.14043  0.39482  0.63240  Biso   1.000  C
  H23      1.0000 0.32837  0.34458  0.59220  Biso   1.000  H
  C37      1.0000 0.92783  0.64845  0.62051  Biso   1.000  C
  H24      1.0000 0.23696  0.70161  0.51571  Biso   1.000  H
  C38      1.0000 0.89174  0.52468  0.67045  Biso   1.000  C
  H25      1.0000 0.17848  0.41300  0.67421  Biso   1.000  H
  N10      1.0000 0.94391  0.56683  0.61228  Biso   1.000  N
  N11      1.0000 0.87185  0.68860  0.67843  Biso   1.000  N
  N12      1.0000 0.82783  0.55419  0.73073  Biso   1.000  N
  C39      1.0000 0.82304  0.63761  0.73113  Biso   1.000  C
  O12      1.0000 0.76304  0.66899  0.79246  Biso   1.000  O
  C40      1.0000 0.75304  0.75901  0.79713  Biso   1.000  C
  H26      1.0000 0.71174  0.77439  0.84069  Biso   1.000  H
  H27      1.0000 0.69043  0.77999  0.76109  Biso   1.000  H
  H28      1.0000 0.85022  0.78329  0.79261  Biso   1.000  H
  C41      1.0000 0.64043  0.10521  0.36760  Biso   1.000  C
  C42      1.0000 0.49511  0.09444  0.38531  Biso   1.000  C
  H29      1.0000 0.67848  0.08697  0.32579  Biso   1.000  H
  C43      1.0000 0.72870  0.14630  0.41784  Biso   1.000  C
  O13      1.0000 0.40337  0.05902  0.33076  Biso   1.000  O
  C44      1.0000 0.43587  0.12308  0.45091  Biso   1.000  C
  H30      1.0000 0.82837  0.15539  0.40780  Biso   1.000  H
  C45      1.0000 0.67348  0.17537  0.48454  Biso   1.000  C
  C46      1.0000 0.39174  0.97535  0.32955  Biso   1.000  C
  C47      1.0000 0.52804  0.16342  0.50010  Biso   1.000  C
  H31      1.0000 0.33587  0.11467  0.46070  Biso   1.000  H
  H32      1.0000 0.73696  0.20158  0.51571  Biso   1.000  H
  N13      1.0000 0.32783  0.94578  0.26927  Biso   1.000  N
  N14      1.0000 0.44391  0.93314  0.38772  Biso   1.000  N
  O14      1.0000 0.47228  0.19915  0.56580  Biso   1.000  O
  C48      1.0000 0.32304  0.86235  0.26887  Biso   1.000  C
  C49      1.0000 0.42783  0.85158  0.37949  Biso   1.000  C
  C50      1.0000 0.42783  0.14842  0.62051  Biso   1.000  C
  O15      1.0000 0.26304  0.83098  0.20754  Biso   1.000  O
  N15      1.0000 0.37185  0.81143  0.32157  Biso   1.000  N
  O16      1.0000 0.47228  0.80085  0.43420  Biso   1.000  O
  N16      1.0000 0.44391  0.06686  0.61228  Biso   1.000  N
  N17      1.0000 0.37185  0.18857  0.67843  Biso   1.000  N
  C51      1.0000 0.25304  0.74102  0.20287  Biso   1.000  C
  C52      1.0000 0.52804  0.83658  0.49990  Biso   1.000  C
  C53      1.0000 0.39174  0.02465  0.67045  Biso   1.000  C
  C54      1.0000 0.32304  0.13765  0.73113  Biso   1.000  C
  H33      1.0000 0.21174  0.72558  0.15931  Biso   1.000  H
  H34      1.0000 0.19043  0.71998  0.23891  Biso   1.000  H
  H35      1.0000 0.35022  0.71668  0.20739  Biso   1.000  H
  C55      1.0000 0.67348  0.82463  0.51546  Biso   1.000  C
  C56      1.0000 0.43587  0.87692  0.54909  Biso   1.000  C
  N18      1.0000 0.32783  0.05422  0.73073  Biso   1.000  N
  O17      1.0000 0.40337  0.94098  0.66924  Biso   1.000  O
  O18      1.0000 0.26304  0.16902  0.79246  Biso   1.000  O
  C57      1.0000 0.72870  0.85370  0.58216  Biso   1.000  C
  H36      1.0000 0.73696  0.79842  0.48429  Biso   1.000  H
  C58      1.0000 0.49511  0.90556  0.61469  Biso   1.000  C
  H37      1.0000 0.33587  0.88533  0.53930  Biso   1.000  H
  C59      1.0000 0.25304  0.25898  0.79713  Biso   1.000  C
  C60      1.0000 0.64043  0.89479  0.63240  Biso   1.000  C
  H38      1.0000 0.82837  0.84461  0.59220  Biso   1.000  H
  H39      1.0000 0.21174  0.27442  0.84069  Biso   1.000  H
  H40      1.0000 0.19043  0.28002  0.76109  Biso   1.000  H
  H41      1.0000 0.35022  0.28332  0.79261  Biso   1.000  H
  H42      1.0000 0.67848  0.91303  0.67421  Biso   1.000  H
  O19      1.0000 0.59652  0.05902  0.16924  Biso   1.000  O
  C61      1.0000 0.50489  0.09444  0.11469  Biso   1.000  C
  C62      1.0000 0.60826  0.97535  0.17045  Biso   1.000  C
  C63      1.0000 0.35957  0.10521  0.13240  Biso   1.000  C
  C64      1.0000 0.56413  0.12308  0.04909  Biso   1.000  C
  N19      1.0000 0.67217  0.94578  0.23073  Biso   1.000  N
  N20      1.0000 0.55609  0.93314  0.11228  Biso   1.000  N
  H43      1.0000 0.32152  0.08697  0.17421  Biso   1.000  H
  C65      1.0000 0.27130  0.14630  0.08216  Biso   1.000  C
  H44      1.0000 0.66413  0.11467  0.03930  Biso   1.000  H
  C66      1.0000 0.47185  0.16342  0.99990  Biso   1.000  C
  C67      1.0000 0.67696  0.86235  0.23113  Biso   1.000  C
  C68      1.0000 0.57217  0.85158  0.12051  Biso   1.000  C
  H45      1.0000 0.17163  0.15539  0.09220  Biso   1.000  H
  C69      1.0000 0.32652  0.17537  0.01546  Biso   1.000  C
  O20      1.0000 0.52772  0.19915  0.93420  Biso   1.000  O
  O21      1.0000 0.73685  0.83098  0.29246  Biso   1.000  O
  N21      1.0000 0.62804  0.81143  0.17843  Biso   1.000  N
  O22      1.0000 0.52772  0.80085  0.06580  Biso   1.000  O
  H46      1.0000 0.26304  0.20158  0.98429  Biso   1.000  H
  C70      1.0000 0.57217  0.14842  0.87949  Biso   1.000  C
  C71      1.0000 0.74696  0.74102  0.29713  Biso   1.000  C
  C72      1.0000 0.47185  0.83658  0.00010  Biso   1.000  C
  N22      1.0000 0.55609  0.06686  0.88772  Biso   1.000  N
  N23      1.0000 0.62804  0.18857  0.82157  Biso   1.000  N
  H47      1.0000 0.78826  0.72558  0.34069  Biso   1.000  H
  H48      1.0000 0.80957  0.71998  0.26109  Biso   1.000  H
  H49      1.0000 0.64978  0.71668  0.29261  Biso   1.000  H
  C73      1.0000 0.32652  0.82463  0.98454  Biso   1.000  C
  C74      1.0000 0.56413  0.87692  0.95091  Biso   1.000  C
  C75      1.0000 0.60826  0.02465  0.82955  Biso   1.000  C
  C76      1.0000 0.67696  0.13765  0.76887  Biso   1.000  C
  C77      1.0000 0.27130  0.85370  0.91784  Biso   1.000  C
  H50      1.0000 0.26304  0.79842  0.01571  Biso   1.000  H
  C78      1.0000 0.50489  0.90556  0.88531  Biso   1.000  C
  H51      1.0000 0.66413  0.88533  0.96070  Biso   1.000  H
  O23      1.0000 0.59652  0.94098  0.83076  Biso   1.000  O
  N24      1.0000 0.67217  0.05422  0.76927  Biso   1.000  N
  O24      1.0000 0.73685  0.16902  0.70754  Biso   1.000  O
  C79      1.0000 0.35957  0.89479  0.86760  Biso   1.000  C
  H52      1.0000 0.17163  0.84461  0.90780  Biso   1.000  H
  C80      1.0000 0.74696  0.25898  0.70287  Biso   1.000  C
  H53      1.0000 0.32152  0.91303  0.82579  Biso   1.000  H
  H54      1.0000 0.78826  0.27442  0.65931  Biso   1.000  H
  H55      1.0000 0.80957  0.28002  0.73891  Biso   1.000  H
  H56      1.0000 0.64978  0.28332  0.70739  Biso   1.000  H
