data_image0
_cell_length_a       11.408
_cell_length_b       16.057
_cell_length_c       19.819
_cell_angle_alpha    94.78
_cell_angle_beta     106.58
_cell_angle_gamma    102.05

_symmetry_space_group_name_H-M    "P 1"
_symmetry_int_tables_number       1

loop_
  _symmetry_equiv_pos_as_xyz
  'x, y, z'

loop_
  _atom_site_label
  _atom_site_occupancy
  _atom_site_fract_x
  _atom_site_fract_y
  _atom_site_fract_z
  _atom_site_thermal_displace_type
  _atom_site_B_iso_or_equiv
  _atom_site_type_symbol
  S1       1.0000 0.53473  0.29152  0.62771  Biso   1.000  S
  C1       1.0000 0.58746  0.21670  0.58110  Biso   1.000  C
  C2       1.0000 0.42129  0.21193  0.64710  Biso   1.000  C
  S2       1.0000 0.47551  0.11742  0.54797  Biso   1.000  S
  C3       1.0000 0.70059  0.23353  0.56981  Biso   1.000  C
  C4       1.0000 0.39613  0.13152  0.61131  Biso   1.000  C
  S3       1.0000 0.34503  0.24298  0.70634  Biso   1.000  S
  S4       1.0000 0.81494  0.33109  0.60225  Biso   1.000  S
  S5       1.0000 0.74850  0.15866  0.52022  Biso   1.000  S
  S6       1.0000 0.28674  0.04073  0.61828  Biso   1.000  S
  C5       1.0000 0.47781  0.27750  0.78890  Biso   1.000  C
  C6       1.0000 0.94114  0.28340  0.60198  Biso   1.000  C
  C7       1.0000 0.91060  0.20350  0.56582  Biso   1.000  C
  C8       1.0000 0.39377  0.97342  0.65110  Biso   1.000  C
  H1       1.0000 0.53751  0.32898  0.78352  Biso   1.000  H
  H2       1.0000 0.44615  0.29388  0.82832  Biso   1.000  H
  C9       1.0000 0.54693  0.20837  0.80771  Biso   1.000  C
  S7       1.0000 0.09541  0.34681  0.63847  Biso   1.000  S
  S8       1.0000 0.01932  0.14335  0.55767  Biso   1.000  S
  H3       1.0000 0.34517  0.91602  0.65270  Biso   1.000  H
  H4       1.0000 0.44943  0.99953  0.69909  Biso   1.000  H
  H5       1.0000 0.44467  0.96851  0.61930  Biso   1.000  H
  C10      1.0000 0.67018  0.21880  0.80488  Biso   1.000  C
  C11      1.0000 0.48938  0.13288  0.82688  Biso   1.000  C
  C12      1.0000 0.11389  0.35549  0.73180  Biso   1.000  C
  C13      1.0000 0.94323  0.03950  0.57572  Biso   1.000  C
  H6       1.0000 0.70968  0.26958  0.79082  Biso   1.000  H
  C14      1.0000 0.73503  0.15572  0.82262  Biso   1.000  C
  C15      1.0000 0.55348  0.06969  0.84441  Biso   1.000  C
  H7       1.0000 0.40528  0.12488  0.82837  Biso   1.000  H
  H8       1.0000 0.19821  0.39069  0.75902  Biso   1.000  H
  H9       1.0000 0.10316  0.29779  0.74560  Biso   1.000  H
  H10      1.0000 0.04998  0.38260  0.74171  Biso   1.000  H
  H11      1.0000 0.86113  0.01733  0.53801  Biso   1.000  H
  C16      1.0000 0.92059  0.04029  0.64700  Biso   1.000  C
  H12      1.0000 0.99581  0.99854  0.57221  Biso   1.000  H
  H13      1.0000 0.81936  0.16417  0.82150  Biso   1.000  H
  C17      1.0000 0.67797  0.07999  0.84222  Biso   1.000  C
  H14      1.0000 0.51339  0.01887  0.85820  Biso   1.000  H
  C18      1.0000 0.79757  0.01992  0.65051  Biso   1.000  C
  C19      1.0000 0.02042  0.05489  0.71028  Biso   1.000  C
  C20      1.0000 0.74888  0.01553  0.86769  Biso   1.000  C
  H15      1.0000 0.72858  0.01233  0.60832  Biso   1.000  H
  C21      1.0000 0.77480  0.01081  0.71502  Biso   1.000  C
  C22      1.0000 0.99850  0.04418  0.77479  Biso   1.000  C
  H16      1.0000 0.10470  0.07248  0.70932  Biso   1.000  H
  N1       1.0000 0.71741  0.97548  0.91920  Biso   1.000  N
  C23      1.0000 0.85076  0.99809  0.84430  Biso   1.000  C
  C24      1.0000 0.87514  0.02080  0.77782  Biso   1.000  C
  H17      1.0000 0.69052  0.99739  0.71651  Biso   1.000  H
  H18      1.0000 0.06772  0.05268  0.81708  Biso   1.000  H
  C25      1.0000 0.79089  0.92654  0.95249  Biso   1.000  C
  N2       1.0000 0.92918  0.95493  0.88202  Biso   1.000  N
  C26      1.0000 0.90057  0.92064  0.93640  Biso   1.000  C
  C27      1.0000 0.75416  0.88368  0.00741  Biso   1.000  C
  C28      1.0000 0.98926  0.87631  0.97678  Biso   1.000  C
  N3       1.0000 0.72610  0.85212  0.05210  Biso   1.000  N
  N4       1.0000 0.06012  0.84199  0.00922  Biso   1.000  N
  S9       1.0000 0.46523  0.70846  0.37229  Biso   1.000  S
  C29      1.0000 0.41250  0.78329  0.41890  Biso   1.000  C
  C30      1.0000 0.57869  0.78812  0.35290  Biso   1.000  C
  S10      1.0000 0.52454  0.88256  0.45203  Biso   1.000  S
  C31      1.0000 0.29939  0.76652  0.43019  Biso   1.000  C
  S11      1.0000 0.65493  0.75701  0.29367  Biso   1.000  S
  C32      1.0000 0.60393  0.86853  0.38870  Biso   1.000  C
  S12      1.0000 0.18511  0.66890  0.39775  Biso   1.000  S
  S13      1.0000 0.25146  0.84132  0.47979  Biso   1.000  S
  C33      1.0000 0.52216  0.72249  0.21110  Biso   1.000  C
  S14      1.0000 0.71330  0.95926  0.38172  Biso   1.000  S
  C34      1.0000 0.05891  0.71658  0.39802  Biso   1.000  C
  C35      1.0000 0.08936  0.79649  0.43419  Biso   1.000  C
  H19      1.0000 0.46254  0.67101  0.21648  Biso   1.000  H
  H20      1.0000 0.55390  0.70611  0.17168  Biso   1.000  H
  C36      1.0000 0.45312  0.79162  0.19230  Biso   1.000  C
  C37      1.0000 0.60619  0.02657  0.34891  Biso   1.000  C
  S15      1.0000 0.90455  0.65318  0.36153  Biso   1.000  S
  S16      1.0000 0.98065  0.85664  0.44234  Biso   1.000  S
  C38      1.0000 0.32978  0.78118  0.19512  Biso   1.000  C
  C39      1.0000 0.51058  0.86711  0.17312  Biso   1.000  C
  H21      1.0000 0.65479  0.08397  0.34731  Biso   1.000  H
  H22      1.0000 0.55062  0.00046  0.30091  Biso   1.000  H
  H23      1.0000 0.55529  0.03148  0.38071  Biso   1.000  H
  C40      1.0000 0.88607  0.64450  0.26821  Biso   1.000  C
  C41      1.0000 0.05682  0.96049  0.42428  Biso   1.000  C
  H24      1.0000 0.29028  0.73041  0.20918  Biso   1.000  H
  C42      1.0000 0.26501  0.84427  0.17738  Biso   1.000  C
  C43      1.0000 0.44648  0.93029  0.15560  Biso   1.000  C
  H25      1.0000 0.59465  0.87510  0.17158  Biso   1.000  H
  H26      1.0000 0.80183  0.60930  0.24099  Biso   1.000  H
  H27      1.0000 0.89680  0.70220  0.25441  Biso   1.000  H
  H28      1.0000 0.94998  0.61739  0.25830  Biso   1.000  H
  H29      1.0000 0.13894  0.98273  0.46200  Biso   1.000  H
  C44      1.0000 0.07937  0.95970  0.35301  Biso   1.000  C
  H30      1.0000 0.00417  0.00151  0.42780  Biso   1.000  H
  H31      1.0000 0.18060  0.83581  0.17850  Biso   1.000  H
  C45      1.0000 0.32199  0.92000  0.15778  Biso   1.000  C
  H32      1.0000 0.48657  0.98112  0.14180  Biso   1.000  H
  C46      1.0000 0.20241  0.98013  0.34949  Biso   1.000  C
  C47      1.0000 0.97963  0.94510  0.28973  Biso   1.000  C
  C48      1.0000 0.25110  0.98453  0.13232  Biso   1.000  C
  H33      1.0000 0.27140  0.98772  0.39168  Biso   1.000  H
  C49      1.0000 0.22516  0.98918  0.28499  Biso   1.000  C
  C50      1.0000 0.00155  0.95581  0.22522  Biso   1.000  C
  H34      1.0000 0.89526  0.92751  0.29068  Biso   1.000  H
  N5       1.0000 0.28263  0.02451  0.08081  Biso   1.000  N
  C51      1.0000 0.14920  0.00189  0.15570  Biso   1.000  C
  C52      1.0000 0.12491  0.97919  0.22218  Biso   1.000  C
  H35      1.0000 0.30953  0.00260  0.28349  Biso   1.000  H
  H36      1.0000 0.93233  0.94731  0.18292  Biso   1.000  H
  C53      1.0000 0.20909  0.07351  0.04752  Biso   1.000  C
  N6       1.0000 0.07078  0.04505  0.11799  Biso   1.000  N
  C54      1.0000 0.24589  0.11631  0.99260  Biso   1.000  C
  C55      1.0000 0.09941  0.07941  0.06360  Biso   1.000  C
  N7       1.0000 0.27386  0.14786  0.94790  Biso   1.000  N
  C56      1.0000 0.01070  0.12367  0.02322  Biso   1.000  C
  N8       1.0000 0.93984  0.15800  0.99078  Biso   1.000  N
