data_image0
_cell_length_a       29.804
_cell_length_b       10.38
_cell_length_c       31.855
_cell_angle_alpha    90
_cell_angle_beta     95.29
_cell_angle_gamma    90

_symmetry_space_group_name_H-M    "P 1"
_symmetry_int_tables_number       1

loop_
  _symmetry_equiv_pos_as_xyz
  'x, y, z'

loop_
  _atom_site_label
  _atom_site_occupancy
  _atom_site_fract_x
  _atom_site_fract_y
  _atom_site_fract_z
  _atom_site_thermal_displace_type
  _atom_site_B_iso_or_equiv
  _atom_site_type_symbol
  O1       1.0000 0.50370  0.39123  0.51527  Biso   1.000  O
  H1       1.0000 0.50680  0.46609  0.50591  Biso   1.000  H
  C1       1.0000 0.51066  0.39249  0.55726  Biso   1.000  C
  C2       1.0000 0.52510  0.50270  0.57987  Biso   1.000  C
  C3       1.0000 0.50240  0.27996  0.58009  Biso   1.000  C
  C4       1.0000 0.53262  0.50173  0.62347  Biso   1.000  C
  H2       1.0000 0.52981  0.58006  0.56499  Biso   1.000  H
  C5       1.0000 0.50935  0.27697  0.62369  Biso   1.000  C
  H3       1.0000 0.49192  0.20482  0.56530  Biso   1.000  H
  C6       1.0000 0.52525  0.38776  0.64513  Biso   1.000  C
  C7       1.0000 0.54852  0.62303  0.64869  Biso   1.000  C
  C8       1.0000 0.50047  0.15482  0.64932  Biso   1.000  C
  H4       1.0000 0.53121  0.38565  0.67489  Biso   1.000  H
  C9       1.0000 0.59441  0.60029  0.67170  Biso   1.000  C
  C10      1.0000 0.51450  0.65337  0.68107  Biso   1.000  C
  C11      1.0000 0.55116  0.74229  0.62028  Biso   1.000  C
  C12      1.0000 0.54451  0.10222  0.66997  Biso   1.000  C
  C13      1.0000 0.47733  0.04750  0.62151  Biso   1.000  C
  C14      1.0000 0.46896  0.18748  0.68368  Biso   1.000  C
  N1       1.0000 0.62854  0.54383  0.65200  Biso   1.000  N
  C15      1.0000 0.61247  0.63362  0.71099  Biso   1.000  C
  H5       1.0000 0.51350  0.58131  0.70080  Biso   1.000  H
  H6       1.0000 0.48450  0.66647  0.66631  Biso   1.000  H
  H7       1.0000 0.52392  0.73179  0.69661  Biso   1.000  H
  H8       1.0000 0.56002  0.81753  0.63769  Biso   1.000  H
  H9       1.0000 0.52159  0.75771  0.60490  Biso   1.000  H
  H10      1.0000 0.57360  0.72736  0.60011  Biso   1.000  H
  N2       1.0000 0.58333  0.10607  0.65020  Biso   1.000  N
  C16      1.0000 0.55385  0.03227  0.70585  Biso   1.000  C
  H11      1.0000 0.49711  0.02110  0.60020  Biso   1.000  H
  H12      1.0000 0.44890  0.08006  0.60748  Biso   1.000  H
  H13      1.0000 0.47121  0.97331  0.63911  Biso   1.000  H
  H14      1.0000 0.46532  0.11118  0.70121  Biso   1.000  H
  H15      1.0000 0.43949  0.21426  0.67029  Biso   1.000  H
  H16      1.0000 0.48212  0.25761  0.70140  Biso   1.000  H
  H17      1.0000 0.62571  0.51339  0.62609  Biso   1.000  H
  C17      1.0000 0.66774  0.54123  0.67832  Biso   1.000  C
  H18      1.0000 0.59701  0.67428  0.73211  Biso   1.000  H
  C18      1.0000 0.65865  0.59672  0.71480  Biso   1.000  C
  H19      1.0000 0.58611  0.14451  0.62599  Biso   1.000  H
  C19      1.0000 0.61762  0.04143  0.67369  Biso   1.000  C
  H20      1.0000 0.53321  0.01195  0.72590  Biso   1.000  H
  C20      1.0000 0.59986  0.99509  0.70799  Biso   1.000  C
  C21      1.0000 0.71138  0.49123  0.66291  Biso   1.000  C
  H21      1.0000 0.67941  0.60906  0.73889  Biso   1.000  H
  C22      1.0000 0.66382  0.02293  0.65771  Biso   1.000  C
  H22      1.0000 0.61541  0.94595  0.72990  Biso   1.000  H
  C23      1.0000 0.70227  0.36773  0.63684  Biso   1.000  C
  C24      1.0000 0.73164  0.60010  0.63734  Biso   1.000  C
  C25      1.0000 0.74501  0.46089  0.70112  Biso   1.000  C
  C26      1.0000 0.67780  0.14210  0.63403  Biso   1.000  C
  C27      1.0000 0.69856  0.99692  0.69554  Biso   1.000  C
  C28      1.0000 0.66161  0.90183  0.62981  Biso   1.000  C
  C29      1.0000 0.68585  0.25848  0.65619  Biso   1.000  C
  C30      1.0000 0.70994  0.36050  0.59421  Biso   1.000  C
  H23      1.0000 0.71040  0.62264  0.61310  Biso   1.000  H
  H24      1.0000 0.76001  0.57062  0.62731  Biso   1.000  H
  H25      1.0000 0.73731  0.67592  0.65540  Biso   1.000  H
  H26      1.0000 0.75041  0.53882  0.71821  Biso   1.000  H
  H27      1.0000 0.77340  0.43112  0.69131  Biso   1.000  H
  H28      1.0000 0.73260  0.39326  0.71821  Biso   1.000  H
  C31      1.0000 0.68499  0.13921  0.59191  Biso   1.000  C
  H29      1.0000 0.69902  0.06965  0.71521  Biso   1.000  H
  H30      1.0000 0.72851  0.98622  0.68561  Biso   1.000  H
  H31      1.0000 0.69032  0.91811  0.71001  Biso   1.000  H
  H32      1.0000 0.63951  0.91503  0.60540  Biso   1.000  H
  H33      1.0000 0.65252  0.82775  0.64620  Biso   1.000  H
  H34      1.0000 0.69132  0.88526  0.62010  Biso   1.000  H
  H35      1.0000 0.68000  0.26301  0.68501  Biso   1.000  H
  C32      1.0000 0.70102  0.24692  0.57214  Biso   1.000  C
  H36      1.0000 0.72121  0.43324  0.58050  Biso   1.000  H
  H37      1.0000 0.67881  0.06252  0.57621  Biso   1.000  H
  O2       1.0000 0.70815  0.23613  0.53072  Biso   1.000  O
  H38      1.0000 0.72301  0.29981  0.52350  Biso   1.000  H
  O3       1.0000 0.49630  0.60877  0.48475  Biso   1.000  O
  C33      1.0000 0.48937  0.60751  0.44273  Biso   1.000  C
  H39      1.0000 0.49319  0.53391  0.49412  Biso   1.000  H
  C34      1.0000 0.47493  0.49730  0.42012  Biso   1.000  C
  C35      1.0000 0.49763  0.72004  0.41993  Biso   1.000  C
  C36      1.0000 0.46741  0.49827  0.37652  Biso   1.000  C
  H40      1.0000 0.47019  0.41994  0.43500  Biso   1.000  H
  C37      1.0000 0.49068  0.72303  0.37633  Biso   1.000  C
  H41      1.0000 0.50811  0.79518  0.43469  Biso   1.000  H
  C38      1.0000 0.45147  0.37697  0.35130  Biso   1.000  C
  C39      1.0000 0.47474  0.61224  0.35489  Biso   1.000  C
  C40      1.0000 0.49956  0.84518  0.35067  Biso   1.000  C
  C41      1.0000 0.40562  0.39971  0.32832  Biso   1.000  C
  C42      1.0000 0.48549  0.34663  0.31892  Biso   1.000  C
  C43      1.0000 0.44884  0.25771  0.37971  Biso   1.000  C
  H42      1.0000 0.46882  0.61435  0.32510  Biso   1.000  H
  C44      1.0000 0.45552  0.89778  0.33002  Biso   1.000  C
  C45      1.0000 0.52270  0.95250  0.37851  Biso   1.000  C
  C46      1.0000 0.53103  0.81252  0.31631  Biso   1.000  C
  C47      1.0000 0.38753  0.36638  0.28904  Biso   1.000  C
  N3       1.0000 0.37146  0.45617  0.34802  Biso   1.000  N
  H43      1.0000 0.48650  0.41869  0.29919  Biso   1.000  H
  H44      1.0000 0.51550  0.33353  0.33371  Biso   1.000  H
  H45      1.0000 0.47611  0.26821  0.30341  Biso   1.000  H
  H46      1.0000 0.44001  0.18247  0.36230  Biso   1.000  H
  H47      1.0000 0.47840  0.24229  0.39509  Biso   1.000  H
  H48      1.0000 0.42640  0.27264  0.39991  Biso   1.000  H
  N4       1.0000 0.41667  0.89393  0.34979  Biso   1.000  N
  C48      1.0000 0.44618  0.96773  0.29414  Biso   1.000  C
  H49      1.0000 0.50289  0.97890  0.39979  Biso   1.000  H
  H50      1.0000 0.55109  0.91994  0.39251  Biso   1.000  H
  H51      1.0000 0.52882  0.02669  0.36092  Biso   1.000  H
  H52      1.0000 0.53471  0.88882  0.29881  Biso   1.000  H
  H53      1.0000 0.56051  0.78574  0.32970  Biso   1.000  H
  H54      1.0000 0.51791  0.74239  0.29859  Biso   1.000  H
  C49      1.0000 0.34138  0.40328  0.28519  Biso   1.000  C
  H55      1.0000 0.40299  0.32572  0.26791  Biso   1.000  H
  C50      1.0000 0.33226  0.45877  0.32170  Biso   1.000  C
  H56      1.0000 0.37432  0.48661  0.37390  Biso   1.000  H
  C51      1.0000 0.38241  0.95857  0.32630  Biso   1.000  C
  H57      1.0000 0.41392  0.85549  0.37400  Biso   1.000  H
  C52      1.0000 0.40017  0.00491  0.29200  Biso   1.000  C
  H58      1.0000 0.46682  0.98805  0.27409  Biso   1.000  H
  H59      1.0000 0.32059  0.39094  0.26110  Biso   1.000  H
  C53      1.0000 0.28862  0.50877  0.33708  Biso   1.000  C
  C54      1.0000 0.33617  0.97707  0.34228  Biso   1.000  C
  H60      1.0000 0.38462  0.05405  0.27009  Biso   1.000  H
  C55      1.0000 0.29773  0.63227  0.36315  Biso   1.000  C
  C56      1.0000 0.26839  0.39990  0.36265  Biso   1.000  C
  C57      1.0000 0.25502  0.53911  0.29887  Biso   1.000  C
  C58      1.0000 0.32220  0.85790  0.36599  Biso   1.000  C
  C59      1.0000 0.30144  0.00308  0.30445  Biso   1.000  C
  C60      1.0000 0.33842  0.09817  0.37018  Biso   1.000  C
  C61      1.0000 0.31414  0.74152  0.34380  Biso   1.000  C
  C62      1.0000 0.29005  0.63950  0.40578  Biso   1.000  C
  H61      1.0000 0.28960  0.37736  0.38689  Biso   1.000  H
  H62      1.0000 0.23999  0.42938  0.37271  Biso   1.000  H
  H63      1.0000 0.26272  0.32408  0.34458  Biso   1.000  H
  H64      1.0000 0.24962  0.46118  0.28182  Biso   1.000  H
  H65      1.0000 0.22660  0.56888  0.30871  Biso   1.000  H
  H66      1.0000 0.26740  0.60674  0.28182  Biso   1.000  H
  C63      1.0000 0.31504  0.86079  0.40808  Biso   1.000  C
  H67      1.0000 0.30102  0.93035  0.28481  Biso   1.000  H
  H68      1.0000 0.27152  0.01378  0.31441  Biso   1.000  H
  H69      1.0000 0.30972  0.08189  0.29001  Biso   1.000  H
  H70      1.0000 0.36052  0.08497  0.39459  Biso   1.000  H
  H71      1.0000 0.34751  0.17225  0.35379  Biso   1.000  H
  H72      1.0000 0.30871  0.11474  0.37989  Biso   1.000  H
  H73      1.0000 0.32000  0.73699  0.31501  Biso   1.000  H
  C64      1.0000 0.29897  0.75308  0.42788  Biso   1.000  C
  H74      1.0000 0.27879  0.56676  0.41949  Biso   1.000  H
  H75      1.0000 0.32122  0.93748  0.42381  Biso   1.000  H
  O4       1.0000 0.29188  0.76387  0.46930  Biso   1.000  O
  H76      1.0000 0.27699  0.70019  0.47649  Biso   1.000  H
  O5       1.0000 0.79188  0.23613  0.46930  Biso   1.000  O
  C65      1.0000 0.79897  0.24692  0.42788  Biso   1.000  C
  H77      1.0000 0.77702  0.29981  0.47649  Biso   1.000  H
  C66      1.0000 0.79005  0.36050  0.40578  Biso   1.000  C
  C67      1.0000 0.81504  0.13921  0.40808  Biso   1.000  C
  C68      1.0000 0.79773  0.36773  0.36315  Biso   1.000  C
  H78      1.0000 0.77882  0.43324  0.41949  Biso   1.000  H
  C69      1.0000 0.82223  0.14210  0.36599  Biso   1.000  C
  H79      1.0000 0.82122  0.06252  0.42381  Biso   1.000  H
  C70      1.0000 0.78865  0.49123  0.33708  Biso   1.000  C
  C71      1.0000 0.81414  0.25848  0.34380  Biso   1.000  C
  C72      1.0000 0.83617  0.02293  0.34228  Biso   1.000  C
  C73      1.0000 0.75502  0.46089  0.29887  Biso   1.000  C
  C74      1.0000 0.83230  0.54123  0.32170  Biso   1.000  C
  C75      1.0000 0.76839  0.60010  0.36265  Biso   1.000  C
  H80      1.0000 0.82000  0.26301  0.31501  Biso   1.000  H
  C76      1.0000 0.88241  0.04143  0.32630  Biso   1.000  C
  C77      1.0000 0.80144  0.99692  0.30445  Biso   1.000  C
  C78      1.0000 0.83842  0.90183  0.37018  Biso   1.000  C
  H81      1.0000 0.74962  0.53882  0.28182  Biso   1.000  H
  H82      1.0000 0.72660  0.43112  0.30871  Biso   1.000  H
  H83      1.0000 0.76740  0.39326  0.28182  Biso   1.000  H
  N5       1.0000 0.87146  0.54383  0.34802  Biso   1.000  N
  C79      1.0000 0.84138  0.59672  0.28519  Biso   1.000  C
  H84      1.0000 0.78960  0.62264  0.38689  Biso   1.000  H
  H85      1.0000 0.74002  0.57062  0.37271  Biso   1.000  H
  H86      1.0000 0.76272  0.67592  0.34458  Biso   1.000  H
  N6       1.0000 0.91667  0.10607  0.34979  Biso   1.000  N
  C80      1.0000 0.90017  0.99509  0.29200  Biso   1.000  C
  H87      1.0000 0.80102  0.06965  0.28481  Biso   1.000  H
  H88      1.0000 0.77152  0.98622  0.31441  Biso   1.000  H
  H89      1.0000 0.80972  0.91811  0.29001  Biso   1.000  H
  H90      1.0000 0.86052  0.91503  0.39459  Biso   1.000  H
  H91      1.0000 0.84751  0.82775  0.35379  Biso   1.000  H
  H92      1.0000 0.80871  0.88526  0.37989  Biso   1.000  H
  H93      1.0000 0.87432  0.51339  0.37390  Biso   1.000  H
  C81      1.0000 0.90562  0.60029  0.32832  Biso   1.000  C
  C82      1.0000 0.88753  0.63362  0.28904  Biso   1.000  C
  H94      1.0000 0.82062  0.60906  0.26110  Biso   1.000  H
  H95      1.0000 0.91392  0.14451  0.37400  Biso   1.000  H
  C83      1.0000 0.95552  0.10222  0.33002  Biso   1.000  C
  C84      1.0000 0.94618  0.03227  0.29414  Biso   1.000  C
  H96      1.0000 0.88462  0.94595  0.27009  Biso   1.000  H
  C85      1.0000 0.95147  0.62303  0.35130  Biso   1.000  C
  H97      1.0000 0.90303  0.67428  0.26791  Biso   1.000  H
  C86      1.0000 0.99956  0.15482  0.35067  Biso   1.000  C
  H98      1.0000 0.96682  0.01195  0.27409  Biso   1.000  H
  C87      1.0000 0.96741  0.50173  0.37652  Biso   1.000  C
  C88      1.0000 0.98549  0.65337  0.31892  Biso   1.000  C
  C89      1.0000 0.94884  0.74229  0.37971  Biso   1.000  C
  C90      1.0000 0.99068  0.27697  0.37633  Biso   1.000  C
  C91      1.0000 0.02270  0.04750  0.37851  Biso   1.000  C
  C92      1.0000 0.03103  0.18748  0.31631  Biso   1.000  C
  C93      1.0000 0.97478  0.38776  0.35489  Biso   1.000  C
  C94      1.0000 0.97493  0.50270  0.42012  Biso   1.000  C
  H99      1.0000 0.98650  0.58131  0.29919  Biso   1.000  H
  H100     1.0000 0.97611  0.73179  0.30341  Biso   1.000  H
  H101     1.0000 0.01550  0.66647  0.33371  Biso   1.000  H
  H102     1.0000 0.94001  0.81753  0.36230  Biso   1.000  H
  H103     1.0000 0.97840  0.75771  0.39509  Biso   1.000  H
  H104     1.0000 0.92640  0.72736  0.39991  Biso   1.000  H
  C95      1.0000 0.99763  0.27996  0.41993  Biso   1.000  C
  H105     1.0000 0.02879  0.97331  0.36092  Biso   1.000  H
  H106     1.0000 0.00289  0.02110  0.39979  Biso   1.000  H
  H107     1.0000 0.05109  0.08006  0.39251  Biso   1.000  H
  H108     1.0000 0.03471  0.11118  0.29881  Biso   1.000  H
  H109     1.0000 0.06051  0.21426  0.32970  Biso   1.000  H
  H110     1.0000 0.01791  0.25761  0.29859  Biso   1.000  H
  H111     1.0000 0.96882  0.38565  0.32510  Biso   1.000  H
  H112     1.0000 0.97022  0.58006  0.43500  Biso   1.000  H
  C96      1.0000 0.98937  0.39249  0.44273  Biso   1.000  C
  H113     1.0000 0.00811  0.20482  0.43469  Biso   1.000  H
  O6       1.0000 0.99630  0.39123  0.48475  Biso   1.000  O
  H114     1.0000 0.99323  0.46609  0.49412  Biso   1.000  H
  O7       1.0000 0.20815  0.76387  0.53072  Biso   1.000  O
  H115     1.0000 0.22301  0.70019  0.52350  Biso   1.000  H
  C97      1.0000 0.20102  0.75308  0.57214  Biso   1.000  C
  C98      1.0000 0.18499  0.86079  0.59191  Biso   1.000  C
  C99      1.0000 0.20994  0.63950  0.59421  Biso   1.000  C
  C100     1.0000 0.17780  0.85790  0.63403  Biso   1.000  C
  H116     1.0000 0.17881  0.93748  0.57621  Biso   1.000  H
  C101     1.0000 0.20227  0.63227  0.63684  Biso   1.000  C
  H117     1.0000 0.22121  0.56676  0.58050  Biso   1.000  H
  C102     1.0000 0.18585  0.74152  0.65619  Biso   1.000  C
  C103     1.0000 0.16382  0.97707  0.65771  Biso   1.000  C
  C104     1.0000 0.21138  0.50877  0.66291  Biso   1.000  C
  H118     1.0000 0.18000  0.73699  0.68501  Biso   1.000  H
  C105     1.0000 0.11759  0.95857  0.67369  Biso   1.000  C
  C106     1.0000 0.19856  0.00308  0.69554  Biso   1.000  C
  C107     1.0000 0.16161  0.09817  0.62981  Biso   1.000  C
  C108     1.0000 0.16774  0.45877  0.67832  Biso   1.000  C
  C109     1.0000 0.23164  0.39990  0.63734  Biso   1.000  C
  C110     1.0000 0.24501  0.53911  0.70112  Biso   1.000  C
  N7       1.0000 0.08333  0.89393  0.65020  Biso   1.000  N
  C111     1.0000 0.09986  0.00491  0.70799  Biso   1.000  C
  H119     1.0000 0.19902  0.93035  0.71521  Biso   1.000  H
  H120     1.0000 0.22851  0.01378  0.68561  Biso   1.000  H
  H121     1.0000 0.19032  0.08189  0.71001  Biso   1.000  H
  H122     1.0000 0.13951  0.08497  0.60540  Biso   1.000  H
  H123     1.0000 0.15249  0.17225  0.64620  Biso   1.000  H
  H124     1.0000 0.19129  0.11474  0.62010  Biso   1.000  H
  N8       1.0000 0.12854  0.45617  0.65200  Biso   1.000  N
  C112     1.0000 0.15865  0.40328  0.71480  Biso   1.000  C
  H125     1.0000 0.21040  0.37736  0.61310  Biso   1.000  H
  H126     1.0000 0.26001  0.42938  0.62731  Biso   1.000  H
  H127     1.0000 0.23731  0.32408  0.65540  Biso   1.000  H
  H128     1.0000 0.25041  0.46118  0.71821  Biso   1.000  H
  H129     1.0000 0.27340  0.56888  0.69131  Biso   1.000  H
  H130     1.0000 0.23260  0.60674  0.71821  Biso   1.000  H
  H131     1.0000 0.08611  0.85549  0.62599  Biso   1.000  H
  C113     1.0000 0.04448  0.89778  0.66997  Biso   1.000  C
  C114     1.0000 0.05382  0.96773  0.70585  Biso   1.000  C
  H132     1.0000 0.11541  0.05405  0.72990  Biso   1.000  H
  H133     1.0000 0.12571  0.48661  0.62609  Biso   1.000  H
  C115     1.0000 0.09441  0.39971  0.67170  Biso   1.000  C
  C116     1.0000 0.11247  0.36638  0.71099  Biso   1.000  C
  H134     1.0000 0.17941  0.39094  0.73889  Biso   1.000  H
  C117     1.0000 0.00047  0.84518  0.64932  Biso   1.000  C
  H135     1.0000 0.03321  0.98805  0.72590  Biso   1.000  H
  C118     1.0000 0.04852  0.37697  0.64869  Biso   1.000  C
  H136     1.0000 0.09701  0.32572  0.73211  Biso   1.000  H
  C119     1.0000 0.00932  0.72303  0.62369  Biso   1.000  C
  C120     1.0000 0.97733  0.95250  0.62151  Biso   1.000  C
  C121     1.0000 0.96900  0.81252  0.68368  Biso   1.000  C
  C122     1.0000 0.03262  0.49827  0.62347  Biso   1.000  C
  C123     1.0000 0.01450  0.34663  0.68107  Biso   1.000  C
  C124     1.0000 0.05116  0.25771  0.62028  Biso   1.000  C
  C125     1.0000 0.02525  0.61224  0.64513  Biso   1.000  C
  C126     1.0000 0.00240  0.72004  0.58009  Biso   1.000  C
  H137     1.0000 0.99711  0.97890  0.60020  Biso   1.000  H
  H138     1.0000 0.94890  0.91994  0.60748  Biso   1.000  H
  H139     1.0000 0.97121  0.02669  0.63911  Biso   1.000  H
  H140     1.0000 0.96532  0.88882  0.70121  Biso   1.000  H
  H141     1.0000 0.93952  0.78574  0.67029  Biso   1.000  H
  H142     1.0000 0.98212  0.74239  0.70140  Biso   1.000  H
  C127     1.0000 0.02506  0.49730  0.57987  Biso   1.000  C
  H143     1.0000 0.01350  0.41869  0.70080  Biso   1.000  H
  H144     1.0000 0.02389  0.26821  0.69661  Biso   1.000  H
  H145     1.0000 0.98453  0.33353  0.66631  Biso   1.000  H
  H146     1.0000 0.05999  0.18247  0.63769  Biso   1.000  H
  H147     1.0000 0.02159  0.24229  0.60490  Biso   1.000  H
  H148     1.0000 0.07360  0.27264  0.60011  Biso   1.000  H
  H149     1.0000 0.03121  0.61435  0.67489  Biso   1.000  H
  C128     1.0000 0.01066  0.60751  0.55726  Biso   1.000  C
  H150     1.0000 0.99192  0.79518  0.56530  Biso   1.000  H
  H151     1.0000 0.02981  0.41994  0.56499  Biso   1.000  H
  O8       1.0000 0.00370  0.60877  0.51527  Biso   1.000  O
  H152     1.0000 0.00680  0.53391  0.50591  Biso   1.000  H
  C129     1.0000 0.55384  0.46773  0.20587  Biso   1.000  C
  C130     1.0000 0.54450  0.39778  0.16996  Biso   1.000  C
  C131     1.0000 0.59985  0.50491  0.20801  Biso   1.000  C
  H153     1.0000 0.53320  0.48805  0.22589  Biso   1.000  H
  C132     1.0000 0.50046  0.34518  0.14934  Biso   1.000  C
  N9       1.0000 0.58335  0.39393  0.15022  Biso   1.000  N
  C133     1.0000 0.61760  0.45857  0.17368  Biso   1.000  C
  H154     1.0000 0.61539  0.55405  0.22989  Biso   1.000  H
  C134     1.0000 0.46898  0.31252  0.18367  Biso   1.000  C
  C135     1.0000 0.50934  0.22303  0.12368  Biso   1.000  C
  C136     1.0000 0.47731  0.45250  0.12150  Biso   1.000  C
  H155     1.0000 0.58610  0.35549  0.12601  Biso   1.000  H
  C137     1.0000 0.66384  0.47707  0.15773  Biso   1.000  C
  H156     1.0000 0.46530  0.38882  0.20120  Biso   1.000  H
  H157     1.0000 0.43951  0.28574  0.17031  Biso   1.000  H
  H158     1.0000 0.48210  0.24239  0.20139  Biso   1.000  H
  C138     1.0000 0.52527  0.11224  0.14512  Biso   1.000  C
  C139     1.0000 0.50239  0.22004  0.08008  Biso   1.000  C
  H159     1.0000 0.49709  0.47890  0.10019  Biso   1.000  H
  H160     1.0000 0.44889  0.41994  0.10751  Biso   1.000  H
  H161     1.0000 0.47120  0.52669  0.13910  Biso   1.000  H
  C140     1.0000 0.67782  0.35790  0.13402  Biso   1.000  C
  C141     1.0000 0.69858  0.50308  0.19556  Biso   1.000  C
  C142     1.0000 0.66160  0.59817  0.12983  Biso   1.000  C
  H162     1.0000 0.53119  0.11435  0.17491  Biso   1.000  H
  C143     1.0000 0.53260  0.99827  0.12346  Biso   1.000  C
  C144     1.0000 0.51064  0.10751  0.05728  Biso   1.000  C
  H163     1.0000 0.49191  0.29518  0.06529  Biso   1.000  H
  C145     1.0000 0.68587  0.24152  0.15621  Biso   1.000  C
  C146     1.0000 0.68497  0.36079  0.09190  Biso   1.000  C
  H164     1.0000 0.72850  0.51378  0.18560  Biso   1.000  H
  H165     1.0000 0.69030  0.58189  0.21000  Biso   1.000  H
  H166     1.0000 0.69900  0.43035  0.21520  Biso   1.000  H
  H167     1.0000 0.63950  0.58497  0.10539  Biso   1.000  H
  H168     1.0000 0.65251  0.67225  0.14619  Biso   1.000  H
  H169     1.0000 0.69131  0.61474  0.12008  Biso   1.000  H
  C147     1.0000 0.52508  0.99730  0.07986  Biso   1.000  C
  C148     1.0000 0.54854  0.87697  0.14871  Biso   1.000  C
  O9       1.0000 0.50372  0.10877  0.01526  Biso   1.000  O
  C149     1.0000 0.70229  0.13227  0.13686  Biso   1.000  C
  H170     1.0000 0.68002  0.23699  0.18500  Biso   1.000  H
  H171     1.0000 0.67879  0.43748  0.07620  Biso   1.000  H
  C150     1.0000 0.70104  0.25308  0.07213  Biso   1.000  C
  H172     1.0000 0.52979  0.91994  0.06501  Biso   1.000  H
  C151     1.0000 0.59439  0.89971  0.17169  Biso   1.000  C
  C152     1.0000 0.51452  0.84663  0.18106  Biso   1.000  C
  C153     1.0000 0.55118  0.75771  0.12031  Biso   1.000  C
  H173     1.0000 0.50682  0.03391  0.00590  Biso   1.000  H
  C154     1.0000 0.71136  0.00877  0.16293  Biso   1.000  C
  C155     1.0000 0.70996  0.13950  0.09420  Biso   1.000  C
  O10      1.0000 0.70813  0.26387  0.03071  Biso   1.000  O
  N10      1.0000 0.62855  0.95617  0.15199  Biso   1.000  N
  C156     1.0000 0.61249  0.86638  0.21098  Biso   1.000  C
  H174     1.0000 0.51351  0.91869  0.20079  Biso   1.000  H
  H175     1.0000 0.48451  0.83353  0.16630  Biso   1.000  H
  H176     1.0000 0.52390  0.76821  0.19660  Biso   1.000  H
  H177     1.0000 0.56001  0.68247  0.13771  Biso   1.000  H
  H178     1.0000 0.52161  0.74229  0.10489  Biso   1.000  H
  H179     1.0000 0.57361  0.77264  0.10010  Biso   1.000  H
  C157     1.0000 0.66775  0.95877  0.17831  Biso   1.000  C
  C158     1.0000 0.74499  0.03911  0.20111  Biso   1.000  C
  C159     1.0000 0.73162  0.89990  0.13733  Biso   1.000  C
  H180     1.0000 0.72122  0.06676  0.08049  Biso   1.000  H
  H181     1.0000 0.72302  0.20019  0.02349  Biso   1.000  H
  H182     1.0000 0.62570  0.98661  0.12611  Biso   1.000  H
  H183     1.0000 0.59702  0.82572  0.23210  Biso   1.000  H
  C160     1.0000 0.65863  0.90328  0.21479  Biso   1.000  C
  H184     1.0000 0.77341  0.06888  0.19130  Biso   1.000  H
  H185     1.0000 0.73261  0.10674  0.21820  Biso   1.000  H
  H186     1.0000 0.75040  0.96118  0.21820  Biso   1.000  H
  H187     1.0000 0.71041  0.87736  0.11309  Biso   1.000  H
  H188     1.0000 0.75999  0.92938  0.12730  Biso   1.000  H
  H189     1.0000 0.73730  0.82408  0.15539  Biso   1.000  H
  H190     1.0000 0.67939  0.89094  0.23891  Biso   1.000  H
  C161     1.0000 0.44616  0.53227  0.79415  Biso   1.000  C
  C162     1.0000 0.40015  0.49509  0.79201  Biso   1.000  C
  H191     1.0000 0.46680  0.51195  0.77410  Biso   1.000  H
  C163     1.0000 0.45550  0.60222  0.83003  Biso   1.000  C
  C164     1.0000 0.38239  0.54143  0.82631  Biso   1.000  C
  H192     1.0000 0.38460  0.44595  0.77010  Biso   1.000  H
  N11      1.0000 0.41668  0.60607  0.84980  Biso   1.000  N
  C165     1.0000 0.49954  0.65482  0.85068  Biso   1.000  C
  C166     1.0000 0.33619  0.52293  0.84229  Biso   1.000  C
  H193     1.0000 0.41390  0.64451  0.87401  Biso   1.000  H
  C167     1.0000 0.49066  0.77697  0.87631  Biso   1.000  C
  C168     1.0000 0.52268  0.54750  0.87849  Biso   1.000  C
  C169     1.0000 0.53105  0.68748  0.81632  Biso   1.000  C
  C170     1.0000 0.32221  0.64210  0.86597  Biso   1.000  C
  C171     1.0000 0.30146  0.49692  0.80446  Biso   1.000  C
  C172     1.0000 0.33840  0.40183  0.87020  Biso   1.000  C
  C173     1.0000 0.47476  0.88776  0.85487  Biso   1.000  C
  C174     1.0000 0.49761  0.77996  0.91991  Biso   1.000  C
  H194     1.0000 0.50291  0.52110  0.89980  Biso   1.000  H
  H195     1.0000 0.55111  0.58006  0.89248  Biso   1.000  H
  H196     1.0000 0.52880  0.47331  0.86089  Biso   1.000  H
  H197     1.0000 0.53469  0.61118  0.79879  Biso   1.000  H
  H198     1.0000 0.56052  0.71426  0.82972  Biso   1.000  H
  H199     1.0000 0.51790  0.75761  0.79860  Biso   1.000  H
  C175     1.0000 0.31416  0.75848  0.84381  Biso   1.000  C
  C176     1.0000 0.31502  0.63921  0.90809  Biso   1.000  C
  H200     1.0000 0.27150  0.48622  0.81439  Biso   1.000  H
  H201     1.0000 0.30969  0.41811  0.78999  Biso   1.000  H
  H202     1.0000 0.30100  0.56965  0.78479  Biso   1.000  H
  H203     1.0000 0.36050  0.41503  0.89460  Biso   1.000  H
  H204     1.0000 0.34749  0.32775  0.85380  Biso   1.000  H
  H205     1.0000 0.30869  0.38526  0.87991  Biso   1.000  H
  H206     1.0000 0.46881  0.88565  0.82511  Biso   1.000  H
  C177     1.0000 0.46740  0.00173  0.87653  Biso   1.000  C
  C178     1.0000 0.48936  0.89249  0.94274  Biso   1.000  C
  H207     1.0000 0.50809  0.70482  0.93470  Biso   1.000  H
  C179     1.0000 0.29775  0.86773  0.86316  Biso   1.000  C
  H208     1.0000 0.32001  0.76301  0.81499  Biso   1.000  H
  H209     1.0000 0.32120  0.56252  0.92379  Biso   1.000  H
  C180     1.0000 0.29899  0.74692  0.92786  Biso   1.000  C
  C181     1.0000 0.47491  0.00270  0.92013  Biso   1.000  C
  C182     1.0000 0.45149  0.12303  0.85131  Biso   1.000  C
  O11      1.0000 0.49631  0.89123  0.98473  Biso   1.000  O
  C183     1.0000 0.28864  0.99123  0.83709  Biso   1.000  C
  C184     1.0000 0.29007  0.86050  0.90579  Biso   1.000  C
  O12      1.0000 0.29186  0.73613  0.96928  Biso   1.000  O
  H210     1.0000 0.47021  0.08006  0.93501  Biso   1.000  H
  C185     1.0000 0.40560  0.10029  0.82830  Biso   1.000  C
  C186     1.0000 0.48551  0.15337  0.81893  Biso   1.000  C
  C187     1.0000 0.44885  0.24229  0.87972  Biso   1.000  C
  H211     1.0000 0.49321  0.96609  0.99409  Biso   1.000  H
  C188     1.0000 0.25501  0.96089  0.79888  Biso   1.000  C
  C189     1.0000 0.33228  0.04123  0.82168  Biso   1.000  C
  C190     1.0000 0.26837  0.10010  0.86266  Biso   1.000  C
  H212     1.0000 0.27881  0.93324  0.91950  Biso   1.000  H
  H213     1.0000 0.27701  0.79981  0.97650  Biso   1.000  H
  N12      1.0000 0.37148  0.04383  0.84800  Biso   1.000  N
  C191     1.0000 0.38754  0.13362  0.78901  Biso   1.000  C
  H214     1.0000 0.48652  0.08131  0.79920  Biso   1.000  H
  H215     1.0000 0.51552  0.16647  0.83369  Biso   1.000  H
  H216     1.0000 0.47609  0.23179  0.80339  Biso   1.000  H
  H217     1.0000 0.43999  0.31753  0.86231  Biso   1.000  H
  H218     1.0000 0.47842  0.25771  0.89510  Biso   1.000  H
  H219     1.0000 0.42642  0.22736  0.89989  Biso   1.000  H
  H220     1.0000 0.22662  0.93112  0.80869  Biso   1.000  H
  H221     1.0000 0.26742  0.89326  0.78179  Biso   1.000  H
  H222     1.0000 0.24960  0.03882  0.78179  Biso   1.000  H
  C192     1.0000 0.34137  0.09672  0.78520  Biso   1.000  C
  H223     1.0000 0.28962  0.12264  0.88690  Biso   1.000  H
  H224     1.0000 0.24000  0.07062  0.87269  Biso   1.000  H
  H225     1.0000 0.26270  0.17592  0.84460  Biso   1.000  H
  H226     1.0000 0.37430  0.01339  0.87392  Biso   1.000  H
  H227     1.0000 0.40301  0.17428  0.76789  Biso   1.000  H
  H228     1.0000 0.32061  0.10906  0.76111  Biso   1.000  H
  C193     1.0000 0.75501  0.03911  0.79888  Biso   1.000  C
  C194     1.0000 0.78864  0.00877  0.83709  Biso   1.000  C
  H229     1.0000 0.72662  0.06888  0.80869  Biso   1.000  H
  H230     1.0000 0.76742  0.10674  0.78179  Biso   1.000  H
  H231     1.0000 0.74960  0.96118  0.78179  Biso   1.000  H
  C195     1.0000 0.79775  0.13227  0.86316  Biso   1.000  C
  C196     1.0000 0.83228  0.95877  0.82168  Biso   1.000  C
  C197     1.0000 0.76837  0.89990  0.86266  Biso   1.000  C
  C198     1.0000 0.81416  0.24152  0.84381  Biso   1.000  C
  C199     1.0000 0.79007  0.13950  0.90579  Biso   1.000  C
  N13      1.0000 0.87148  0.95617  0.84800  Biso   1.000  N
  C200     1.0000 0.84137  0.90328  0.78520  Biso   1.000  C
  H232     1.0000 0.78962  0.87736  0.88690  Biso   1.000  H
  H233     1.0000 0.74000  0.92938  0.87269  Biso   1.000  H
  H234     1.0000 0.76270  0.82408  0.84460  Biso   1.000  H
  H235     1.0000 0.82001  0.23699  0.81499  Biso   1.000  H
  C201     1.0000 0.82221  0.35790  0.86597  Biso   1.000  C
  C202     1.0000 0.79899  0.25308  0.92786  Biso   1.000  C
  H236     1.0000 0.77881  0.06676  0.91950  Biso   1.000  H
  H237     1.0000 0.87430  0.98661  0.87392  Biso   1.000  H
  C203     1.0000 0.90560  0.89971  0.82830  Biso   1.000  C
  C204     1.0000 0.88754  0.86638  0.78901  Biso   1.000  C
  H238     1.0000 0.82061  0.89094  0.76111  Biso   1.000  H
  C205     1.0000 0.81502  0.36079  0.90809  Biso   1.000  C
  C206     1.0000 0.83619  0.47707  0.84229  Biso   1.000  C
  O13      1.0000 0.79186  0.26387  0.96928  Biso   1.000  O
  C207     1.0000 0.95149  0.87697  0.85131  Biso   1.000  C
  H239     1.0000 0.90301  0.82572  0.76789  Biso   1.000  H
  H240     1.0000 0.82120  0.43748  0.92379  Biso   1.000  H
  C208     1.0000 0.88243  0.45857  0.82631  Biso   1.000  C
  C209     1.0000 0.80146  0.50308  0.80446  Biso   1.000  C
  C210     1.0000 0.83840  0.59817  0.87020  Biso   1.000  C
  H241     1.0000 0.77701  0.20019  0.97650  Biso   1.000  H
  C211     1.0000 0.96740  0.99827  0.87653  Biso   1.000  C
  C212     1.0000 0.98551  0.84663  0.81893  Biso   1.000  C
  C213     1.0000 0.94885  0.75771  0.87972  Biso   1.000  C
  N14      1.0000 0.91668  0.39393  0.84980  Biso   1.000  N
  C214     1.0000 0.90015  0.50491  0.79201  Biso   1.000  C
  H242     1.0000 0.77150  0.51378  0.81439  Biso   1.000  H
  H243     1.0000 0.80969  0.58189  0.78999  Biso   1.000  H
  H244     1.0000 0.80100  0.43035  0.78479  Biso   1.000  H
  H245     1.0000 0.86050  0.58497  0.89460  Biso   1.000  H
  H246     1.0000 0.84752  0.67225  0.85380  Biso   1.000  H
  H247     1.0000 0.80872  0.61474  0.87991  Biso   1.000  H
  C215     1.0000 0.97476  0.11224  0.85487  Biso   1.000  C
  C216     1.0000 0.97495  0.99730  0.92013  Biso   1.000  C
  H248     1.0000 0.98652  0.91869  0.79920  Biso   1.000  H
  H249     1.0000 0.97613  0.76821  0.80339  Biso   1.000  H
  H250     1.0000 0.01548  0.83353  0.83369  Biso   1.000  H
  H251     1.0000 0.94003  0.68247  0.86231  Biso   1.000  H
  H252     1.0000 0.97842  0.74229  0.89510  Biso   1.000  H
  H253     1.0000 0.92642  0.77264  0.89989  Biso   1.000  H
  H254     1.0000 0.91390  0.35549  0.87401  Biso   1.000  H
  C217     1.0000 0.95553  0.39778  0.83003  Biso   1.000  C
  H255     1.0000 0.88460  0.55405  0.77010  Biso   1.000  H
  C218     1.0000 0.94619  0.46773  0.79415  Biso   1.000  C
  C219     1.0000 0.99069  0.22303  0.87631  Biso   1.000  C
  H256     1.0000 0.96881  0.11435  0.82511  Biso   1.000  H
  C220     1.0000 0.98936  0.10751  0.94274  Biso   1.000  C
  H257     1.0000 0.97021  0.91994  0.93501  Biso   1.000  H
  C221     1.0000 0.99954  0.34518  0.85068  Biso   1.000  C
  H258     1.0000 0.96680  0.48805  0.77410  Biso   1.000  H
  C222     1.0000 0.99761  0.22004  0.91991  Biso   1.000  C
  O14      1.0000 0.99631  0.10877  0.98473  Biso   1.000  O
  C223     1.0000 0.02268  0.45250  0.87849  Biso   1.000  C
  C224     1.0000 0.03102  0.31252  0.81632  Biso   1.000  C
  H259     1.0000 0.00809  0.29518  0.93470  Biso   1.000  H
  H260     1.0000 0.99321  0.03391  0.99409  Biso   1.000  H
  H261     1.0000 0.00291  0.47890  0.89980  Biso   1.000  H
  H262     1.0000 0.05111  0.41994  0.89248  Biso   1.000  H
  H263     1.0000 0.02880  0.52669  0.86089  Biso   1.000  H
  H264     1.0000 0.03469  0.38882  0.79879  Biso   1.000  H
  H265     1.0000 0.06049  0.28574  0.82972  Biso   1.000  H
  H266     1.0000 0.01790  0.24239  0.79860  Biso   1.000  H
  C225     1.0000 0.24499  0.96089  0.20111  Biso   1.000  C
  C226     1.0000 0.21136  0.99123  0.16293  Biso   1.000  C
  H267     1.0000 0.27341  0.93112  0.19130  Biso   1.000  H
  H268     1.0000 0.23261  0.89326  0.21820  Biso   1.000  H
  H269     1.0000 0.25040  0.03882  0.21820  Biso   1.000  H
  C227     1.0000 0.20229  0.86773  0.13686  Biso   1.000  C
  C228     1.0000 0.16772  0.04123  0.17831  Biso   1.000  C
  C229     1.0000 0.23162  0.10010  0.13733  Biso   1.000  C
  C230     1.0000 0.18587  0.75848  0.15621  Biso   1.000  C
  C231     1.0000 0.20993  0.86050  0.09420  Biso   1.000  C
  N15      1.0000 0.12855  0.04383  0.15199  Biso   1.000  N
  C232     1.0000 0.15863  0.09672  0.21479  Biso   1.000  C
  H270     1.0000 0.21041  0.12264  0.11309  Biso   1.000  H
  H271     1.0000 0.25999  0.07062  0.12730  Biso   1.000  H
  H272     1.0000 0.23730  0.17592  0.15539  Biso   1.000  H
  C233     1.0000 0.17778  0.64210  0.13402  Biso   1.000  C
  H273     1.0000 0.17999  0.76301  0.18500  Biso   1.000  H
  C234     1.0000 0.20104  0.74692  0.07213  Biso   1.000  C
  H274     1.0000 0.22119  0.93324  0.08049  Biso   1.000  H
  H275     1.0000 0.12570  0.01339  0.12611  Biso   1.000  H
  C235     1.0000 0.09439  0.10029  0.17169  Biso   1.000  C
  C236     1.0000 0.11246  0.13362  0.21098  Biso   1.000  C
  H276     1.0000 0.17939  0.10906  0.23891  Biso   1.000  H
  C237     1.0000 0.16384  0.52293  0.15773  Biso   1.000  C
  C238     1.0000 0.18497  0.63921  0.09190  Biso   1.000  C
  O15      1.0000 0.20813  0.73613  0.03071  Biso   1.000  O
  C239     1.0000 0.04854  0.12303  0.14871  Biso   1.000  C
  H277     1.0000 0.09699  0.17428  0.23210  Biso   1.000  H
  C240     1.0000 0.19858  0.49692  0.19556  Biso   1.000  C
  C241     1.0000 0.11760  0.54143  0.17368  Biso   1.000  C
  C242     1.0000 0.16160  0.40183  0.12983  Biso   1.000  C
  H278     1.0000 0.17879  0.56252  0.07620  Biso   1.000  H
  H279     1.0000 0.22299  0.79981  0.02349  Biso   1.000  H
  C243     1.0000 0.03260  0.00173  0.12346  Biso   1.000  C
  C244     1.0000 0.01452  0.15337  0.18106  Biso   1.000  C
  C245     1.0000 0.05118  0.24229  0.12031  Biso   1.000  C
  H280     1.0000 0.22850  0.48622  0.18560  Biso   1.000  H
  H281     1.0000 0.19030  0.41811  0.21000  Biso   1.000  H
  H282     1.0000 0.19900  0.56965  0.21520  Biso   1.000  H
  N16      1.0000 0.08335  0.60607  0.15022  Biso   1.000  N
  C246     1.0000 0.09985  0.49509  0.20801  Biso   1.000  C
  H283     1.0000 0.13950  0.41503  0.10539  Biso   1.000  H
  H284     1.0000 0.15251  0.32775  0.14619  Biso   1.000  H
  H285     1.0000 0.19131  0.38526  0.12008  Biso   1.000  H
  C247     1.0000 0.02524  0.88776  0.14512  Biso   1.000  C
  C248     1.0000 0.02508  0.00270  0.07986  Biso   1.000  C
  H286     1.0000 0.98451  0.16647  0.16630  Biso   1.000  H
  H287     1.0000 0.01351  0.08131  0.20079  Biso   1.000  H
  H288     1.0000 0.02390  0.23179  0.19660  Biso   1.000  H
  H289     1.0000 0.06001  0.31753  0.13771  Biso   1.000  H
  H290     1.0000 0.02161  0.25771  0.10489  Biso   1.000  H
  H291     1.0000 0.07361  0.22736  0.10010  Biso   1.000  H
  H292     1.0000 0.08610  0.64451  0.12601  Biso   1.000  H
  C249     1.0000 0.04450  0.60222  0.16996  Biso   1.000  C
  H293     1.0000 0.11539  0.44595  0.22989  Biso   1.000  H
  C250     1.0000 0.05384  0.53227  0.20587  Biso   1.000  C
  C251     1.0000 0.00934  0.77697  0.12368  Biso   1.000  C
  H294     1.0000 0.03119  0.88565  0.17491  Biso   1.000  H
  C252     1.0000 0.01064  0.89249  0.05728  Biso   1.000  C
  H295     1.0000 0.02979  0.08006  0.06501  Biso   1.000  H
  C253     1.0000 0.00046  0.65482  0.14934  Biso   1.000  C
  H296     1.0000 0.03320  0.51195  0.22589  Biso   1.000  H
  C254     1.0000 0.00239  0.77996  0.08008  Biso   1.000  C
  O16      1.0000 0.00368  0.89123  0.01526  Biso   1.000  O
  C255     1.0000 0.97731  0.54750  0.12150  Biso   1.000  C
  C256     1.0000 0.96898  0.68748  0.18367  Biso   1.000  C
  H297     1.0000 0.99191  0.70482  0.06529  Biso   1.000  H
  H298     1.0000 0.00679  0.96609  0.00590  Biso   1.000  H
  H299     1.0000 0.99712  0.52110  0.10019  Biso   1.000  H
  H300     1.0000 0.94892  0.58006  0.10751  Biso   1.000  H
  H301     1.0000 0.97123  0.47331  0.13910  Biso   1.000  H
  H302     1.0000 0.96530  0.61118  0.20120  Biso   1.000  H
  H303     1.0000 0.93951  0.71426  0.17031  Biso   1.000  H
  H304     1.0000 0.98210  0.75761  0.20139  Biso   1.000  H
