# generated using pymatgen
data_P2H34PtC22S2N4(O5F3)2
_symmetry_space_group_name_H-M   'P 1'
_cell_length_a   11.57260000
_cell_length_b   17.16000000
_cell_length_c   21.56800000
_cell_angle_alpha   80.90100000
_cell_angle_beta   74.90600000
_cell_angle_gamma   87.88800000
_symmetry_Int_Tables_number   1
_chemical_formula_structural   P2H34PtC22S2N4(O5F3)2
_chemical_formula_sum   'P8 H136 Pt4 C88 S8 N16 O40 F24'
_cell_volume   4083.25282973
_cell_formula_units_Z   4
loop_
 _symmetry_equiv_pos_site_id
 _symmetry_equiv_pos_as_xyz
  1  'x, y, z'
loop_
 _atom_site_type_symbol
 _atom_site_label
 _atom_site_symmetry_multiplicity
 _atom_site_fract_x
 _atom_site_fract_y
 _atom_site_fract_z
 _atom_site_occupancy
  P  P1  1  0.125600  0.853500  0.053900  1.0
  P  P2  1  0.874400  0.146500  0.946100  1.0
  P  P3  1  0.097300  0.700600  0.981200  1.0
  P  P4  1  0.902700  0.299400  0.018800  1.0
  P  P5  1  0.290300  0.109200  0.193900  1.0
  P  P6  1  0.709700  0.890800  0.806100  1.0
  P  P7  1  0.138300  0.013000  0.335200  1.0
  P  P8  1  0.861700  0.987000  0.664800  1.0
  H  H9  1  0.430100  0.347100  0.060200  1
  H  H10  1  0.569900  0.652900  0.939800  1
  H  H11  1  0.428900  0.426900  0.010700  1
  H  H12  1  0.571100  0.573100  0.989300  1
  H  H13  1  0.385700  0.345800  0.996000  1
  H  H14  1  0.614300  0.654200  0.004000  1
  H  H15  1  0.615900  0.148800  0.555100  1
  H  H16  1  0.384100  0.851200  0.444900  1
  H  H17  1  0.500000  0.137500  0.530000  1
  H  H18  1  0.500000  0.862500  0.470000  1
  H  H19  1  0.596400  0.204500  0.491800  1
  H  H20  1  0.403600  0.795500  0.508200  1
  H  H21  1  0.379500  0.671200  0.484400  1
  H  H22  1  0.620500  0.328800  0.515600  1
  H  H23  1  0.297400  0.747600  0.478100  1
  H  H24  1  0.702600  0.252400  0.521900  1
  H  H25  1  0.385400  0.721200  0.414400  1
  H  H26  1  0.614600  0.278800  0.585600  1
  H  H27  1  0.558800  0.519200  0.590400  1
  H  H28  1  0.441200  0.480800  0.409600  1
  H  H29  1  0.511000  0.563000  0.652400  1
  H  H30  1  0.489000  0.437000  0.347600  1
  H  H31  1  0.651800  0.556100  0.621300  1
  H  H32  1  0.348200  0.443900  0.378700  1
  H  H33  1  0.794100  0.674700  0.091200  1.0
  H  H34  1  0.205900  0.325300  0.908800  1.0
  H  H35  1  0.671000  0.566600  0.132100  1.0
  H  H36  1  0.329000  0.433400  0.867900  1.0
  H  H37  1  0.942600  0.445200  0.190000  1.0
  H  H38  1  0.057400  0.554800  0.810000  1.0
  H  H39  1  0.061300  0.555500  0.146100  1.0
  H  H40  1  0.938700  0.444500  0.853900  1.0
  H  H41  1  0.749300  0.379300  0.212600  1.0
  H  H42  1  0.250700  0.620700  0.787400  1.0
  H  H43  1  0.561400  0.467600  0.184700  1.0
  H  H44  1  0.438600  0.532400  0.815300  1.0
  H  H45  1  0.374300  0.408400  0.214600  1.0
  H  H46  1  0.625700  0.591600  0.785400  1.0
  H  H47  1  0.247700  0.297300  0.252500  1.0
  H  H48  1  0.752300  0.702700  0.747500  1.0
  H  H49  1  0.520400  0.162700  0.286700  1.0
  H  H50  1  0.479600  0.837300  0.713300  1.0
  H  H51  1  0.646000  0.268500  0.251500  1.0
  H  H52  1  0.354000  0.731500  0.748500  1.0
  H  H53  1  0.100200  0.218900  0.391700  1.0
  H  H54  1  0.899800  0.781100  0.608300  1.0
  H  H55  1  0.065300  0.243500  0.493800  1.0
  H  H56  1  0.934700  0.756500  0.506200  1.0
  H  H57  1  0.338000  0.105100  0.518800  1.0
  H  H58  1  0.662000  0.894900  0.481200  1.0
  H  H59  1  0.365900  0.079100  0.415400  1.0
  H  H60  1  0.634100  0.920900  0.584600  1.0
  H  H61  1  0.238700  0.165400  0.608000  1.0
  H  H62  1  0.761300  0.834600  0.392000  1.0
  H  H63  1  0.038900  0.249900  0.597400  1.0
  H  H64  1  0.961100  0.750100  0.402600  1.0
  H  H65  1  0.909900  0.297400  0.693100  1.0
  H  H66  1  0.090100  0.702600  0.306900  1.0
  H  H67  1  0.133200  0.699600  0.196400  1.0
  H  H68  1  0.866800  0.300400  0.803600  1.0
  H  H69  1  0.218500  0.185400  0.706500  1.0
  H  H70  1  0.781500  0.814600  0.293500  1.0
  H  H71  1  0.830700  0.800400  0.182800  1.0
  H  H72  1  0.169300  0.199600  0.817200  1.0
  H  H73  1  0.062400  0.892800  0.154000  1.0
  H  H74  1  0.937600  0.107200  0.846000  1.0
  H  H75  1  0.977500  0.928400  0.108700  1.0
  H  H76  1  0.022500  0.071600  0.891300  1.0
  H  H77  1  0.105900  0.967300  0.098800  1.0
  H  H78  1  0.894100  0.032700  0.901200  1.0
  H  H79  1  0.289200  0.823100  0.095700  1.0
  H  H80  1  0.710800  0.176900  0.904300  1.0
  H  H81  1  0.305400  0.908800  0.052500  1.0
  H  H82  1  0.694600  0.091200  0.947500  1.0
  H  H83  1  0.328500  0.831600  0.018100  1.0
  H  H84  1  0.671500  0.168400  0.981900  1.0
  H  H85  1  0.026000  0.911600  0.977800  1.0
  H  H86  1  0.974000  0.088400  0.022200  1.0
  H  H87  1  0.158900  0.887800  0.942000  1.0
  H  H88  1  0.841100  0.112200  0.058000  1.0
  H  H89  1  0.137100  0.965300  0.976100  1.0
  H  H90  1  0.862900  0.034700  0.023900  1.0
  H  H91  1  0.306500  0.700000  0.965400  1.0
  H  H92  1  0.693500  0.300000  0.034600  1.0
  H  H93  1  0.266600  0.779900  0.927300  1.0
  H  H94  1  0.733400  0.220100  0.072700  1.0
  H  H95  1  0.274700  0.699500  0.897600  1.0
  H  H96  1  0.725300  0.300500  0.102400  1.0
  H  H97  1  0.015000  0.803800  0.924900  1.0
  H  H98  1  0.985000  0.196200  0.075100  1.0
  H  H99  1  0.931600  0.727000  0.940900  1.0
  H  H100  1  0.068400  0.273000  0.059100  1.0
  H  H101  1  0.051000  0.733700  0.882700  1.0
  H  H102  1  0.949000  0.266300  0.117300  1.0
  H  H103  1  0.146200  0.570100  0.014400  1.0
  H  H104  1  0.853800  0.429900  0.985600  1.0
  H  H105  1  0.137300  0.581300  0.940700  1.0
  H  H106  1  0.862700  0.418700  0.059300  1.0
  H  H107  1  0.018000  0.573400  0.998900  1.0
  H  H108  1  0.982000  0.426600  0.001100  1.0
  H  H109  1  0.254100  0.975300  0.196200  1.0
  H  H110  1  0.745900  0.024700  0.803800  1.0
  H  H111  1  0.394900  0.990900  0.181300  1.0
  H  H112  1  0.605100  0.009100  0.818700  1.0
  H  H113  1  0.327600  0.013600  0.124900  1.0
  H  H114  1  0.672400  0.986400  0.875100  1.0
  H  H115  1  0.420500  0.216200  0.148800  1.0
  H  H116  1  0.579500  0.783800  0.851200  1.0
  H  H117  1  0.424400  0.160100  0.095700  1.0
  H  H118  1  0.575600  0.839900  0.904300  1.0
  H  H119  1  0.494600  0.135600  0.150700  1.0
  H  H120  1  0.505400  0.864400  0.849300  1.0
  H  H121  1  0.149500  0.207300  0.173900  1.0
  H  H122  1  0.850500  0.792700  0.826100  1.0
  H  H123  1  0.094000  0.121600  0.179700  1.0
  H  H124  1  0.906000  0.878400  0.820300  1.0
  H  H125  1  0.188200  0.158900  0.114100  1.0
  H  H126  1  0.811800  0.841100  0.885900  1.0
  H  H127  1  0.979700  0.047100  0.288800  1.0
  H  H128  1  0.020300  0.952900  0.711200  1.0
  H  H129  1  0.972200  0.955400  0.318700  1.0
  H  H130  1  0.027800  0.044600  0.681300  1.0
  H  H131  1  0.064800  0.985200  0.250400  1.0
  H  H132  1  0.935200  0.014800  0.749600  1.0
  H  H133  1  0.006600  0.059200  0.420500  1.0
  H  H134  1  0.993400  0.940800  0.579500  1.0
  H  H135  1  0.103200  0.002600  0.445700  1.0
  H  H136  1  0.896800  0.997400  0.554300  1.0
  H  H137  1  0.994200  0.965500  0.427200  1.0
  H  H138  1  0.005800  0.034500  0.572800  1.0
  H  H139  1  0.274800  0.916400  0.298200  1.0
  H  H140  1  0.725200  0.083600  0.701800  1.0
  H  H141  1  0.168200  0.877300  0.357100  1.0
  H  H142  1  0.831800  0.122700  0.642900  1.0
  H  H143  1  0.273000  0.924200  0.371500  1.0
  H  H144  1  0.727000  0.075800  0.628500  1.0
  Pt  Pt145  1  0.036890  0.732740  0.081630  1.0
  Pt  Pt146  1  0.963110  0.267260  0.918370  1.0
  Pt  Pt147  1  0.258110  0.120110  0.299280  1.0
  Pt  Pt148  1  0.741890  0.879890  0.700720  1.0
  C  C149  1  0.843000  0.315400  0.347300  1
  C  C150  1  0.157000  0.684600  0.652700  1
  C  C151  1  0.423900  0.646300  0.167900  1
  C  C152  1  0.576100  0.353700  0.832100  1
  C  C153  1  0.702000  0.027400  0.235100  1
  C  C154  1  0.298000  0.972600  0.764900  1
  C  C155  1  0.606000  0.906800  0.059300  1
  C  C156  1  0.394000  0.093200  0.940700  1
  C  C157  1  0.388000  0.377000  0.030000  1
  C  C158  1  0.612000  0.623000  0.970000  1
  C  C159  1  0.585000  0.151000  0.516500  1
  C  C160  1  0.415000  0.849000  0.483500  1
  C  C161  1  0.333000  0.702000  0.457000  1
  C  C162  1  0.667000  0.298000  0.543000  1
  C  C163  1  0.573000  0.563000  0.611800  1
  C  C164  1  0.427000  0.437000  0.388200  1
  C  C165  1  0.824000  0.628200  0.112000  1.0
  C  C166  1  0.176000  0.371800  0.888000  1.0
  C  C167  1  0.751000  0.564400  0.136600  1.0
  C  C168  1  0.249000  0.435600  0.863400  1.0
  C  C169  1  0.791000  0.495900  0.168300  1.0
  C  C170  1  0.209000  0.504100  0.831700  1.0
  C  C171  1  0.911000  0.492000  0.170800  1.0
  C  C172  1  0.089000  0.508000  0.829200  1.0
  C  C173  1  0.980000  0.556900  0.144900  1.0
  C  C174  1  0.020000  0.443100  0.855100  1.0
  C  C175  1  0.713000  0.425600  0.196000  1.0
  C  C176  1  0.287000  0.574400  0.804000  1.0
  C  C177  1  0.600000  0.421100  0.199700  1.0
  C  C178  1  0.400000  0.578900  0.800300  1.0
  C  C179  1  0.525000  0.349100  0.225600  1.0
  C  C180  1  0.475000  0.650900  0.774400  1.0
  C  C181  1  0.405000  0.358400  0.228200  1.0
  C  C182  1  0.595000  0.641600  0.771800  1.0
  C  C183  1  0.330000  0.291500  0.251600  1.0
  C  C184  1  0.670000  0.708500  0.748400  1.0
  C  C185  1  0.490000  0.212400  0.271800  1.0
  C  C186  1  0.510000  0.787600  0.728200  1.0
  C  C187  1  0.565000  0.274700  0.250200  1.0
  C  C188  1  0.435000  0.725300  0.749800  1.0
  C  C189  1  0.147000  0.192300  0.418900  1.0
  C  C190  1  0.853000  0.807700  0.581100  1.0
  C  C191  1  0.127000  0.207000  0.479300  1.0
  C  C192  1  0.873000  0.793000  0.520700  1.0
  C  C193  1  0.188000  0.175000  0.520000  1.0
  C  C194  1  0.812000  0.825000  0.480000  1.0
  C  C195  1  0.285000  0.126700  0.493500  1.0
  C  C196  1  0.715000  0.873300  0.506500  1.0
  C  C197  1  0.301000  0.111700  0.432700  1.0
  C  C198  1  0.699000  0.888300  0.567300  1.0
  C  C199  1  0.178000  0.186900  0.588000  1.0
  C  C200  1  0.822000  0.813100  0.412000  1.0
  C  C201  1  0.092000  0.224700  0.621100  1.0
  C  C202  1  0.908000  0.775300  0.378900  1.0
  C  C203  1  0.062000  0.235200  0.690600  1.0
  C  C204  1  0.938000  0.764800  0.309400  1.0
  C  C205  1  0.962000  0.273900  0.718000  1.0
  C  C206  1  0.038000  0.726100  0.282000  1.0
  C  C207  1  0.060000  0.722600  0.216600  1.0
  C  C208  1  0.940000  0.277400  0.783400  1.0
  C  C209  1  0.145000  0.208700  0.726100  1.0
  C  C210  1  0.855000  0.791300  0.273900  1.0
  C  C211  1  0.885000  0.782100  0.208000  1.0
  C  C212  1  0.115000  0.217900  0.792000  1.0
  C  C213  1  0.061000  0.917600  0.110100  1.0
  C  C214  1  0.939000  0.082400  0.889900  1.0
  C  C215  1  0.280000  0.854000  0.055200  1.0
  C  C216  1  0.720000  0.146000  0.944800  1.0
  C  C217  1  0.110000  0.911100  0.978900  1.0
  C  C218  1  0.890000  0.088900  0.021100  1.0
  C  C219  1  0.255000  0.723000  0.937800  1.0
  C  C220  1  0.745000  0.277000  0.062200  1.0
  C  C221  1  0.014000  0.746000  0.926200  1.0
  C  C222  1  0.986000  0.254000  0.073800  1.0
  C  C223  1  0.100000  0.594000  0.984100  1.0
  C  C224  1  0.900000  0.406000  0.015900  1.0
  C  C225  1  0.320000  0.010900  0.171500  1.0
  C  C226  1  0.680000  0.989100  0.828500  1.0
  C  C227  1  0.423000  0.161000  0.141200  1.0
  C  C228  1  0.577000  0.839000  0.858800  1.0
  C  C229  1  0.166000  0.155000  0.161600  1.0
  C  C230  1  0.834000  0.845000  0.838400  1.0
  C  C231  1  0.026000  0.999000  0.293500  1.0
  C  C232  1  0.974000  0.001000  0.706500  1.0
  C  C233  1  0.051000  0.010000  0.416200  1.0
  C  C234  1  0.949000  0.990000  0.583800  1.0
  C  C235  1  0.223000  0.922000  0.341000  1.0
  C  C236  1  0.777000  0.078000  0.659000  1.0
  S  S237  1  0.935000  0.260200  0.290900  1
  S  S238  1  0.065000  0.739800  0.709100  1
  S  S239  1  0.356500  0.587600  0.126500  1
  S  S240  1  0.643500  0.412400  0.873500  1
  S  S241  1  0.601900  0.970600  0.301900  1
  S  S242  1  0.398100  0.029400  0.698100  1
  S  S243  1  0.742500  0.859800  0.029400  1
  S  S244  1  0.257500  0.140200  0.970600  1
  N  N245  1  0.261000  0.393000  0.067200  1
  N  N246  1  0.739000  0.607000  0.932800  1
  N  N247  1  0.654000  0.092000  0.474000  1
  N  N248  1  0.346000  0.908000  0.526000  1
  N  N249  1  0.233000  0.651000  0.450000  1
  N  N250  1  0.767000  0.349000  0.550000  1
  N  N251  1  0.571000  0.641000  0.567000  1
  N  N252  1  0.429000  0.359000  0.433000  1
  N  N253  1  0.933600  0.626600  0.116300  1.0
  N  N254  1  0.066400  0.373400  0.883700  1.0
  N  N255  1  0.369000  0.219900  0.272700  1.0
  N  N256  1  0.631000  0.780100  0.727300  1.0
  N  N257  1  0.228600  0.141400  0.395400  1.0
  N  N258  1  0.771400  0.858600  0.604600  1.0
  N  N259  1  0.986900  0.748700  0.179300  1.0
  N  N260  1  0.013100  0.251300  0.820700  1.0
  O  O261  1  0.867000  0.267600  0.245100  1
  O  O262  1  0.133000  0.732400  0.754900  1
  O  O263  1  0.044400  0.301600  0.274900  1
  O  O264  1  0.955600  0.698400  0.725100  1
  O  O265  1  0.941000  0.185000  0.326200  1
  O  O266  1  0.059000  0.815000  0.673800  1
  O  O267  1  0.322000  0.649000  0.084600  1
  O  O268  1  0.678000  0.351000  0.915400  1
  O  O269  1  0.447000  0.532500  0.109900  1
  O  O270  1  0.553000  0.467500  0.890100  1
  O  O271  1  0.258000  0.555000  0.177400  1
  O  O272  1  0.742000  0.445000  0.822600  1
  O  O273  1  0.570000  0.916000  0.266000  1
  O  O274  1  0.430000  0.084000  0.734000  1
  O  O275  1  0.677000  0.944000  0.343000  1
  O  O276  1  0.323000  0.056000  0.657000  1
  O  O277  1  0.512000  0.022500  0.325900  1
  O  O278  1  0.488000  0.977500  0.674100  1
  O  O279  1  0.793000  0.917500  0.975300  1
  O  O280  1  0.207000  0.082500  0.024700  1
  O  O281  1  0.796000  0.853000  0.082500  1
  O  O282  1  0.204000  0.147000  0.917500  1
  O  O283  1  0.710000  0.789000  0.013300  1
  O  O284  1  0.290000  0.211000  0.986700  1
  O  O285  1  0.241000  0.350000  0.122300  1
  O  O286  1  0.759000  0.650000  0.877700  1
  O  O287  1  0.184000  0.433000  0.040000  1
  O  O288  1  0.816000  0.567000  0.960000  1
  O  O289  1  0.753000  0.088000  0.491000  1
  O  O290  1  0.247000  0.912000  0.509000  1
  O  O291  1  0.648000  0.105000  0.412000  1
  O  O292  1  0.352000  0.895000  0.588000  1
  O  O293  1  0.156000  0.702000  0.439000  1
  O  O294  1  0.844000  0.298000  0.561000  1
  O  O295  1  0.205000  0.585000  0.491000  1
  O  O296  1  0.795000  0.415000  0.509000  1
  O  O297  1  0.592000  0.691000  0.601000  1
  O  O298  1  0.408000  0.309000  0.399000  1
  O  O299  1  0.623000  0.644000  0.504300  1
  O  O300  1  0.377000  0.356000  0.495700  1
  F  F301  1  0.835000  0.392200  0.329500  1
  F  F302  1  0.165000  0.607800  0.670500  1
  F  F303  1  0.884000  0.306900  0.402200  1
  F  F304  1  0.116000  0.693100  0.597800  1
  F  F305  1  0.733000  0.289500  0.368000  1
  F  F306  1  0.267000  0.710500  0.632000  1
  F  F307  1  0.524000  0.682000  0.132000  1
  F  F308  1  0.476000  0.318000  0.868000  1
  F  F309  1  0.346000  0.704700  0.190500  1
  F  F310  1  0.654000  0.295300  0.809500  1
  F  F311  1  0.448000  0.603800  0.218800  1
  F  F312  1  0.552000  0.396200  0.781200  1
  F  F313  1  0.660000  0.062000  0.186200  1
  F  F314  1  0.340000  0.938000  0.813800  1
  F  F315  1  0.794000  0.979800  0.208100  1
  F  F316  1  0.206000  0.020200  0.791900  1
  F  F317  1  0.754000  0.086200  0.248100  1
  F  F318  1  0.246000  0.913800  0.751900  1
  F  F319  1  0.531000  0.864900  0.108600  1
  F  F320  1  0.469000  0.135100  0.891400  1
  F  F321  1  0.547000  0.925000  0.010600  1
  F  F322  1  0.453000  0.075000  0.989400  1
  F  F323  1  0.618500  0.973000  0.078900  1
  F  F324  1  0.381500  0.027000  0.921100  1
