# generated using pymatgen
data_Co2B36P6H144Pt3C72S4N8O19F12
_symmetry_space_group_name_H-M   'P 1'
_cell_length_a   17.86210000
_cell_length_b   18.11760000
_cell_length_c   24.72890000
_cell_angle_alpha   79.26710000
_cell_angle_beta   72.87450000
_cell_angle_gamma   62.50750000
_symmetry_Int_Tables_number   1
_chemical_formula_structural   Co2B36P6H144Pt3C72S4N8O19F12
_chemical_formula_sum   'Co4 B72 P12 H288 Pt6 C144 S8 N16 O38 F24'
_cell_volume   6772.28360009
_cell_formula_units_Z   2
loop_
 _symmetry_equiv_pos_site_id
 _symmetry_equiv_pos_as_xyz
  1  'x, y, z'
loop_
 _atom_site_type_symbol
 _atom_site_label
 _atom_site_symmetry_multiplicity
 _atom_site_fract_x
 _atom_site_fract_y
 _atom_site_fract_z
 _atom_site_occupancy
  Co  Co1  1  0.285040  0.566780  0.101950  1
  Co  Co2  1  0.714960  0.433220  0.898050  1
  Co  Co3  1  0.675680  0.064890  0.438600  1
  Co  Co4  1  0.324320  0.935110  0.561400  1
  B  B5  1  0.322700  0.651900  0.118500  1
  B  B6  1  0.677300  0.348100  0.881500  1
  B  B7  1  0.229500  0.646600  0.169200  1
  B  B8  1  0.770500  0.353400  0.830800  1
  B  B9  1  0.158100  0.653400  0.129000  1
  B  B10  1  0.841900  0.346600  0.871000  1
  B  B11  1  0.288400  0.752200  0.080100  1
  B  B12  1  0.711600  0.247800  0.919900  1
  B  B13  1  0.240900  0.742100  0.153400  1
  B  B14  1  0.759100  0.257900  0.846600  1
  B  B15  1  0.137800  0.744500  0.161000  1
  B  B16  1  0.862200  0.255500  0.839000  1
  B  B17  1  0.124200  0.753100  0.091000  1
  B  B18  1  0.875800  0.246900  0.909000  1
  B  B19  1  0.217200  0.758300  0.041900  1
  B  B20  1  0.782800  0.241700  0.958100  1
  B  B21  1  0.172800  0.808400  0.107000  1
  B  B22  1  0.827200  0.191600  0.893000  1
  B  B23  1  0.362100  0.468600  0.148900  1
  B  B24  1  0.637900  0.531400  0.851100  1
  B  B25  1  0.258100  0.473100  0.155000  1
  B  B26  1  0.741900  0.526900  0.845000  1
  B  B27  1  0.253300  0.480900  0.085200  1
  B  B28  1  0.746700  0.519100  0.914800  1
  B  B29  1  0.432700  0.391800  0.040800  1
  B  B30  1  0.567300  0.608200  0.959200  1
  B  B31  1  0.446500  0.380100  0.110100  1
  B  B32  1  0.553500  0.619900  0.889900  1
  B  B33  1  0.352100  0.375500  0.158400  1
  B  B34  1  0.647900  0.624500  0.841600  1
  B  B35  1  0.280400  0.382200  0.117700  1
  B  B36  1  0.719600  0.617800  0.882300  1
  B  B37  1  0.332000  0.390400  0.044900  1
  B  B38  1  0.668000  0.609600  0.955100  1
  B  B39  1  0.392500  0.327000  0.093300  1
  B  B40  1  0.607500  0.673000  0.906700  1
  B  B41  1  0.641000  0.186200  0.455900  1
  B  B42  1  0.359000  0.813800  0.544100  1
  B  B43  1  0.555800  0.174000  0.437800  1
  B  B44  1  0.444200  0.826000  0.562200  1
  B  B45  1  0.548400  0.086200  0.481800  1
  B  B46  1  0.451600  0.913800  0.518200  1
  B  B47  1  0.590900  0.128500  0.571200  1
  B  B48  1  0.409100  0.871500  0.428800  1
  B  B49  1  0.606000  0.209700  0.528700  1
  B  B50  1  0.394000  0.790300  0.471300  1
  B  B51  1  0.525000  0.249100  0.486400  1
  B  B52  1  0.475000  0.750900  0.513600  1
  B  B53  1  0.472600  0.185800  0.502400  1
  B  B54  1  0.527400  0.814200  0.497600  1
  B  B55  1  0.511800  0.112500  0.555000  1
  B  B56  1  0.488200  0.887500  0.445000  1
  B  B57  1  0.496000  0.208100  0.556600  1
  B  B58  1  0.504000  0.791900  0.443400  1
  B  B59  1  0.798600  0.043000  0.393100  1
  B  B60  1  0.201400  0.957000  0.606900  1
  B  B61  1  0.725700  0.079300  0.350900  1
  B  B62  1  0.274300  0.920700  0.649100  1
  B  B63  1  0.670700  0.013900  0.371300  1
  B  B64  1  0.329300  0.986100  0.628700  1
  B  B65  1  0.881400  0.942600  0.380700  1
  B  B66  1  0.118600  0.057400  0.619300  1
  B  B67  1  0.839300  0.014400  0.324800  1
  B  B68  1  0.160700  0.985600  0.675200  1
  B  B69  1  0.762500  0.991700  0.309400  1
  B  B70  1  0.237500  0.008300  0.690600  1
  B  B71  1  0.753100  0.908700  0.354800  1
  B  B72  1  0.246900  0.091300  0.645200  1
  B  B73  1  0.829100  0.879000  0.397800  1
  B  B74  1  0.170900  0.121000  0.602200  1
  B  B75  1  0.854700  0.912000  0.325800  1
  B  B76  1  0.145300  0.088000  0.674200  1
  P  P77  1  0.849900  0.018400  0.129550  1
  P  P78  1  0.150100  0.981600  0.870450  1
  P  P79  1  0.636000  0.100300  0.147460  1
  P  P80  1  0.364000  0.899700  0.852540  1
  P  P81  1  0.269000  0.119200  0.205400  1
  P  P82  1  0.731000  0.880800  0.794600  1
  P  P83  1  0.163300  0.002300  0.233400  1
  P  P84  1  0.836700  0.997700  0.766600  1
  P  P85  1  0.208000  0.445200  0.383180  1
  P  P86  1  0.792000  0.554800  0.616820  1
  P  P87  1  0.124900  0.651000  0.351870  1
  P  P88  1  0.875100  0.349000  0.648130  1
  H  H89  1  0.817000  0.840100  0.248200  1
  H  H90  1  0.183000  0.159900  0.751800  1
  H  H91  1  0.891900  0.697000  0.260200  1
  H  H92  1  0.108100  0.303000  0.739800  1
  H  H93  1  0.945100  0.685400  0.090700  1
  H  H94  1  0.054900  0.314600  0.909300  1
  H  H95  1  0.872400  0.828800  0.084000  1
  H  H96  1  0.127600  0.171200  0.916000  1
  H  H97  1  0.992900  0.557500  0.143800  1
  H  H98  1  0.007100  0.442500  0.856200  1
  H  H99  1  0.947800  0.559200  0.255800  1
  H  H100  1  0.052200  0.440800  0.744200  1
  H  H101  1  0.998200  0.424000  0.307400  1
  H  H102  1  0.001800  0.576000  0.692600  1
  H  H103  1  0.071100  0.278700  0.307900  1
  H  H104  1  0.928900  0.721300  0.692100  1
  H  H105  1  0.096400  0.280800  0.144400  1
  H  H106  1  0.903600  0.719200  0.855600  1
  H  H107  1  0.037800  0.432400  0.139000  1
  H  H108  1  0.962200  0.567600  0.861000  1
  H  H109  1  0.987300  0.157600  0.344700  1
  H  H110  1  0.012700  0.842400  0.655300  1
  H  H111  1  0.836700  0.228400  0.372500  1
  H  H112  1  0.163300  0.771600  0.627500  1
  H  H113  1  0.823300  0.261700  0.213100  1
  H  H114  1  0.176700  0.738300  0.786900  1
  H  H115  1  0.972400  0.191300  0.186400  1
  H  H116  1  0.027600  0.808700  0.813600  1
  H  H117  1  0.696600  0.327600  0.352500  1
  H  H118  1  0.303400  0.672400  0.647500  1
  H  H119  1  0.683000  0.294300  0.254000  1
  H  H120  1  0.317000  0.705700  0.746000  1
  H  H121  1  0.541700  0.335000  0.242900  1
  H  H122  1  0.458300  0.665000  0.757100  1
  H  H123  1  0.392400  0.416400  0.267700  1
  H  H124  1  0.607600  0.583600  0.732300  1
  H  H125  1  0.406500  0.473200  0.407600  1
  H  H126  1  0.593500  0.526800  0.592400  1
  H  H127  1  0.557100  0.394600  0.385800  1
  H  H128  1  0.442900  0.605400  0.614200  1
  H  H129  1  0.299600  0.669200  0.390100  1
  H  H130  1  0.700400  0.330800  0.609900  1
  H  H131  1  0.382000  0.741800  0.355100  1
  H  H132  1  0.618000  0.258200  0.644900  1
  H  H133  1  0.437900  0.663200  0.199900  1
  H  H134  1  0.562100  0.336800  0.800100  1
  H  H135  1  0.354200  0.591400  0.238400  1
  H  H136  1  0.645800  0.408600  0.761600  1
  H  H137  1  0.489400  0.759300  0.206800  1
  H  H138  1  0.510600  0.240700  0.793200  1
  H  H139  1  0.474600  0.799700  0.314000  1
  H  H140  1  0.525400  0.200300  0.686000  1
  H  H141  1  0.546500  0.881900  0.317300  1
  H  H142  1  0.453500  0.118100  0.682700  1
  H  H143  1  0.632900  0.951500  0.273600  1
  H  H144  1  0.367100  0.048500  0.726400  1
  H  H145  1  0.663600  0.879700  0.124100  1
  H  H146  1  0.336400  0.120300  0.875900  1
  H  H147  1  0.577800  0.811100  0.164400  1
  H  H148  1  0.422200  0.188900  0.835600  1
  H  H149  1  0.800300  0.117200  0.195600  1
  H  H150  1  0.199700  0.882800  0.804400  1
  H  H151  1  0.783800  0.162500  0.135400  1
  H  H152  1  0.216200  0.837500  0.864600  1
  H  H153  1  0.879000  0.123700  0.146500  1
  H  H154  1  0.121000  0.876300  0.853500  1
  H  H155  1  0.910700  0.971200  0.038900  1
  H  H156  1  0.089300  0.028800  0.961100  1
  H  H157  1  0.941100  0.038600  0.045800  1
  H  H158  1  0.058900  0.961400  0.954200  1
  H  H159  1  0.846000  0.068400  0.036700  1
  H  H160  1  0.154000  0.931600  0.963300  1
  H  H161  1  0.988500  0.967000  0.141100  1
  H  H162  1  0.011500  0.033000  0.858900  1
  H  H163  1  0.961900  0.892600  0.145400  1
  H  H164  1  0.038100  0.107400  0.854600  1
  H  H165  1  0.926000  0.949500  0.198000  1
  H  H166  1  0.074000  0.050500  0.802000  1
  H  H167  1  0.677100  0.122100  0.049500  1
  H  H168  1  0.322900  0.877900  0.950500  1
  H  H169  1  0.697700  0.178100  0.080700  1
  H  H170  1  0.302300  0.821900  0.919300  1
  H  H171  1  0.600300  0.206100  0.076700  1
  H  H172  1  0.399700  0.793900  0.923300  1
  H  H173  1  0.546000  0.218300  0.200100  1
  H  H174  1  0.454000  0.781700  0.799900  1
  H  H175  1  0.645500  0.191500  0.198200  1
  H  H176  1  0.354500  0.808500  0.801800  1
  H  H177  1  0.595200  0.141400  0.240100  1
  H  H178  1  0.404800  0.858600  0.759900  1
  H  H179  1  0.503500  0.141900  0.126700  1
  H  H180  1  0.496500  0.858100  0.873300  1
  H  H181  1  0.504500  0.094000  0.188000  1
  H  H182  1  0.495500  0.906000  0.812000  1
  H  H183  1  0.553100  0.042300  0.132100  1
  H  H184  1  0.446900  0.957700  0.867900  1
  H  H185  1  0.261900  0.204000  0.269400  1
  H  H186  1  0.738100  0.796000  0.730600  1
  H  H187  1  0.243700  0.256700  0.211300  1
  H  H188  1  0.756300  0.743300  0.788700  1
  H  H189  1  0.341100  0.194100  0.215400  1
  H  H190  1  0.658900  0.805900  0.784600  1
  H  H191  1  0.368400  0.110100  0.120200  1
  H  H192  1  0.631600  0.889900  0.879800  1
  H  H193  1  0.278700  0.191000  0.118700  1
  H  H194  1  0.721300  0.809000  0.881300  1
  H  H195  1  0.287600  0.100800  0.112100  1
  H  H196  1  0.712400  0.899200  0.887900  1
  H  H197  1  0.357300  0.982100  0.219100  1
  H  H198  1  0.642700  0.017900  0.780900  1
  H  H199  1  0.329300  0.030600  0.274900  1
  H  H200  1  0.670700  0.969400  0.725100  1
  H  H201  1  0.403000  0.038800  0.222000  1
  H  H202  1  0.597000  0.961200  0.778000  1
  H  H203  1  0.164400  0.947700  0.326000  1
  H  H204  1  0.835600  0.052300  0.674000  1
  H  H205  1  0.257000  0.946200  0.293600  1
  H  H206  1  0.743000  0.053800  0.706400  1
  H  H207  1  0.231600  0.877300  0.282500  1
  H  H208  1  0.768400  0.122700  0.717500  1
  H  H209  1  0.094700  0.925200  0.226600  1
  H  H210  1  0.905300  0.074800  0.773400  1
  H  H211  1  0.045700  0.019600  0.203600  1
  H  H212  1  0.954300  0.980400  0.796400  1
  H  H213  1  0.032100  0.996400  0.270400  1
  H  H214  1  0.967900  0.003600  0.729600  1
  H  H215  1  0.258800  0.892200  0.171600  1
  H  H216  1  0.741200  0.107800  0.828400  1
  H  H217  1  0.288900  0.965700  0.156400  1
  H  H218  1  0.711100  0.034300  0.843600  1
  H  H219  1  0.208200  0.974300  0.135600  1
  H  H220  1  0.791800  0.025700  0.864400  1
  H  H221  1  0.252400  0.324100  0.441400  1
  H  H222  1  0.747600  0.675900  0.558600  1
  H  H223  1  0.286700  0.386100  0.452500  1
  H  H224  1  0.713300  0.613900  0.547500  1
  H  H225  1  0.335100  0.331900  0.397800  1
  H  H226  1  0.664900  0.668100  0.602200  1
  H  H227  1  0.258100  0.388500  0.295800  1
  H  H228  1  0.741900  0.611500  0.704200  1
  H  H229  1  0.154200  0.437000  0.311100  1
  H  H230  1  0.845800  0.563000  0.688900  1
  H  H231  1  0.201400  0.346200  0.339900  1
  H  H232  1  0.798600  0.653800  0.660100  1
  H  H233  1  0.055700  0.518100  0.412700  1
  H  H234  1  0.944300  0.481900  0.587300  1
  H  H235  1  0.097700  0.493600  0.466100  1
  H  H236  1  0.902300  0.506400  0.533900  1
  H  H237  1  0.087000  0.425000  0.440700  1
  H  H238  1  0.913000  0.575000  0.559300  1
  H  H239  1  0.012800  0.690300  0.306600  1
  H  H240  1  0.987200  0.309700  0.693400  1
  H  H241  1  0.038900  0.597000  0.333700  1
  H  H242  1  0.961100  0.403000  0.666300  1
  H  H243  1  0.098500  0.615200  0.275500  1
  H  H244  1  0.901500  0.384800  0.724500  1
  H  H245  1  0.007300  0.733200  0.419900  1
  H  H246  1  0.992700  0.266800  0.580100  1
  H  H247  1  0.092200  0.686100  0.444700  1
  H  H248  1  0.907800  0.313900  0.555300  1
  H  H249  1  0.039200  0.636900  0.441000  1
  H  H250  1  0.960800  0.363100  0.559000  1
  H  H251  1  0.168300  0.737300  0.281400  1
  H  H252  1  0.831700  0.262700  0.718600  1
  H  H253  1  0.152600  0.766600  0.342600  1
  H  H254  1  0.847400  0.233400  0.657400  1
  H  H255  1  0.071500  0.789200  0.317100  1
  H  H256  1  0.928500  0.210800  0.682900  1
  H  H257  1  0.389100  0.620100  0.127000  1
  H  H258  1  0.610900  0.379900  0.873000  1
  H  H259  1  0.232300  0.612600  0.211800  1
  H  H260  1  0.767700  0.387400  0.788200  1
  H  H261  1  0.113200  0.622600  0.144400  1
  H  H262  1  0.886800  0.377400  0.855600  1
  H  H263  1  0.332200  0.784100  0.063500  1
  H  H264  1  0.667800  0.215900  0.936500  1
  H  H265  1  0.253700  0.768300  0.185500  1
  H  H266  1  0.746300  0.231700  0.814500  1
  H  H267  1  0.081800  0.772100  0.197900  1
  H  H268  1  0.918200  0.227900  0.802100  1
  H  H269  1  0.058700  0.785300  0.081100  1
  H  H270  1  0.941300  0.214700  0.918900  1
  H  H271  1  0.214700  0.793300  0.999600  1
  H  H272  1  0.785300  0.206700  0.000400  1
  H  H273  1  0.139100  0.877900  0.108700  1
  H  H274  1  0.860900  0.122100  0.891300  1
  H  H275  1  0.374500  0.490600  0.183400  1
  H  H276  1  0.625500  0.509400  0.816600  1
  H  H277  1  0.201500  0.497100  0.192300  1
  H  H278  1  0.798500  0.502900  0.807700  1
  H  H279  1  0.187500  0.514900  0.075800  1
  H  H280  1  0.812500  0.485100  0.924200  1
  H  H281  1  0.489000  0.367400  0.003500  1
  H  H282  1  0.511000  0.632600  0.996500  1
  H  H283  1  0.513000  0.346900  0.118400  1
  H  H284  1  0.487000  0.653100  0.881600  1
  H  H285  1  0.356900  0.337500  0.199500  1
  H  H286  1  0.643100  0.662500  0.800500  1
  H  H287  1  0.236200  0.350700  0.130800  1
  H  H288  1  0.763800  0.649300  0.869200  1
  H  H289  1  0.321700  0.365900  0.010700  1
  H  H290  1  0.678300  0.634100  0.989300  1
  H  H291  1  0.422600  0.257500  0.092000  1
  H  H292  1  0.577400  0.742500  0.908000  1
  H  H293  1  0.354600  0.641200  0.016200  1
  H  H294  1  0.645400  0.358800  0.983800  1
  H  H295  1  0.194800  0.644500  0.026600  1
  H  H296  1  0.805200  0.355500  0.973400  1
  H  H297  1  0.454200  0.505200  0.060400  1
  H  H298  1  0.545800  0.494800  0.939600  1
  H  H299  1  0.342600  0.519400  0.998900  1
  H  H300  1  0.657400  0.480600  0.001100  1
  H  H301  1  0.683000  0.213000  0.424400  1
  H  H302  1  0.317000  0.787000  0.575600  1
  H  H303  1  0.540500  0.193200  0.395100  1
  H  H304  1  0.459500  0.806800  0.604900  1
  H  H305  1  0.528900  0.044000  0.467300  1
  H  H306  1  0.471100  0.956000  0.532700  1
  H  H307  1  0.602600  0.114600  0.614800  1
  H  H308  1  0.397400  0.885400  0.385200  1
  H  H309  1  0.626400  0.250200  0.543900  1
  H  H310  1  0.373600  0.749800  0.456100  1
  H  H311  1  0.491800  0.317200  0.474500  1
  H  H312  1  0.508200  0.682800  0.525500  1
  H  H313  1  0.403500  0.210500  0.499800  1
  H  H314  1  0.596500  0.789500  0.500200  1
  H  H315  1  0.471000  0.086200  0.588100  1
  H  H316  1  0.529000  0.913800  0.411900  1
  H  H317  1  0.442800  0.248400  0.590300  1
  H  H318  1  0.557200  0.751600  0.409700  1
  H  H319  1  0.816100  0.088700  0.405100  1
  H  H320  1  0.183900  0.911300  0.594900  1
  H  H321  1  0.694300  0.144900  0.333200  1
  H  H322  1  0.305700  0.855100  0.666800  1
  H  H323  1  0.602500  0.035600  0.367800  1
  H  H324  1  0.397500  0.964400  0.632200  1
  H  H325  1  0.949000  0.920200  0.385500  1
  H  H326  1  0.051000  0.079800  0.614500  1
  H  H327  1  0.881300  0.039500  0.291800  1
  H  H328  1  0.118700  0.960500  0.708200  1
  H  H329  1  0.753300  0.000600  0.265300  1
  H  H330  1  0.246700  0.999400  0.734700  1
  H  H331  1  0.737000  0.862300  0.342500  1
  H  H332  1  0.263000  0.137700  0.657500  1
  H  H333  1  0.863400  0.812900  0.413900  1
  H  H334  1  0.136600  0.187100  0.586100  1
  H  H335  1  0.905700  0.868700  0.292700  1
  H  H336  1  0.094300  0.131300  0.707300  1
  H  H337  1  0.740900  0.090700  0.513000  1
  H  H338  1  0.259100  0.909300  0.487000  1
  H  H339  1  0.650700  0.988000  0.539200  1
  H  H340  1  0.349300  0.012000  0.460800  1
  H  H341  1  0.805600  0.949700  0.478300  1
  H  H342  1  0.194400  0.050300  0.521700  1
  H  H343  1  0.675000  0.917900  0.456100  1
  H  H344  1  0.325000  0.082100  0.543900  1
  H  H345  1  0.371100  0.181200  0.409400  1
  H  H346  1  0.628900  0.818800  0.590600  1
  H  H347  1  0.453200  0.091900  0.402000  1
  H  H348  1  0.546800  0.908100  0.598000  1
  H  H349  1  0.361000  0.102700  0.397600  1
  H  H350  1  0.639000  0.897300  0.602400  1
  H  H351  1  0.740000  0.322000  0.434900  1
  H  H352  1  0.260000  0.678000  0.565100  1
  H  H353  1  0.786700  0.377500  0.396400  1
  H  H354  1  0.213300  0.622500  0.603600  1
  H  H355  1  0.685400  0.420800  0.426800  1
  H  H356  1  0.314600  0.579200  0.573200  1
  H  H357  1  0.174000  0.300100  0.983700  1
  H  H358  1  0.826000  0.699900  0.016300  1
  H  H359  1  0.231000  0.270200  0.921700  1
  H  H360  1  0.769000  0.729800  0.078300  1
  H  H361  1  0.233900  0.344100  0.946500  1
  H  H362  1  0.766100  0.655900  0.053500  1
  H  H363  1  0.297100  0.246600  0.018600  1
  H  H364  1  0.702900  0.753400  0.981400  1
  H  H365  1  0.300700  0.174000  0.988500  1
  H  H366  1  0.699300  0.826000  0.011500  1
  H  H367  1  0.467600  0.222600  0.995800  1
  H  H368  1  0.532400  0.777400  0.004200  1
  H  H369  1  0.492400  0.126400  0.987000  1
  H  H370  1  0.507600  0.873600  0.013000  1
  H  H371  1  0.588100  0.174500  0.913300  1
  H  H372  1  0.411900  0.825500  0.086700  1
  H  H373  1  0.504000  0.247500  0.894800  1
  H  H374  1  0.496000  0.752500  0.105200  1
  H  H375  1  0.529800  0.152400  0.886700  1
  H  H376  1  0.470200  0.847600  0.113300  1
  Pt  Pt377  1  0.744380  0.974010  0.159040  1
  Pt  Pt378  1  0.255620  0.025990  0.840960  1
  Pt  Pt379  1  0.128910  0.138150  0.233950  1
  Pt  Pt380  1  0.871090  0.861850  0.766050  1
  Pt  Pt381  1  0.257310  0.543510  0.349610  1
  Pt  Pt382  1  0.742690  0.456490  0.650390  1
  C  C383  1  0.842900  0.808100  0.215800  1
  C  C384  1  0.157100  0.191900  0.784200  1
  C  C385  1  0.886700  0.722900  0.223500  1
  C  C386  1  0.113300  0.277100  0.776500  1
  C  C387  1  0.923200  0.675900  0.176200  1
  C  C388  1  0.076800  0.324100  0.823800  1
  C  C389  1  0.918500  0.715900  0.124000  1
  C  C390  1  0.081500  0.284100  0.876000  1
  C  C391  1  0.874500  0.801300  0.120600  1
  C  C392  1  0.125500  0.198700  0.879400  1
  C  C393  1  0.966700  0.582300  0.179300  1
  C  C394  1  0.033300  0.417700  0.820700  1
  C  C395  1  0.973100  0.534200  0.220400  1
  C  C396  1  0.026900  0.465800  0.779600  1
  C  C397  1  0.016100  0.438400  0.223900  1
  C  C398  1  0.983900  0.561600  0.776100  1
  C  C399  1  0.021300  0.396400  0.273100  1
  C  C400  1  0.978700  0.603600  0.726900  1
  C  C401  1  0.061900  0.309700  0.273100  1
  C  C402  1  0.938100  0.690300  0.726900  1
  C  C403  1  0.079400  0.309800  0.177400  1
  C  C404  1  0.920600  0.690200  0.822600  1
  C  C405  1  0.042800  0.400800  0.174100  1
  C  C406  1  0.957200  0.599200  0.825900  1
  C  C407  1  0.954400  0.182000  0.316700  1
  C  C408  1  0.045600  0.818000  0.683300  1
  C  C409  1  0.864000  0.224300  0.333200  1
  C  C410  1  0.136000  0.775700  0.666800  1
  C  C411  1  0.814600  0.259200  0.296000  1
  C  C412  1  0.185400  0.740800  0.704000  1
  C  C413  1  0.856000  0.243600  0.241000  1
  C  C414  1  0.144000  0.756400  0.759000  1
  C  C415  1  0.945200  0.201800  0.225200  1
  C  C416  1  0.054800  0.798200  0.774800  1
  C  C417  1  0.717900  0.305100  0.316300  1
  C  C418  1  0.282100  0.694900  0.683700  1
  C  C419  1  0.661300  0.316900  0.290100  1
  C  C420  1  0.338700  0.683100  0.709900  1
  C  C421  1  0.565800  0.361500  0.309400  1
  C  C422  1  0.434200  0.638500  0.690600  1
  C  C423  1  0.516000  0.364600  0.276500  1
  C  C424  1  0.484000  0.635400  0.723500  1
  C  C425  1  0.426400  0.411800  0.292400  1
  C  C426  1  0.573600  0.588200  0.707600  1
  C  C427  1  0.434300  0.445000  0.373400  1
  C  C428  1  0.565700  0.555000  0.626600  1
  C  C429  1  0.524400  0.399400  0.360100  1
  C  C430  1  0.475600  0.600600  0.639900  1
  C  C431  1  0.328300  0.667800  0.351000  1
  C  C432  1  0.671700  0.332200  0.649000  1
  C  C433  1  0.376800  0.711400  0.330100  1
  C  C434  1  0.623200  0.288600  0.669900  1
  C  C435  1  0.418700  0.712400  0.273500  1
  C  C436  1  0.581300  0.287600  0.726500  1
  C  C437  1  0.409900  0.665500  0.239100  1
  C  C438  1  0.590100  0.334500  0.760900  1
  C  C439  1  0.360300  0.622600  0.262400  1
  C  C440  1  0.639700  0.377400  0.737600  1
  C  C441  1  0.470900  0.757900  0.247000  1
  C  C442  1  0.529100  0.242100  0.753000  1
  C  C443  1  0.495300  0.798000  0.274000  1
  C  C444  1  0.504700  0.202000  0.726000  1
  C  C445  1  0.552000  0.839500  0.245800  1
  C  C446  1  0.448000  0.160500  0.754200  1
  C  C447  1  0.569600  0.881100  0.277500  1
  C  C448  1  0.430400  0.118900  0.722500  1
  C  C449  1  0.621300  0.922400  0.251300  1
  C  C450  1  0.378700  0.077600  0.748700  1
  C  C451  1  0.639100  0.880600  0.163900  1
  C  C452  1  0.360900  0.119400  0.836100  1
  C  C453  1  0.588400  0.839700  0.187700  1
  C  C454  1  0.411600  0.160300  0.812300  1
  C  C455  1  0.825400  0.116700  0.154600  1
  C  C456  1  0.174600  0.883300  0.845400  1
  C  C457  1  0.891700  0.024900  0.054200  1
  C  C458  1  0.108300  0.975100  0.945800  1
  C  C459  1  0.941900  0.949100  0.156500  1
  C  C460  1  0.058100  0.050900  0.843500  1
  C  C461  1  0.654900  0.158300  0.081000  1
  C  C462  1  0.345100  0.841700  0.919000  1
  C  C463  1  0.601700  0.171100  0.202900  1
  C  C464  1  0.398300  0.828900  0.797100  1
  C  C465  1  0.538200  0.093900  0.148700  1
  C  C466  1  0.461800  0.906100  0.851300  1
  C  C467  1  0.280200  0.203200  0.228000  1
  C  C468  1  0.719800  0.796800  0.772000  1
  C  C469  1  0.305000  0.131700  0.130700  1
  C  C470  1  0.695000  0.868300  0.869300  1
  C  C471  1  0.348300  0.033200  0.233400  1
  C  C472  1  0.651700  0.966800  0.766600  1
  C  C473  1  0.209300  0.935800  0.290400  1
  C  C474  1  0.790700  0.064200  0.709600  1
  C  C475  1  0.073900  0.983800  0.233500  1
  C  C476  1  0.926100  0.016200  0.766500  1
  C  C477  1  0.238800  0.952700  0.166200  1
  C  C478  1  0.761200  0.047300  0.833800  1
  C  C479  1  0.278600  0.362300  0.423300  1
  C  C480  1  0.721400  0.637700  0.576700  1
  C  C481  1  0.205100  0.399000  0.326000  1
  C  C482  1  0.794900  0.601000  0.674000  1
  C  C483  1  0.099400  0.473800  0.431300  1
  C  C484  1  0.900600  0.526200  0.568700  1
  C  C485  1  0.061400  0.636700  0.312400  1
  C  C486  1  0.938600  0.363300  0.687600  1
  C  C487  1  0.058200  0.680100  0.422500  1
  C  C488  1  0.941800  0.319900  0.577500  1
  C  C489  1  0.129900  0.747000  0.319500  1
  C  C490  1  0.870100  0.253000  0.680500  1
  C  C491  1  0.299500  0.666400  0.054100  1
  C  C492  1  0.700500  0.333600  0.945900  1
  C  C493  1  0.207200  0.668000  0.060300  1
  C  C494  1  0.792800  0.332000  0.939700  1
  C  C495  1  0.408600  0.475200  0.076100  1
  C  C496  1  0.591400  0.524800  0.923900  1
  C  C497  1  0.344300  0.482700  0.040700  1
  C  C498  1  0.655700  0.517300  0.959300  1
  C  C499  1  0.672600  0.114800  0.508800  1
  C  C500  1  0.327400  0.885200  0.491200  1
  C  C501  1  0.619600  0.055200  0.524200  1
  C  C502  1  0.380400  0.944800  0.475800  1
  C  C503  1  0.792700  0.962700  0.435000  1
  C  C504  1  0.207300  0.037300  0.565000  1
  C  C505  1  0.715900  0.944200  0.423000  1
  C  C506  1  0.284100  0.055800  0.577000  1
  C  C507  1  0.984700  0.228600  0.052600  1
  C  C508  1  0.015300  0.771400  0.947400  1
  C  C509  1  0.095900  0.209200  0.445300  1
  C  C510  1  0.904100  0.790800  0.554700  1
  C  C511  1  0.605200  0.484700  0.130900  1
  C  C512  1  0.394800  0.515300  0.869100  1
  C  C513  1  0.193000  0.382200  0.597800  1
  C  C514  1  0.807000  0.617800  0.402200  1
  C  C515  1  0.400100  0.129600  0.389400  1
  C  C516  1  0.599900  0.870400  0.610600  1
  C  C517  1  0.742000  0.376000  0.430500  1
  C  C518  1  0.258000  0.624000  0.569500  1
  C  C519  1  0.229000  0.291000  0.956000  1
  C  C520  1  0.771000  0.709000  0.044000  1
  C  C521  1  0.304000  0.228000  0.981400  1
  C  C522  1  0.696000  0.772000  0.018600  1
  C  C523  1  0.474000  0.184000  0.969600  1
  C  C524  1  0.526000  0.816000  0.030400  1
  C  C525  1  0.528800  0.190100  0.910900  1
  C  C526  1  0.471200  0.809900  0.089100  1
  S  S527  1  0.078400  0.139200  0.065690  1
  S  S528  1  0.921600  0.860800  0.934310  1
  S  S529  1  0.168100  0.131400  0.396300  1
  S  S530  1  0.831900  0.868600  0.603700  1
  S  S531  1  0.682300  0.385800  0.106700  1
  S  S532  1  0.317700  0.614200  0.893300  1
  S  S533  1  0.124700  0.490400  0.601200  1
  S  S534  1  0.875300  0.509600  0.398800  1
  N  N535  1  0.834500  0.848300  0.165400  1
  N  N536  1  0.165500  0.151700  0.834600  1
  N  N537  1  0.088500  0.268300  0.227000  1
  N  N538  1  0.911500  0.731700  0.773000  1
  N  N539  1  0.994900  0.175500  0.262000  1
  N  N540  1  0.005100  0.824500  0.738000  1
  N  N541  1  0.386500  0.450100  0.339800  1
  N  N542  1  0.613500  0.549900  0.660200  1
  N  N543  1  0.320300  0.622800  0.317100  1
  N  N544  1  0.679700  0.377200  0.682900  1
  N  N545  1  0.655100  0.921800  0.195400  1
  N  N546  1  0.344900  0.078200  0.804600  1
  N  N547  1  0.422700  0.149400  0.327500  1
  N  N548  1  0.577300  0.850600  0.672500  1
  N  N549  1  0.763600  0.387000  0.480700  1
  N  N550  1  0.236400  0.613000  0.519300  1
  O  O551  1  0.118300  0.164300  0.094900  1
  O  O552  1  0.881700  0.835700  0.905100  1
  O  O553  1  0.123400  0.114500  0.010200  1
  O  O554  1  0.876600  0.885500  0.989800  1
  O  O555  1  0.038200  0.085700  0.103100  1
  O  O556  1  0.961800  0.914300  0.896900  1
  O  O557  1  0.223500  0.069300  0.427600  1
  O  O558  1  0.776500  0.930700  0.572400  1
  O  O559  1  0.107600  0.123800  0.374400  1
  O  O560  1  0.892400  0.876200  0.625600  1
  O  O561  1  0.214800  0.177600  0.352500  1
  O  O562  1  0.785200  0.822400  0.647500  1
  O  O563  1  0.678800  0.326300  0.151600  1
  O  O564  1  0.321200  0.673700  0.848400  1
  O  O565  1  0.637000  0.390000  0.064600  1
  O  O566  1  0.363000  0.610000  0.935400  1
  O  O567  1  0.764700  0.388000  0.072300  1
  O  O568  1  0.235300  0.612000  0.927700  1
  O  O569  1  0.164000  0.527000  0.625100  1
  O  O570  1  0.836000  0.473000  0.374900  1
  O  O571  1  0.048000  0.483000  0.632200  1
  O  O572  1  0.952000  0.517000  0.367800  1
  O  O573  1  0.132000  0.524200  0.538900  1
  O  O574  1  0.868000  0.475800  0.461100  1
  O  O575  1  0.458900  0.095400  0.294200  1
  O  O576  1  0.541100  0.904600  0.705800  1
  O  O577  1  0.408400  0.220100  0.309800  1
  O  O578  1  0.591600  0.779900  0.690200  1
  O  O579  1  0.781200  0.442500  0.486000  1
  O  O580  1  0.218800  0.557500  0.514000  1
  O  O581  1  0.775000  0.352300  0.526700  1
  O  O582  1  0.225000  0.647700  0.473300  1
  O  O583  1  0.395000  0.213300  0.945800  1
  O  O584  1  0.605000  0.786700  0.054200  1
  O  O585  1  0.307900  0.029300  0.961900  1
  O  O586  1  0.692100  0.970700  0.038100  1
  O  O587  1  0.513700  0.067700  0.947700  1
  O  O588  1  0.486300  0.932300  0.052300  1
  F  F589  1  0.936600  0.272500  0.098500  1
  F  F590  1  0.063400  0.727500  0.901500  1
  F  F591  1  0.938000  0.215000  0.031500  1
  F  F592  1  0.062000  0.785000  0.968500  1
  F  F593  1  0.006300  0.280900  0.016300  1
  F  F594  1  0.993700  0.719100  0.983700  1
  F  F595  1  0.138300  0.239700  0.463500  1
  F  F596  1  0.861700  0.760300  0.536500  1
  F  F597  1  0.053500  0.185300  0.486400  1
  F  F598  1  0.946500  0.814700  0.513600  1
  F  F599  1  0.044000  0.274400  0.420800  1
  F  F600  1  0.956000  0.725600  0.579200  1
  F  F601  1  0.630100  0.545900  0.114300  1
  F  F602  1  0.369900  0.454100  0.885700  1
  F  F603  1  0.555900  0.489300  0.176200  1
  F  F604  1  0.444100  0.510700  0.823800  1
  F  F605  1  0.551700  0.511200  0.096000  1
  F  F606  1  0.448300  0.488800  0.904000  1
  F  F607  1  0.156000  0.349700  0.576600  1
  F  F608  1  0.844000  0.650300  0.423400  1
  F  F609  1  0.269000  0.360000  0.574300  1
  F  F610  1  0.731000  0.640000  0.425700  1
  F  F611  1  0.192000  0.349000  0.648800  1
  F  F612  1  0.808000  0.651000  0.351200  1
