# generated using pymatgen
data_Fe2Cu2H96C80N18(ClO6)7
_symmetry_space_group_name_H-M   'P 1'
_cell_length_a   13.30880000
_cell_length_b   14.52900000
_cell_length_c   17.13590000
_cell_angle_alpha   69.35100000
_cell_angle_beta   70.71500000
_cell_angle_gamma   66.21500000
_symmetry_Int_Tables_number   1
_chemical_formula_structural   Fe2Cu2H96C80N18(ClO6)7
_chemical_formula_sum   'Fe2 Cu2 H96 C80 N18 Cl7 O42'
_cell_volume   2767.98659459
_cell_formula_units_Z   1
loop_
 _symmetry_equiv_pos_site_id
 _symmetry_equiv_pos_as_xyz
  1  'x, y, z'
loop_
 _atom_site_type_symbol
 _atom_site_label
 _atom_site_symmetry_multiplicity
 _atom_site_fract_x
 _atom_site_fract_y
 _atom_site_fract_z
 _atom_site_occupancy
  Fe  Fe1  1  0.042410  0.035820  0.779450  1.0
  Fe  Fe2  1  0.957590  0.964180  0.220550  1.0
  Cu  Cu3  1  0.820680  0.850920  0.039740  1.0
  Cu  Cu4  1  0.179320  0.149080  0.960260  1.0
  H  H5  1  0.870800  0.402400  0.155800  1
  H  H6  1  0.129200  0.597600  0.844200  1
  H  H7  1  0.965400  0.432700  0.078900  1
  H  H8  1  0.034600  0.567300  0.921100  1
  H  H9  1  0.839000  0.484800  0.072000  1
  H  H10  1  0.161000  0.515200  0.928000  1
  H  H11  1  0.929600  0.509300  0.166300  1
  H  H12  1  0.070400  0.490700  0.833700  1
  H  H13  1  0.265800  0.013500  0.644000  1.0
  H  H14  1  0.734200  0.986500  0.356000  1.0
  H  H15  1  0.341400  0.120400  0.530200  1.0
  H  H16  1  0.658600  0.879600  0.469800  1.0
  H  H17  1  0.058400  0.356400  0.572200  1.0
  H  H18  1  0.941600  0.643600  0.427800  1.0
  H  H19  1  0.893100  0.401500  0.659100  1.0
  H  H20  1  0.106900  0.598500  0.340900  1.0
  H  H21  1  0.679200  0.302100  0.864000  1.0
  H  H22  1  0.320800  0.697900  0.136000  1.0
  H  H23  1  0.803800  0.139400  0.877900  1.0
  H  H24  1  0.196200  0.860600  0.122100  1.0
  H  H25  1  0.220700  0.395700  0.465900  1.0
  H  H26  1  0.779300  0.604300  0.534100  1.0
  H  H27  1  0.251800  0.318900  0.409900  1.0
  H  H28  1  0.748200  0.681100  0.590100  1.0
  H  H29  1  0.338000  0.307900  0.459300  1.0
  H  H30  1  0.662000  0.692100  0.540700  1.0
  H  H31  1  0.657700  0.503800  0.706700  1.0
  H  H32  1  0.342300  0.496200  0.293300  1.0
  H  H33  1  0.731500  0.526200  0.748200  1.0
  H  H34  1  0.268500  0.473800  0.251800  1.0
  H  H35  1  0.632600  0.483900  0.806200  1.0
  H  H36  1  0.367400  0.516100  0.193800  1.0
  H  H37  1  0.852700  0.117200  0.684300  1.0
  H  H38  1  0.147300  0.882800  0.315700  1.0
  H  H39  1  0.799800  0.062000  0.600800  1.0
  H  H40  1  0.200200  0.938000  0.399200  1.0
  H  H41  1  0.063800  0.803000  0.625000  1.0
  H  H42  1  0.936200  0.197000  0.375000  1.0
  H  H43  1  0.207000  0.718200  0.689000  1.0
  H  H44  1  0.793000  0.281800  0.311000  1.0
  H  H45  1  0.375200  0.723900  0.835900  1.0
  H  H46  1  0.624800  0.276100  0.164100  1.0
  H  H47  1  0.254800  0.885400  0.848500  1.0
  H  H48  1  0.745200  0.114600  0.151500  1.0
  H  H49  1  0.855700  0.839900  0.580500  1.0
  H  H50  1  0.144300  0.160100  0.419500  1.0
  H  H51  1  0.959100  0.857800  0.507200  1.0
  H  H52  1  0.040900  0.142200  0.492800  1.0
  H  H53  1  0.843200  0.947600  0.512900  1.0
  H  H54  1  0.156800  0.052400  0.487100  1.0
  H  H55  1  0.376000  0.576500  0.711200  1.0
  H  H56  1  0.624000  0.423500  0.288800  1.0
  H  H57  1  0.375500  0.543900  0.808800  1.0
  H  H58  1  0.624500  0.456100  0.191200  1.0
  H  H59  1  0.463700  0.594800  0.741700  1.0
  H  H60  1  0.536300  0.405200  0.258300  1.0
  H  H61  1  0.884200  0.811700  0.857700  1.0
  H  H62  1  0.115800  0.188300  0.142300  1.0
  H  H63  1  0.836400  0.733400  0.790500  1.0
  H  H64  1  0.163600  0.266600  0.209500  1.0
  H  H65  1  0.713900  0.632700  0.874700  1.0
  H  H66  1  0.286100  0.367300  0.125300  1.0
  H  H67  1  0.625500  0.646300  0.014100  1.0
  H  H68  1  0.374500  0.353700  0.985900  1.0
  H  H69  1  0.672000  0.925600  0.215800  1.0
  H  H70  1  0.328000  0.074400  0.784200  1.0
  H  H71  1  0.577200  0.896300  0.293000  1.0
  H  H72  1  0.422800  0.103700  0.707000  1.0
  H  H73  1  0.555000  0.943600  0.200400  1.0
  H  H74  1  0.445000  0.056400  0.799600  1.0
  H  H75  1  0.773500  0.660800  0.255100  1.0
  H  H76  1  0.226500  0.339200  0.744900  1.0
  H  H77  1  0.708200  0.718500  0.328100  1.0
  H  H78  1  0.291800  0.281500  0.671900  1.0
  H  H79  1  0.796600  0.759900  0.251800  1.0
  H  H80  1  0.203400  0.240100  0.748200  1.0
  H  H81  1  0.405400  0.837900  0.297600  1.0
  H  H82  1  0.594600  0.162100  0.702400  1.0
  H  H83  1  0.391100  0.806200  0.224300  1.0
  H  H84  1  0.608900  0.193800  0.775700  1.0
  H  H85  1  0.444900  0.893100  0.201800  1.0
  H  H86  1  0.555100  0.106900  0.798200  1.0
  H  H87  1  0.491300  0.634100  0.328500  1.0
  H  H88  1  0.508700  0.365900  0.671500  1.0
  H  H89  1  0.556700  0.672500  0.365000  1.0
  H  H90  1  0.443300  0.327500  0.635000  1.0
  H  H91  1  0.623300  0.596400  0.305400  1.0
  H  H92  1  0.376700  0.403600  0.694600  1.0
  H  H93  1  0.093100  0.740400  0.036800  1.0
  H  H94  1  0.906900  0.259600  0.963200  1.0
  H  H95  1  0.129600  0.624000  0.035400  1.0
  H  H96  1  0.870400  0.376000  0.964600  1.0
  H  H97  1  0.083500  0.654400  0.122800  1.0
  H  H98  1  0.916500  0.345600  0.877200  1.0
  H  H99  1  0.964200  0.634000  0.069100  1.0
  H  H100  1  0.035800  0.366000  0.930900  1.0
  C  C101  1  0.889000  0.458100  0.110000  1
  C  C102  1  0.111000  0.541900  0.890000  1
  C  C103  1  0.963300  0.960400  0.880600  1.0
  C  C104  1  0.036700  0.039600  0.119400  1.0
  C  C105  1  0.100500  0.071200  0.851500  1.0
  C  C106  1  0.899500  0.928800  0.148500  1.0
  C  C107  1  0.224400  0.083700  0.629200  1.0
  C  C108  1  0.775600  0.916300  0.370800  1.0
  C  C109  1  0.269400  0.147300  0.561500  1.0
  C  C110  1  0.730600  0.852700  0.438500  1.0
  C  C111  1  0.210500  0.252900  0.537300  1.0
  C  C112  1  0.789500  0.747100  0.462700  1.0
  C  C113  1  0.102300  0.286900  0.586400  1.0
  C  C114  1  0.897700  0.713100  0.413600  1.0
  C  C115  1  0.060900  0.219800  0.654100  1.0
  C  C116  1  0.939100  0.780200  0.345900  1.0
  C  C117  1  0.946800  0.250000  0.712900  1.0
  C  C118  1  0.053200  0.750000  0.287100  1.0
  C  C119  1  0.874100  0.348200  0.704000  1.0
  C  C120  1  0.125900  0.651800  0.296000  1.0
  C  C121  1  0.771400  0.369800  0.761600  1.0
  C  C122  1  0.228600  0.630200  0.238400  1.0
  C  C123  1  0.747900  0.290100  0.824900  1.0
  C  C124  1  0.252100  0.709900  0.175100  1.0
  C  C125  1  0.822200  0.192800  0.832700  1.0
  C  C126  1  0.177800  0.807200  0.167300  1.0
  C  C127  1  0.259700  0.325400  0.461200  1.0
  C  C128  1  0.740300  0.674600  0.538800  1.0
  C  C129  1  0.690800  0.481300  0.755100  1.0
  C  C130  1  0.309200  0.518700  0.244900  1.0
  C  C131  1  0.896600  0.053300  0.672200  1.0
  C  C132  1  0.103400  0.946700  0.327800  1.0
  C  C133  1  0.864500  0.020700  0.621700  1.0
  C  C134  1  0.135500  0.979300  0.378300  1.0
  C  C135  1  0.926500  0.927500  0.601100  1.0
  C  C136  1  0.073500  0.072500  0.398900  1.0
  C  C137  1  0.020500  0.867700  0.635800  1.0
  C  C138  1  0.979500  0.132300  0.364200  1.0
  C  C139  1  0.050000  0.905400  0.687600  1.0
  C  C140  1  0.950000  0.094600  0.312400  1.0
  C  C141  1  0.143600  0.849800  0.727400  1.0
  C  C142  1  0.856400  0.150200  0.272600  1.0
  C  C143  1  0.216900  0.751900  0.721600  1.0
  C  C144  1  0.783100  0.248100  0.278400  1.0
  C  C145  1  0.305400  0.702500  0.763800  1.0
  C  C146  1  0.694600  0.297500  0.236200  1.0
  C  C147  1  0.315800  0.754800  0.808100  1.0
  C  C148  1  0.684200  0.245200  0.191900  1.0
  C  C149  1  0.244300  0.852200  0.815700  1.0
  C  C150  1  0.755700  0.147800  0.184300  1.0
  C  C151  1  0.893100  0.889800  0.545400  1.0
  C  C152  1  0.106900  0.110200  0.454600  1.0
  C  C153  1  0.387900  0.594300  0.755600  1.0
  C  C154  1  0.612100  0.405700  0.244400  1.0
  C  C155  1  0.830100  0.779300  0.888200  1.0
  C  C156  1  0.169900  0.220700  0.111800  1.0
  C  C157  1  0.805600  0.730600  0.848200  1.0
  C  C158  1  0.194400  0.269400  0.151800  1.0
  C  C159  1  0.729000  0.673300  0.898200  1.0
  C  C160  1  0.271000  0.326700  0.101800  1.0
  C  C161  1  0.678300  0.679600  0.981300  1.0
  C  C162  1  0.321700  0.320400  0.018700  1.0
  C  C163  1  0.708100  0.737100  0.014900  1.0
  C  C164  1  0.291900  0.262900  0.985100  1.0
  C  C165  1  0.664800  0.746500  0.103600  1.0
  C  C166  1  0.335200  0.253500  0.896400  1.0
  C  C167  1  0.652400  0.792500  0.220800  1.0
  C  C168  1  0.347600  0.207500  0.779200  1.0
  C  C169  1  0.554500  0.746400  0.238700  1.0
  C  C170  1  0.445500  0.253600  0.761300  1.0
  C  C171  1  0.610400  0.898900  0.233600  1.0
  C  C172  1  0.389600  0.101100  0.766400  1.0
  C  C173  1  0.740100  0.727400  0.267900  1.0
  C  C174  1  0.259900  0.272600  0.732100  1.0
  C  C175  1  0.438200  0.828500  0.240800  1.0
  C  C176  1  0.561800  0.171500  0.759200  1.0
  C  C177  1  0.556700  0.653800  0.316600  1.0
  C  C178  1  0.443300  0.346200  0.683400  1.0
  C  C179  1  0.077000  0.676300  0.064400  1.0
  C  C180  1  0.923000  0.323700  0.935600  1.0
  N  N181  1  0.917300  0.913900  0.939100  1.0
  N  N182  1  0.082700  0.086100  0.060900  1.0
  N  N183  1  0.864400  0.904100  0.110500  1.0
  N  N184  1  0.135600  0.095900  0.889500  1.0
  N  N185  1  0.118300  0.119800  0.677200  1.0
  N  N186  1  0.881700  0.880200  0.322800  1.0
  N  N187  1  0.923300  0.170500  0.776600  1.0
  N  N188  1  0.076700  0.829500  0.223400  1.0
  N  N189  1  0.986900  0.998800  0.705100  1.0
  N  N190  1  0.013100  0.001200  0.294900  1.0
  N  N191  1  0.157500  0.899500  0.774200  1.0
  N  N192  1  0.842500  0.100500  0.225800  1.0
  N  N193  1  0.781500  0.785700  0.971700  1.0
  N  N194  1  0.218500  0.214300  0.028300  1.0
  N  N195  1  0.703500  0.794700  0.131000  1.0
  N  N196  1  0.296500  0.205300  0.869000  1.0
  N  N197  1  0.583800  0.710700  0.163100  1.0
  N  N198  1  0.416200  0.289300  0.836900  1.0
  Cl  Cl199  1  0.400900  0.845600  0.512300  1
  Cl  Cl200  1  0.599100  0.154400  0.487700  1
  Cl  Cl201  1  0.994100  0.435300  0.328700  1
  Cl  Cl202  1  0.005900  0.564700  0.671300  1
  Cl  Cl203  1  0.500000  0.500000  0.000000  1
  Cl  Cl204  1  0.611600  0.041900  0.990700  1.0
  Cl  Cl205  1  0.388400  0.958100  0.009300  1.0
  O  O206  1  0.880400  0.529600  0.139600  1
  O  O207  1  0.119600  0.470400  0.860400  1
  O  O208  1  0.424400  0.874400  0.570300  1
  O  O209  1  0.575600  0.125600  0.429700  1
  O  O210  1  0.290600  0.874200  0.534800  1
  O  O211  1  0.709400  0.125800  0.465200  1
  O  O212  1  0.465000  0.753000  0.518000  1
  O  O213  1  0.535000  0.247000  0.482000  1
  O  O214  1  0.431000  0.887000  0.434500  1
  O  O215  1  0.569000  0.113000  0.565500  1
  O  O216  1  0.920200  0.403200  0.310300  1
  O  O217  1  0.079800  0.596800  0.689700  1
  O  O218  1  0.009000  0.519900  0.261400  1
  O  O219  1  0.991000  0.480100  0.738600  1
  O  O220  1  0.969500  0.456800  0.404700  1
  O  O221  1  0.030500  0.543200  0.595300  1
  O  O222  1  0.095700  0.361800  0.327500  1
  O  O223  1  0.904300  0.638200  0.672500  1
  O  O224  1  0.250000  0.651000  0.467100  1
  O  O225  1  0.750000  0.349000  0.532900  1
  O  O226  1  0.405000  0.152000  0.300700  1
  O  O227  1  0.595000  0.848000  0.699300  1
  O  O228  1  0.450000  0.605000  0.003000  1
  O  O229  1  0.550000  0.395000  0.997000  1
  O  O230  1  0.460000  0.498000  0.934800  1
  O  O231  1  0.540000  0.502000  0.065200  1
  O  O232  1  0.535100  0.658600  0.152400  1.0
  O  O233  1  0.464900  0.341400  0.847600  1.0
  O  O234  1  0.691000  0.006900  0.011500  1.0
  O  O235  1  0.309000  0.993100  0.988500  1.0
  O  O236  1  0.562000  0.973200  0.990000  1.0
  O  O237  1  0.438000  0.026800  0.010000  1.0
  O  O238  1  0.523000  0.088000  0.057000  1.0
  O  O239  1  0.477000  0.912000  0.943000  1.0
  O  O240  1  0.589000  0.122000  0.921000  1.0
  O  O241  1  0.411000  0.878000  0.079000  1.0
  O  O242  1  0.970600  0.690500  0.061800  1.0
  O  O243  1  0.029400  0.309500  0.938200  1.0
  O  O244  1  0.635000  0.473000  0.984000  1.0
  O  O245  1  0.365000  0.527000  0.016000  1.0
  O  O246  1  0.465000  0.427000  0.074200  1.0
  O  O247  1  0.535000  0.573000  0.925800  1.0
