# generated using pymatgen
data_FeCuH50C43N9(ClO5)3
_symmetry_space_group_name_H-M   'P 1'
_cell_length_a   11.97490000
_cell_length_b   13.68520000
_cell_length_c   17.16300000
_cell_angle_alpha   113.07800000
_cell_angle_beta   94.36600000
_cell_angle_gamma   92.65400000
_symmetry_Int_Tables_number   1
_chemical_formula_structural   FeCuH50C43N9(ClO5)3
_chemical_formula_sum   'Fe2 Cu2 H100 C86 N18 Cl6 O30'
_cell_volume   2571.14943810
_cell_formula_units_Z   2
loop_
 _symmetry_equiv_pos_site_id
 _symmetry_equiv_pos_as_xyz
  1  'x, y, z'
loop_
 _atom_site_type_symbol
 _atom_site_label
 _atom_site_symmetry_multiplicity
 _atom_site_fract_x
 _atom_site_fract_y
 _atom_site_fract_z
 _atom_site_occupancy
  Fe  Fe1  1  0.064750  0.049610  0.217290  1.0
  Fe  Fe2  1  0.935250  0.950390  0.782710  1.0
  Cu  Cu3  1  0.171870  0.228630  0.026580  1.0
  Cu  Cu4  1  0.828130  0.771370  0.973420  1.0
  H  H5  1  0.131700  0.545800  0.765400  1
  H  H6  1  0.868300  0.454200  0.234600  1
  H  H7  1  0.150700  0.531800  0.671400  1
  H  H8  1  0.849300  0.468200  0.328600  1
  H  H9  1  0.239100  0.492700  0.724000  1
  H  H10  1  0.760900  0.507300  0.276000  1
  H  H11  1  0.383900  0.152700  0.987000  1.0
  H  H12  1  0.616100  0.847300  0.013000  1.0
  H  H13  1  0.132900  0.887800  0.297400  1.0
  H  H14  1  0.867100  0.112200  0.702600  1.0
  H  H15  1  0.055500  0.819000  0.387300  1.0
  H  H16  1  0.944500  0.181000  0.612700  1.0
  H  H17  1  0.793500  0.993000  0.396500  1.0
  H  H18  1  0.206500  0.007000  0.603500  1.0
  H  H19  1  0.714300  0.101500  0.347500  1.0
  H  H20  1  0.285700  0.898500  0.652500  1.0
  H  H21  1  0.754000  0.272400  0.206300  1.0
  H  H22  1  0.246000  0.727600  0.793700  1.0
  H  H23  1  0.920400  0.200600  0.171300  1.0
  H  H24  1  0.079600  0.799400  0.828700  1.0
  H  H25  1  0.904200  0.890000  0.517700  1.0
  H  H26  1  0.095800  0.110000  0.482300  1.0
  H  H27  1  0.872100  0.778900  0.440200  1.0
  H  H28  1  0.127900  0.221100  0.559800  1.0
  H  H29  1  0.786000  0.868100  0.463100  1.0
  H  H30  1  0.214000  0.131900  0.536900  1.0
  H  H31  1  0.615000  0.316000  0.345100  1.0
  H  H32  1  0.385000  0.684000  0.654900  1.0
  H  H33  1  0.564000  0.201200  0.332300  1.0
  H  H34  1  0.436000  0.798800  0.667700  1.0
  H  H35  1  0.556800  0.236800  0.254800  1.0
  H  H36  1  0.443200  0.763200  0.745200  1.0
  H  H37  1  0.044300  0.269600  0.359100  1.0
  H  H38  1  0.955700  0.730400  0.640900  1.0
  H  H39  1  0.163300  0.392900  0.476100  1.0
  H  H40  1  0.836700  0.607100  0.523900  1.0
  H  H41  1  0.404800  0.193100  0.413800  1.0
  H  H42  1  0.595200  0.806900  0.586200  1.0
  H  H43  1  0.450000  0.034400  0.321200  1.0
  H  H44  1  0.550000  0.965600  0.678800  1.0
  H  H45  1  0.350100  0.785400  0.105600  1.0
  H  H46  1  0.649900  0.214600  0.894400  1.0
  H  H47  1  0.181100  0.854200  0.100600  1.0
  H  H48  1  0.818900  0.145800  0.899400  1.0
  H  H49  1  0.349100  0.457500  0.545800  1.0
  H  H50  1  0.650900  0.542500  0.454200  1.0
  H  H51  1  0.450000  0.384700  0.518000  1.0
  H  H52  1  0.550000  0.615300  0.482000  1.0
  H  H53  1  0.368600  0.368000  0.581100  1.0
  H  H54  1  0.631400  0.632000  0.418900  1.0
  H  H55  1  0.541600  0.808500  0.159100  1.0
  H  H56  1  0.458400  0.191500  0.840900  1.0
  H  H57  1  0.530900  0.819100  0.253400  1.0
  H  H58  1  0.469100  0.180900  0.746600  1.0
  H  H59  1  0.588000  0.915100  0.237100  1.0
  H  H60  1  0.412000  0.084900  0.762900  1.0
  H  H61  1  0.170200  0.191400  0.835700  1.0
  H  H62  1  0.829800  0.808600  0.164300  1.0
  H  H63  1  0.244100  0.277300  0.757000  1.0
  H  H64  1  0.755900  0.722700  0.243000  1.0
  H  H65  1  0.354200  0.438800  0.826800  1.0
  H  H66  1  0.645800  0.561200  0.173200  1.0
  H  H67  1  0.381800  0.511900  0.976800  1.0
  H  H68  1  0.618200  0.488100  0.023200  1.0
  H  H69  1  0.294700  0.283600  0.223000  1.0
  H  H70  1  0.705300  0.716400  0.777000  1.0
  H  H71  1  0.341500  0.387000  0.303900  1.0
  H  H72  1  0.658500  0.613000  0.696100  1.0
  H  H73  1  0.402600  0.352700  0.219600  1.0
  H  H74  1  0.597400  0.647300  0.780400  1.0
  H  H75  1  0.091000  0.458100  0.216300  1.0
  H  H76  1  0.909000  0.541900  0.783700  1.0
  H  H77  1  0.148400  0.465300  0.304800  1.0
  H  H78  1  0.851600  0.534700  0.695200  1.0
  H  H79  1  0.110500  0.352500  0.230800  1.0
  H  H80  1  0.889500  0.647500  0.769200  1.0
  H  H81  1  0.271800  0.691000  0.256400  1.0
  H  H82  1  0.728200  0.309000  0.743600  1.0
  H  H83  1  0.211200  0.637800  0.310700  1.0
  H  H84  1  0.788800  0.362200  0.689300  1.0
  H  H85  1  0.167800  0.605600  0.213700  1.0
  H  H86  1  0.832200  0.394400  0.786300  1.0
  H  H87  1  0.474900  0.519100  0.271400  1.0
  H  H88  1  0.525100  0.480900  0.728600  1.0
  H  H89  1  0.402700  0.577400  0.347500  1.0
  H  H90  1  0.597300  0.422600  0.652500  1.0
  H  H91  1  0.452700  0.640300  0.296000  1.0
  H  H92  1  0.547300  0.359700  0.704000  1.0
  H  H93  1  0.354200  0.022300  0.038400  1.0
  H  H94  1  0.645800  0.977700  0.961600  1.0
  H  H95  1  0.369800  0.987800  0.940600  1.0
  H  H96  1  0.630200  0.012200  0.059400  1.0
  H  H97  1  0.247500  0.990700  0.970300  1.0
  H  H98  1  0.752500  0.009300  0.029700  1.0
  H  H99  1  0.893900  0.385000  0.041900  1.0
  H  H100  1  0.106100  0.615000  0.958100  1.0
  H  H101  1  0.942400  0.328200  0.904100  1.0
  H  H102  1  0.057600  0.671800  0.095900  1.0
  H  H103  1  0.956500  0.554200  0.137600  1.0
  H  H104  1  0.043500  0.445800  0.862400  1.0
  C  C105  1  0.160000  0.500200  0.713000  1
  C  C106  1  0.840000  0.499800  0.287000  1
  C  C107  1  0.105200  0.120400  0.146800  1.0
  C  C108  1  0.894800  0.879600  0.853200  1.0
  C  C109  1  0.987300  0.937600  0.120900  1.0
  C  C110  1  0.012700  0.062400  0.879100  1.0
  C  C111  1  0.063600  0.909800  0.317600  1.0
  C  C112  1  0.936400  0.090200  0.682400  1.0
  C  C113  1  0.017300  0.868000  0.371500  1.0
  C  C114  1  0.982700  0.132000  0.628500  1.0
  C  C115  1  0.915300  0.898900  0.401700  1.0
  C  C116  1  0.084700  0.101100  0.598300  1.0
  C  C117  1  0.862800  0.970400  0.377000  1.0
  C  C118  1  0.137200  0.029600  0.623000  1.0
  C  C119  1  0.911000  0.009000  0.323800  1.0
  C  C120  1  0.089000  0.991000  0.676200  1.0
  C  C121  1  0.860300  0.085300  0.291800  1.0
  C  C122  1  0.139700  0.914700  0.708200  1.0
  C  C123  1  0.756200  0.124400  0.312700  1.0
  C  C124  1  0.243800  0.875600  0.687300  1.0
  C  C125  1  0.714100  0.197800  0.281800  1.0
  C  C126  1  0.285900  0.802200  0.718200  1.0
  C  C127  1  0.779200  0.224100  0.229100  1.0
  C  C128  1  0.220800  0.775900  0.770900  1.0
  C  C129  1  0.879900  0.181800  0.208800  1.0
  C  C130  1  0.120100  0.818200  0.791200  1.0
  C  C131  1  0.864900  0.855000  0.461000  1.0
  C  C132  1  0.135100  0.145000  0.539000  1.0
  C  C133  1  0.602500  0.241900  0.305600  1.0
  C  C134  1  0.397500  0.758100  0.694400  1.0
  C  C135  1  0.118000  0.253700  0.369700  1.0
  C  C136  1  0.882000  0.746300  0.630300  1.0
  C  C137  1  0.189700  0.328500  0.440500  1.0
  C  C138  1  0.810300  0.671500  0.559500  1.0
  C  C139  1  0.295900  0.305600  0.455700  1.0
  C  C140  1  0.704100  0.694400  0.544300  1.0
  C  C141  1  0.331800  0.210600  0.403400  1.0
  C  C142  1  0.668200  0.789400  0.596600  1.0
  C  C143  1  0.259900  0.140100  0.334800  1.0
  C  C144  1  0.740100  0.859900  0.665200  1.0
  C  C145  1  0.292200  0.036000  0.272400  1.0
  C  C146  1  0.707800  0.964000  0.727600  1.0
  C  C147  1  0.394900  0.996100  0.276000  1.0
  C  C148  1  0.605100  0.003900  0.724000  1.0
  C  C149  1  0.418200  0.900400  0.214000  1.0
  C  C150  1  0.581800  0.099600  0.786000  1.0
  C  C151  1  0.336900  0.850000  0.149500  1.0
  C  C152  1  0.663100  0.150000  0.850500  1.0
  C  C153  1  0.235200  0.891600  0.146800  1.0
  C  C154  1  0.764800  0.108400  0.853200  1.0
  C  C155  1  0.373100  0.386500  0.532300  1.0
  C  C156  1  0.626900  0.613500  0.467700  1.0
  C  C157  1  0.529300  0.857000  0.216100  1.0
  C  C158  1  0.470700  0.143000  0.783900  1.0
  C  C159  1  0.212300  0.257400  0.864400  1.0
  C  C160  1  0.787700  0.742600  0.135600  1.0
  C  C161  1  0.257200  0.307800  0.816800  1.0
  C  C162  1  0.742800  0.692200  0.183200  1.0
  C  C163  1  0.321800  0.403600  0.858000  1.0
  C  C164  1  0.678200  0.596400  0.142000  1.0
  C  C165  1  0.337900  0.447100  0.947000  1.0
  C  C166  1  0.662100  0.552900  0.053000  1.0
  C  C167  1  0.288400  0.393700  0.989800  1.0
  C  C168  1  0.711600  0.606300  0.010200  1.0
  C  C169  1  0.291600  0.428400  0.083200  1.0
  C  C170  1  0.708400  0.571600  0.916800  1.0
  C  C171  1  0.256300  0.421900  0.210900  1.0
  C  C172  1  0.743700  0.578100  0.789100  1.0
  C  C173  1  0.312900  0.537500  0.229200  1.0
  C  C174  1  0.687100  0.462500  0.770800  1.0
  C  C175  1  0.330400  0.355300  0.242200  1.0
  C  C176  1  0.669600  0.644700  0.757800  1.0
  C  C177  1  0.141100  0.424700  0.243700  1.0
  C  C178  1  0.858900  0.575300  0.756300  1.0
  C  C179  1  0.233800  0.626000  0.254800  1.0
  C  C180  1  0.766200  0.374000  0.745200  1.0
  C  C181  1  0.420800  0.571700  0.291900  1.0
  C  C182  1  0.579200  0.428300  0.708100  1.0
  C  C183  1  0.323400  0.024800  0.985300  1.0
  C  C184  1  0.676600  0.975200  0.014700  1.0
  C  C185  1  0.937100  0.430800  0.024800  1.0
  C  C186  1  0.062900  0.569200  0.975200  1.0
  C  C187  1  0.964700  0.397900  0.943600  1.0
  C  C188  1  0.035300  0.602100  0.056400  1.0
  C  C189  1  0.973500  0.531500  0.080900  1.0
  C  C190  1  0.026500  0.468500  0.919100  1.0
  N  N191  1  0.129000  0.166400  0.105650  1.0
  N  N192  1  0.871000  0.833600  0.894350  1.0
  N  N193  1  0.065300  0.130100  0.935380  1.0
  N  N194  1  0.934700  0.869900  0.064620  1.0
  N  N195  1  0.011700  0.980900  0.293410  1.0
  N  N196  1  0.988300  0.019100  0.706590  1.0
  N  N197  1  0.922700  0.114800  0.240590  1.0
  N  N198  1  0.077300  0.885200  0.759410  1.0
  N  N199  1  0.153700  0.161800  0.318390  1.0
  N  N200  1  0.846300  0.838200  0.681610  1.0
  N  N201  1  0.208500  0.985000  0.208170  1.0
  N  N202  1  0.791500  0.015000  0.791830  1.0
  N  N203  1  0.225900  0.298400  0.949300  1.0
  N  N204  1  0.774100  0.701600  0.050700  1.0
  N  N205  1  0.241500  0.369600  0.115690  1.0
  N  N206  1  0.758500  0.630400  0.884310  1.0
  N  N207  1  0.342200  0.522600  0.142800  1.0
  N  N208  1  0.657800  0.477400  0.857200  1.0
  Cl  Cl209  1  0.585490  0.296820  0.083470  1
  Cl  Cl210  1  0.414510  0.703180  0.916530  1
  Cl  Cl211  1  0.873700  0.371900  0.509520  1
  Cl  Cl212  1  0.126300  0.628100  0.490480  1
  Cl  Cl213  1  0.614500  0.126100  0.523030  1
  Cl  Cl214  1  0.385500  0.873900  0.476970  1
  O  O215  1  0.512700  0.318500  0.024500  1
  O  O216  1  0.487300  0.681500  0.975500  1
  O  O217  1  0.590200  0.381300  0.166900  1
  O  O218  1  0.409800  0.618700  0.833100  1
  O  O219  1  0.543200  0.201600  0.088900  1
  O  O220  1  0.456800  0.798400  0.911100  1
  O  O221  1  0.696500  0.291300  0.060500  1
  O  O222  1  0.303500  0.708700  0.939500  1
  O  O223  1  0.899600  0.277600  0.509900  1
  O  O224  1  0.100400  0.722400  0.490100  1
  O  O225  1  0.768900  0.398700  0.534400  1
  O  O226  1  0.231100  0.601300  0.465600  1
  O  O227  1  0.955700  0.440900  0.564700  1
  O  O228  1  0.044300  0.559100  0.435300  1
  O  O229  1  0.879700  0.373700  0.430200  1
  O  O230  1  0.120300  0.626300  0.569800  1
  O  O231  1  0.596400  0.049100  0.448100  1
  O  O232  1  0.403600  0.950900  0.551900  1
  O  O233  1  0.535700  0.136600  0.572200  1
  O  O234  1  0.464300  0.863400  0.427800  1
  O  O235  1  0.705700  0.118700  0.562100  1
  O  O236  1  0.294300  0.881300  0.437900  1
  O  O237  1  0.617200  0.208000  0.502700  1
  O  O238  1  0.382800  0.792000  0.497300  1
  O  O239  1  0.101400  0.401700  0.681800  1
  O  O240  1  0.898600  0.598300  0.318200  1
  O  O241  1  0.400300  0.592900  0.127700  1.0
  O  O242  1  0.599700  0.407100  0.872300  1.0
  O  O243  1  0.321500  0.131200  0.995000  1.0
  O  O244  1  0.678500  0.868800  0.005000  1.0
