# generated using pymatgen
data_K2Ni2H38C51(N3O2)6
_symmetry_space_group_name_H-M   'P 1'
_cell_length_a   12.53600000
_cell_length_b   15.79400000
_cell_length_c   28.63500000
_cell_angle_alpha   90.00000000
_cell_angle_beta   90.00000000
_cell_angle_gamma   91.53000000
_symmetry_Int_Tables_number   1
_chemical_formula_structural   K2Ni2H38C51(N3O2)6
_chemical_formula_sum   'K8 Ni8 H152 C204 N72 O48'
_cell_volume   5667.52498099
_cell_formula_units_Z   4
loop_
 _symmetry_equiv_pos_site_id
 _symmetry_equiv_pos_as_xyz
  1  'x, y, z'
loop_
 _atom_site_type_symbol
 _atom_site_label
 _atom_site_symmetry_multiplicity
 _atom_site_fract_x
 _atom_site_fract_y
 _atom_site_fract_z
 _atom_site_occupancy
  K  K1  1  0.875290  0.864610  0.769680  1
  K  K2  1  0.624710  0.635390  0.269680  1
  K  K3  1  0.124710  0.135390  0.230320  1
  K  K4  1  0.375290  0.364610  0.730320  1
  K  K5  1  0.664070  0.401070  0.765410  1
  K  K6  1  0.835930  0.098930  0.265410  1
  K  K7  1  0.335930  0.598930  0.234590  1
  K  K8  1  0.164070  0.901070  0.734590  1
  Ni  Ni9  1  0.040950  0.193080  0.871940  1
  Ni  Ni10  1  0.459050  0.306920  0.371940  1
  Ni  Ni11  1  0.959050  0.806920  0.128060  1
  Ni  Ni12  1  0.540950  0.693080  0.628060  1
  Ni  Ni13  1  0.975330  0.208390  0.632870  1
  Ni  Ni14  1  0.524670  0.291610  0.132870  1
  Ni  Ni15  1  0.024670  0.791610  0.367130  1
  Ni  Ni16  1  0.475330  0.708390  0.867130  1
  H  H17  1  0.152400  0.121100  0.964700  1
  H  H18  1  0.347600  0.378900  0.464700  1
  H  H19  1  0.847600  0.878900  0.035300  1
  H  H20  1  0.652400  0.621100  0.535300  1
  H  H21  1  0.324000  0.114900  0.991900  1
  H  H22  1  0.176000  0.385100  0.491900  1
  H  H23  1  0.676000  0.885100  0.008100  1
  H  H24  1  0.824000  0.614900  0.508100  1
  H  H25  1  0.426600  0.242500  0.883800  1
  H  H26  1  0.073400  0.257500  0.383800  1
  H  H27  1  0.573400  0.757500  0.116200  1
  H  H28  1  0.926600  0.742500  0.616200  1
  H  H29  1  0.030900  0.418900  0.828800  1
  H  H30  1  0.469100  0.081100  0.328800  1
  H  H31  1  0.969100  0.581100  0.171200  1
  H  H32  1  0.530900  0.918900  0.671200  1
  H  H33  1  0.956800  0.483100  0.764200  1
  H  H34  1  0.543200  0.016900  0.264200  1
  H  H35  1  0.043200  0.516900  0.235800  1
  H  H36  1  0.456800  0.983100  0.735800  1
  H  H37  1  0.980500  0.427700  0.689700  1
  H  H38  1  0.519500  0.072300  0.189700  1
  H  H39  1  0.019500  0.572300  0.310300  1
  H  H40  1  0.480500  0.927700  0.810300  1
  H  H41  1  0.164900  0.248700  0.744300  1
  H  H42  1  0.335100  0.251300  0.244300  1
  H  H43  1  0.835100  0.751300  0.255700  1
  H  H44  1  0.664900  0.748700  0.755700  1
  H  H45  1  0.343100  0.274200  0.588000  1
  H  H46  1  0.156900  0.225800  0.088000  1
  H  H47  1  0.656900  0.725800  0.412000  1
  H  H48  1  0.843100  0.774200  0.912000  1
  H  H49  1  0.203900  0.138700  0.491000  1
  H  H50  1  0.296100  0.361300  0.991000  1
  H  H51  1  0.796100  0.861300  0.509000  1
  H  H52  1  0.703900  0.638700  0.009000  1
  H  H53  1  0.045900  0.144600  0.530300  1
  H  H54  1  0.454100  0.355400  0.030300  1
  H  H55  1  0.954100  0.855400  0.469700  1
  H  H56  1  0.545900  0.644600  0.969700  1
  H  H57  1  0.919200  0.146400  0.967600  1
  H  H58  1  0.580800  0.353600  0.467600  1
  H  H59  1  0.080800  0.853600  0.032400  1
  H  H60  1  0.419200  0.646400  0.532400  1
  H  H61  1  0.848600  0.025700  0.001200  1
  H  H62  1  0.651400  0.474300  0.501200  1
  H  H63  1  0.151400  0.974300  0.998800  1
  H  H64  1  0.348600  0.525700  0.498800  1
  H  H65  1  0.936600  0.894600  0.893600  1
  H  H66  1  0.563400  0.605400  0.393600  1
  H  H67  1  0.063400  0.105400  0.106400  1
  H  H68  1  0.436600  0.394600  0.606400  1
  H  H69  1  0.284900  0.099800  0.806600  1
  H  H70  1  0.215100  0.400200  0.306600  1
  H  H71  1  0.715100  0.900200  0.193400  1
  H  H72  1  0.784900  0.599800  0.693400  1
  H  H73  1  0.355500  0.112800  0.732600  1
  H  H74  1  0.144500  0.387200  0.232600  1
  H  H75  1  0.644500  0.887200  0.267400  1
  H  H76  1  0.855500  0.612800  0.767400  1
  H  H77  1  0.247100  0.114100  0.667400  1
  H  H78  1  0.252900  0.385900  0.167400  1
  H  H79  1  0.752900  0.885900  0.332600  1
  H  H80  1  0.747100  0.614100  0.832600  1
  H  H81  1  0.990600  0.081700  0.750100  1
  H  H82  1  0.509400  0.418300  0.250100  1
  H  H83  1  0.009400  0.918300  0.249900  1
  H  H84  1  0.490600  0.581700  0.749900  1
  H  H85  1  0.846500  0.912400  0.621700  1
  H  H86  1  0.653500  0.587600  0.121700  1
  H  H87  1  0.153500  0.087600  0.378300  1
  H  H88  1  0.346500  0.412400  0.878300  1
  H  H89  1  0.681800  0.051900  0.538500  1
  H  H90  1  0.818200  0.448100  0.038500  1
  H  H91  1  0.318200  0.948100  0.461500  1
  H  H92  1  0.181800  0.551900  0.961500  1
  H  H93  1  0.786300  0.168500  0.557300  1
  H  H94  1  0.713700  0.331500  0.057300  1
  H  H95  1  0.213700  0.831500  0.442700  1
  H  H96  1  0.286300  0.668500  0.942700  1
  H  H97  1  0.091900  0.301200  0.965200  1
  H  H98  1  0.408100  0.198800  0.465200  1
  H  H99  1  0.908100  0.698800  0.034800  1
  H  H100  1  0.591900  0.801200  0.534800  1
  H  H101  1  0.031800  0.423300  0.997200  1
  H  H102  1  0.468200  0.076700  0.497200  1
  H  H103  1  0.968200  0.576700  0.002800  1
  H  H104  1  0.531800  0.923300  0.502800  1
  H  H105  1  0.809800  0.430800  0.902700  1
  H  H106  1  0.690200  0.069200  0.402700  1
  H  H107  1  0.190200  0.569200  0.097300  1
  H  H108  1  0.309800  0.930800  0.597300  1
  H  H109  1  0.795600  0.069300  0.832800  1
  H  H110  1  0.704400  0.430700  0.332800  1
  H  H111  1  0.204400  0.930700  0.167200  1
  H  H112  1  0.295600  0.569300  0.667200  1
  H  H113  1  0.752300  0.072800  0.693100  1
  H  H114  1  0.747700  0.427200  0.193100  1
  H  H115  1  0.247700  0.927200  0.306900  1
  H  H116  1  0.252300  0.572800  0.806900  1
  H  H117  1  0.889300  0.272900  0.758000  1
  H  H118  1  0.610700  0.227100  0.258000  1
  H  H119  1  0.110700  0.727100  0.242000  1
  H  H120  1  0.389300  0.772900  0.742000  1
  H  H121  1  0.697600  0.421200  0.626900  1
  H  H122  1  0.802400  0.078800  0.126900  1
  H  H123  1  0.302400  0.578800  0.373100  1
  H  H124  1  0.197600  0.921200  0.873100  1
  H  H125  1  0.889100  0.452400  0.521500  1
  H  H126  1  0.610900  0.047600  0.021500  1
  H  H127  1  0.110900  0.547600  0.478500  1
  H  H128  1  0.389100  0.952400  0.978500  1
  H  H129  1  0.981700  0.338000  0.543700  1
  H  H130  1  0.518300  0.162000  0.043700  1
  H  H131  1  0.018300  0.662000  0.456300  1
  H  H132  1  0.481700  0.838000  0.956300  1
  H  H133  1  0.094100  0.677900  0.739800  1
  H  H134  1  0.405900  0.822100  0.239800  1
  H  H135  1  0.905900  0.322100  0.260200  1
  H  H136  1  0.594100  0.177900  0.760200  1
  H  H137  1  0.097000  0.701900  0.686700  1
  H  H138  1  0.403000  0.798100  0.186700  1
  H  H139  1  0.903000  0.298100  0.313300  1
  H  H140  1  0.597000  0.201900  0.813300  1
  H  H141  1  0.996200  0.654900  0.707700  1
  H  H142  1  0.503800  0.845100  0.207700  1
  H  H143  1  0.003800  0.345100  0.292300  1
  H  H144  1  0.496200  0.154900  0.792300  1
  H  H145  1  0.184800  0.980200  0.531800  1
  H  H146  1  0.315200  0.519800  0.031800  1
  H  H147  1  0.815200  0.019800  0.468200  1
  H  H148  1  0.684800  0.480200  0.968200  1
  H  H149  1  0.081400  0.988900  0.562000  1
  H  H150  1  0.418600  0.511100  0.062000  1
  H  H151  1  0.918600  0.011100  0.438000  1
  H  H152  1  0.581400  0.488900  0.938000  1
  H  H153  1  0.074700  0.993900  0.507400  1
  H  H154  1  0.425300  0.506100  0.007400  1
  H  H155  1  0.925300  0.006100  0.492600  1
  H  H156  1  0.574700  0.493900  0.992600  1
  H  H157  1  0.548900  0.154300  0.671100  1
  H  H158  1  0.951100  0.345700  0.171100  1
  H  H159  1  0.451100  0.845700  0.328900  1
  H  H160  1  0.048900  0.654300  0.828900  1
  H  H161  1  0.570600  0.163400  0.617400  1
  H  H162  1  0.929400  0.336600  0.117400  1
  H  H163  1  0.429400  0.836600  0.382600  1
  H  H164  1  0.070600  0.663400  0.882600  1
  H  H165  1  0.453400  0.151100  0.635700  1
  H  H166  1  0.046600  0.348900  0.135700  1
  H  H167  1  0.546600  0.848900  0.364300  1
  H  H168  1  0.953400  0.651100  0.864300  1
  C  C169  1  0.207600  0.146700  0.947700  1
  C  C170  1  0.292400  0.353300  0.447700  1
  C  C171  1  0.792400  0.853300  0.052300  1
  C  C172  1  0.707600  0.646700  0.552300  1
  C  C173  1  0.311500  0.142600  0.963900  1
  C  C174  1  0.188500  0.357400  0.463900  1
  C  C175  1  0.688500  0.857400  0.036100  1
  C  C176  1  0.811500  0.642600  0.536100  1
  C  C177  1  0.370900  0.217800  0.900900  1
  C  C178  1  0.129100  0.282200  0.400900  1
  C  C179  1  0.629100  0.782200  0.099100  1
  C  C180  1  0.870900  0.717800  0.599100  1
  C  C181  1  0.266900  0.224300  0.884400  1
  C  C182  1  0.233100  0.275700  0.384400  1
  C  C183  1  0.733100  0.775700  0.115600  1
  C  C184  1  0.766900  0.724300  0.615600  1
  C  C185  1  0.240400  0.272900  0.840800  1
  C  C186  1  0.259600  0.227100  0.340800  1
  C  C187  1  0.759600  0.727100  0.159200  1
  C  C188  1  0.740400  0.772900  0.659200  1
  C  C189  1  0.102700  0.324400  0.793430  1
  C  C190  1  0.397300  0.175600  0.293430  1
  C  C191  1  0.897300  0.675600  0.206570  1
  C  C192  1  0.602700  0.824400  0.706570  1
  C  C193  1  0.041700  0.396600  0.799120  1
  C  C194  1  0.458300  0.103400  0.299120  1
  C  C195  1  0.958300  0.603400  0.200880  1
  C  C196  1  0.541700  0.896600  0.700880  1
  C  C197  1  0.997000  0.435000  0.760300  1
  C  C198  1  0.503000  0.065000  0.260300  1
  C  C199  1  0.003000  0.565000  0.239700  1
  C  C200  1  0.497000  0.935000  0.739700  1
  C  C201  1  0.011800  0.402300  0.715420  1
  C  C202  1  0.488200  0.097700  0.215420  1
  C  C203  1  0.988200  0.597700  0.284580  1
  C  C204  1  0.511800  0.902300  0.784580  1
  C  C205  1  0.074000  0.331300  0.709630  1
  C  C206  1  0.426000  0.168700  0.209630  1
  C  C207  1  0.926000  0.668700  0.290370  1
  C  C208  1  0.574000  0.831300  0.790370  1
  C  C209  1  0.120700  0.294400  0.748460  1
  C  C210  1  0.379300  0.205600  0.248460  1
  C  C211  1  0.879300  0.705600  0.251540  1
  C  C212  1  0.620700  0.794400  0.751540  1
  C  C213  1  0.178100  0.299900  0.645000  1
  C  C214  1  0.321900  0.200100  0.145000  1
  C  C215  1  0.821900  0.700100  0.355000  1
  C  C216  1  0.678100  0.799900  0.855000  1
  C  C217  1  0.187400  0.251500  0.599400  1
  C  C218  1  0.312600  0.248500  0.099400  1
  C  C219  1  0.812600  0.748500  0.400600  1
  C  C220  1  0.687400  0.751500  0.900600  1
  C  C221  1  0.282700  0.246800  0.575700  1
  C  C222  1  0.217300  0.253200  0.075700  1
  C  C223  1  0.717300  0.753200  0.424300  1
  C  C224  1  0.782700  0.746800  0.924300  1
  C  C225  1  0.202000  0.167400  0.519300  1
  C  C226  1  0.298000  0.332600  0.019300  1
  C  C227  1  0.798000  0.832600  0.480700  1
  C  C228  1  0.702000  0.667400  0.980700  1
  C  C229  1  0.106500  0.170800  0.543000  1
  C  C230  1  0.393500  0.329200  0.043000  1
  C  C231  1  0.893500  0.829200  0.457000  1
  C  C232  1  0.606500  0.670800  0.957000  1
  C  C233  1  0.924400  0.095000  0.952000  1
  C  C234  1  0.575600  0.405000  0.452000  1
  C  C235  1  0.075600  0.905000  0.048000  1
  C  C236  1  0.424400  0.595000  0.548000  1
  C  C237  1  0.881200  0.022200  0.972100  1
  C  C238  1  0.618800  0.477800  0.472100  1
  C  C239  1  0.118800  0.977800  0.027900  1
  C  C240  1  0.381200  0.522200  0.527900  1
  C  C241  1  0.932900  0.945900  0.909400  1
  C  C242  1  0.567100  0.554100  0.409400  1
  C  C243  1  0.067100  0.054100  0.090600  1
  C  C244  1  0.432900  0.445900  0.590600  1
  C  C245  1  0.976700  0.017400  0.889270  1
  C  C246  1  0.523300  0.482600  0.389270  1
  C  C247  1  0.023300  0.982600  0.110730  1
  C  C248  1  0.476700  0.517400  0.610730  1
  C  C249  1  0.030800  0.015300  0.841850  1
  C  C250  1  0.469200  0.484700  0.341850  1
  C  C251  1  0.969200  0.984700  0.158150  1
  C  C252  1  0.530800  0.515300  0.658150  1
  C  C253  1  0.129400  0.090700  0.786490  1
  C  C254  1  0.370600  0.409300  0.286490  1
  C  C255  1  0.870600  0.909300  0.213510  1
  C  C256  1  0.629400  0.590700  0.713510  1
  C  C257  1  0.240000  0.099400  0.780700  1
  C  C258  1  0.260000  0.400600  0.280700  1
  C  C259  1  0.760000  0.900600  0.219300  1
  C  C260  1  0.740000  0.599400  0.719300  1
  C  C261  1  0.282000  0.107400  0.736200  1
  C  C262  1  0.218000  0.392600  0.236200  1
  C  C263  1  0.718000  0.892600  0.263800  1
  C  C264  1  0.782000  0.607400  0.763800  1
  C  C265  1  0.217200  0.107500  0.697000  1
  C  C266  1  0.282800  0.392500  0.197000  1
  C  C267  1  0.782800  0.892500  0.303000  1
  C  C268  1  0.717200  0.607500  0.803000  1
  C  C269  1  0.106800  0.097600  0.702110  1
  C  C270  1  0.393200  0.402400  0.202110  1
  C  C271  1  0.893200  0.902400  0.297890  1
  C  C272  1  0.606800  0.597600  0.797890  1
  C  C273  1  0.064000  0.088900  0.746580  1
  C  C274  1  0.436000  0.411100  0.246580  1
  C  C275  1  0.936000  0.911100  0.253420  1
  C  C276  1  0.564000  0.588900  0.753420  1
  C  C277  1  0.986100  0.027500  0.654900  1
  C  C278  1  0.513900  0.472500  0.154900  1
  C  C279  1  0.013900  0.972500  0.345100  1
  C  C280  1  0.486100  0.527500  0.845100  1
  C  C281  1  0.900300  0.033600  0.618500  1
  C  C282  1  0.599700  0.466400  0.118500  1
  C  C283  1  0.099700  0.966400  0.381500  1
  C  C284  1  0.400300  0.533600  0.881500  1
  C  C285  1  0.834200  0.964200  0.607500  1
  C  C286  1  0.665800  0.535800  0.107500  1
  C  C287  1  0.165800  0.035800  0.392500  1
  C  C288  1  0.334200  0.464200  0.892500  1
  C  C289  1  0.737900  0.045500  0.559400  1
  C  C290  1  0.762100  0.454500  0.059400  1
  C  C291  1  0.262100  0.954500  0.440600  1
  C  C292  1  0.237900  0.545500  0.940600  1
  C  C293  1  0.801500  0.116200  0.570400  1
  C  C294  1  0.698500  0.383800  0.070400  1
  C  C295  1  0.198500  0.883800  0.429600  1
  C  C296  1  0.301500  0.616200  0.929600  1
  C  C297  1  0.033500  0.327100  0.951880  1
  C  C298  1  0.466500  0.172900  0.451880  1
  C  C299  1  0.966500  0.672900  0.048120  1
  C  C300  1  0.533500  0.827100  0.548120  1
  C  C301  1  0.997100  0.400800  0.971100  1
  C  C302  1  0.502900  0.099200  0.471100  1
  C  C303  1  0.002900  0.599200  0.028900  1
  C  C304  1  0.497100  0.900800  0.528900  1
  C  C305  1  0.867800  0.404700  0.916200  1
  C  C306  1  0.632200  0.095300  0.416200  1
  C  C307  1  0.132200  0.595300  0.083800  1
  C  C308  1  0.367800  0.904700  0.583800  1
  C  C309  1  0.902800  0.330300  0.896900  1
  C  C310  1  0.597200  0.169700  0.396900  1
  C  C311  1  0.097200  0.669700  0.103100  1
  C  C312  1  0.402800  0.830300  0.603100  1
  C  C313  1  0.849700  0.289500  0.855280  1
  C  C314  1  0.650300  0.210500  0.355280  1
  C  C315  1  0.150300  0.710500  0.144720  1
  C  C316  1  0.349700  0.789500  0.644720  1
  C  C317  1  0.850400  0.177800  0.802280  1
  C  C318  1  0.649600  0.322200  0.302280  1
  C  C319  1  0.149600  0.822200  0.197720  1
  C  C320  1  0.350400  0.677800  0.697720  1
  C  C321  1  0.802200  0.097200  0.804270  1
  C  C322  1  0.697800  0.402800  0.304270  1
  C  C323  1  0.197800  0.902800  0.195730  1
  C  C324  1  0.302200  0.597200  0.695730  1
  C  C325  1  0.763900  0.058100  0.763400  1
  C  C326  1  0.736100  0.441900  0.263400  1
  C  C327  1  0.236100  0.941900  0.236600  1
  C  C328  1  0.263900  0.558100  0.736600  1
  C  C329  1  0.776500  0.099000  0.720330  1
  C  C330  1  0.723500  0.401000  0.220330  1
  C  C331  1  0.223500  0.901000  0.279670  1
  C  C332  1  0.276500  0.599000  0.779670  1
  C  C333  1  0.825700  0.179400  0.718400  1
  C  C334  1  0.674300  0.320600  0.218400  1
  C  C335  1  0.174300  0.820600  0.281600  1
  C  C336  1  0.325700  0.679400  0.781600  1
  C  C337  1  0.859600  0.218400  0.759270  1
  C  C338  1  0.640400  0.281600  0.259270  1
  C  C339  1  0.140400  0.781600  0.240730  1
  C  C340  1  0.359600  0.718400  0.740730  1
  C  C341  1  0.782100  0.285900  0.666580  1
  C  C342  1  0.717900  0.214100  0.166580  1
  C  C343  1  0.217900  0.714100  0.333420  1
  C  C344  1  0.282100  0.785900  0.833420  1
  C  C345  1  0.811800  0.334800  0.623500  1
  C  C346  1  0.688200  0.165200  0.123500  1
  C  C347  1  0.188200  0.665200  0.376500  1
  C  C348  1  0.311800  0.834800  0.876500  1
  C  C349  1  0.755900  0.404700  0.609300  1
  C  C350  1  0.744100  0.095300  0.109300  1
  C  C351  1  0.244100  0.595300  0.390700  1
  C  C352  1  0.255900  0.904700  0.890700  1
  C  C353  1  0.867100  0.422800  0.548100  1
  C  C354  1  0.632900  0.077200  0.048100  1
  C  C355  1  0.132900  0.577200  0.451900  1
  C  C356  1  0.367100  0.922800  0.951900  1
  C  C357  1  0.923400  0.353700  0.561500  1
  C  C358  1  0.576600  0.146300  0.061500  1
  C  C359  1  0.076600  0.646300  0.438500  1
  C  C360  1  0.423400  0.853700  0.938500  1
  C  C361  1  0.052200  0.696100  0.713700  1
  C  C362  1  0.447800  0.803900  0.213700  1
  C  C363  1  0.947800  0.303900  0.286300  1
  C  C364  1  0.552200  0.196100  0.786300  1
  C  C365  1  0.109600  0.967600  0.533300  1
  C  C366  1  0.390400  0.532400  0.033300  1
  C  C367  1  0.890400  0.032400  0.466700  1
  C  C368  1  0.609600  0.467600  0.966700  1
  C  C369  1  0.522300  0.176400  0.642200  1
  C  C370  1  0.977700  0.323600  0.142200  1
  C  C371  1  0.477700  0.823600  0.357800  1
  C  C372  1  0.022300  0.676400  0.857800  1
  N  N373  1  0.185800  0.187000  0.907930  1
  N  N374  1  0.314200  0.313000  0.407930  1
  N  N375  1  0.814200  0.813000  0.092070  1
  N  N376  1  0.685800  0.687000  0.592070  1
  N  N377  1  0.393700  0.176800  0.940900  1
  N  N378  1  0.106300  0.323200  0.440900  1
  N  N379  1  0.606300  0.823200  0.059100  1
  N  N380  1  0.893700  0.676800  0.559100  1
  N  N381  1  0.137100  0.278500  0.833580  1
  N  N382  1  0.362900  0.221500  0.333580  1
  N  N383  1  0.862900  0.721500  0.166420  1
  N  N384  1  0.637100  0.778500  0.666420  1
  N  N385  1  0.099300  0.211100  0.583950  1
  N  N386  1  0.400700  0.288900  0.083950  1
  N  N387  1  0.900700  0.788900  0.416050  1
  N  N388  1  0.599300  0.711100  0.916050  1
  N  N389  1  0.291200  0.203700  0.535450  1
  N  N390  1  0.208800  0.296300  0.035450  1
  N  N391  1  0.708800  0.796300  0.464550  1
  N  N392  1  0.791200  0.703700  0.964550  1
  N  N393  1  0.084800  0.292300  0.664880  1
  N  N394  1  0.415200  0.207700  0.164880  1
  N  N395  1  0.915200  0.707700  0.335120  1
  N  N396  1  0.584800  0.792300  0.835120  1
  N  N397  1  0.973100  0.092500  0.910840  1
  N  N398  1  0.526900  0.407500  0.410840  1
  N  N399  1  0.026900  0.907500  0.089160  1
  N  N400  1  0.473100  0.592500  0.589160  1
  N  N401  1  0.885000  0.947300  0.951000  1
  N  N402  1  0.615000  0.552700  0.451000  1
  N  N403  1  0.115000  0.052700  0.049000  1
  N  N404  1  0.385000  0.447300  0.549000  1
  N  N405  1  0.080900  0.088200  0.831510  1
  N  N406  1  0.419100  0.411800  0.331510  1
  N  N407  1  0.919100  0.911800  0.168490  1
  N  N408  1  0.580900  0.588200  0.668490  1
  N  N409  1  0.884300  0.110000  0.599690  1
  N  N410  1  0.615700  0.390000  0.099690  1
  N  N411  1  0.115700  0.890000  0.400310  1
  N  N412  1  0.384300  0.610000  0.900310  1
  N  N413  1  0.753600  0.969700  0.577170  1
  N  N414  1  0.746400  0.530300  0.077170  1
  N  N415  1  0.246400  0.030300  0.422830  1
  N  N416  1  0.253600  0.469700  0.922830  1
  N  N417  1  0.035100  0.100100  0.663750  1
  N  N418  1  0.464900  0.399900  0.163750  1
  N  N419  1  0.964900  0.899900  0.336250  1
  N  N420  1  0.535100  0.600100  0.836250  1
  N  N421  1  0.987000  0.292100  0.914560  1
  N  N422  1  0.513000  0.207900  0.414560  1
  N  N423  1  0.013000  0.707900  0.085440  1
  N  N424  1  0.487000  0.792100  0.585440  1
  N  N425  1  0.914300  0.440800  0.953780  1
  N  N426  1  0.585700  0.059200  0.453780  1
  N  N427  1  0.085700  0.559200  0.046220  1
  N  N428  1  0.414300  0.940800  0.546220  1
  N  N429  1  0.893700  0.218800  0.842620  1
  N  N430  1  0.606300  0.281200  0.342620  1
  N  N431  1  0.106300  0.781200  0.157380  1
  N  N432  1  0.393700  0.718800  0.657380  1
  N  N433  1  0.897300  0.308400  0.599270  1
  N  N434  1  0.602700  0.191600  0.099270  1
  N  N435  1  0.102700  0.691600  0.400730  1
  N  N436  1  0.397300  0.808400  0.900730  1
  N  N437  1  0.782600  0.449500  0.571300  1
  N  N438  1  0.717400  0.050500  0.071300  1
  N  N439  1  0.217400  0.550500  0.428700  1
  N  N440  1  0.282600  0.949500  0.928700  1
  N  N441  1  0.844400  0.222900  0.675530  1
  N  N442  1  0.655600  0.277100  0.175530  1
  N  N443  1  0.155600  0.777100  0.324470  1
  N  N444  1  0.344400  0.722900  0.824470  1
  O  O445  1  0.316300  0.304900  0.817750  1
  O  O446  1  0.183700  0.195100  0.317750  1
  O  O447  1  0.683700  0.695100  0.182250  1
  O  O448  1  0.816300  0.804900  0.682250  1
  O  O449  1  0.257500  0.343700  0.657600  1
  O  O450  1  0.242500  0.156300  0.157600  1
  O  O451  1  0.742500  0.656300  0.342400  1
  O  O452  1  0.757500  0.843700  0.842400  1
  O  O453  1  0.025300  0.948000  0.818980  1
  O  O454  1  0.474700  0.552000  0.318980  1
  O  O455  1  0.974700  0.052000  0.181020  1
  O  O456  1  0.525300  0.448000  0.681020  1
  O  O457  1  0.001900  0.956200  0.673310  1
  O  O458  1  0.498100  0.543800  0.173310  1
  O  O459  1  0.998100  0.043800  0.326690  1
  O  O460  1  0.501900  0.456200  0.826690  1
  O  O461  1  0.769700  0.325700  0.837760  1
  O  O462  1  0.730300  0.174300  0.337760  1
  O  O463  1  0.230300  0.674300  0.162240  1
  O  O464  1  0.269700  0.825700  0.662240  1
  O  O465  1  0.702400  0.309200  0.689560  1
  O  O466  1  0.797600  0.190800  0.189560  1
  O  O467  1  0.297600  0.690800  0.310440  1
  O  O468  1  0.202400  0.809200  0.810440  1
  O  O469  1  0.008600  0.772600  0.723900  1
  O  O470  1  0.491400  0.727400  0.223900  1
  O  O471  1  0.991400  0.227400  0.276100  1
  O  O472  1  0.508600  0.272600  0.776100  1
  O  O473  1  0.091600  0.878700  0.531200  1
  O  O474  1  0.408400  0.621300  0.031200  1
  O  O475  1  0.908400  0.121300  0.468800  1
  O  O476  1  0.591600  0.378700  0.968800  1
  O  O477  1  0.513700  0.262200  0.645800  1
  O  O478  1  0.986300  0.237800  0.145800  1
  O  O479  1  0.486300  0.737800  0.354200  1
  O  O480  1  0.013700  0.762200  0.854200  1
  O  O481  1  0.079000  0.834500  0.617440  1
  O  O482  1  0.421000  0.665500  0.117440  1
  O  O483  1  0.921000  0.165500  0.382560  1
  O  O484  1  0.579000  0.334500  0.882560  1
  O  O485  1  0.766900  0.252500  0.482600  1
  O  O486  1  0.733100  0.247500  0.982600  1
  O  O487  1  0.233100  0.747500  0.517400  1
  O  O488  1  0.266900  0.752500  0.017400  1
  O  O489  1  0.869500  0.493700  0.412300  1
  O  O490  1  0.630500  0.006300  0.912300  1
  O  O491  1  0.130500  0.506300  0.587700  1
  O  O492  1  0.369500  0.993700  0.087700  1
