# generated using pymatgen
data_Ni2H60C71S2(N3O4)6
_symmetry_space_group_name_H-M   'P 1'
_cell_length_a   17.18762001
_cell_length_b   17.18762001
_cell_length_c   17.18762001
_cell_angle_alpha   71.54222062
_cell_angle_beta   71.54222062
_cell_angle_gamma   71.54222062
_symmetry_Int_Tables_number   1
_chemical_formula_structural   Ni2H60C71S2(N3O4)6
_chemical_formula_sum   'Ni4 H120 C142 S4 N36 O48'
_cell_volume   4434.44998798
_cell_formula_units_Z   2
loop_
 _symmetry_equiv_pos_site_id
 _symmetry_equiv_pos_as_xyz
  1  'x, y, z'
loop_
 _atom_site_type_symbol
 _atom_site_label
 _atom_site_symmetry_multiplicity
 _atom_site_fract_x
 _atom_site_fract_y
 _atom_site_fract_z
 _atom_site_occupancy
  C  C1  1  0.820400  0.621300  0.917600  1
  C  C2  1  0.917600  0.820400  0.621300  1
  C  C3  1  0.621300  0.917600  0.820400  1
  C  C4  1  0.499000  0.499000  0.499000  1
  C  C5  1  0.140000  0.163700  0.904800  1.0
  C  C6  1  0.904800  0.140000  0.163700  1.0
  C  C7  1  0.163700  0.904800  0.140000  1.0
  C  C8  1  0.141300  0.027100  0.918900  1.0
  C  C9  1  0.918900  0.141300  0.027100  1.0
  C  C10  1  0.027100  0.918900  0.141300  1.0
  C  C11  1  0.173300  0.033500  0.833400  1.0
  C  C12  1  0.833400  0.173300  0.033500  1.0
  C  C13  1  0.033500  0.833400  0.173300  1.0
  C  C14  1  0.188600  0.109000  0.783400  1.0
  C  C15  1  0.783400  0.188600  0.109000  1.0
  C  C16  1  0.109000  0.783400  0.188600  1.0
  C  C17  1  0.172800  0.175800  0.819400  1.0
  C  C18  1  0.819400  0.172800  0.175800  1.0
  C  C19  1  0.175800  0.819400  0.172800  1.0
  C  C20  1  0.121200  0.231400  0.948900  1.0
  C  C21  1  0.948900  0.121200  0.231400  1.0
  C  C22  1  0.231400  0.948900  0.121200  1.0
  C  C23  1  0.079540  0.267040  0.078040  1.0
  C  C24  1  0.078040  0.079540  0.267040  1.0
  C  C25  1  0.267040  0.078040  0.079540  1.0
  C  C26  1  0.083600  0.350700  0.040900  1.0
  C  C27  1  0.040900  0.083600  0.350700  1.0
  C  C28  1  0.350700  0.040900  0.083600  1.0
  C  C29  1  0.106900  0.372400  0.953000  1.0
  C  C30  1  0.953000  0.106900  0.372400  1.0
  C  C31  1  0.372400  0.953000  0.106900  1.0
  C  C32  1  0.125900  0.315400  0.907600  1.0
  C  C33  1  0.907600  0.125900  0.315400  1.0
  C  C34  1  0.315400  0.907600  0.125900  1.0
  C  C35  1  0.061300  0.412000  0.091900  1.0
  C  C36  1  0.091900  0.061300  0.412000  1.0
  C  C37  1  0.412000  0.091900  0.061300  1.0
  C  C38  1  0.004100  0.356500  0.242400  1.0
  C  C39  1  0.242400  0.004100  0.356500  1.0
  C  C40  1  0.356500  0.242400  0.004100  1.0
  C  C41  1  0.953200  0.298400  0.393400  1.0
  C  C42  1  0.393400  0.953200  0.298400  1.0
  C  C43  1  0.298400  0.393400  0.953200  1.0
  C  C44  1  0.919000  0.458200  0.555200  1.0
  C  C45  1  0.555200  0.919000  0.458200  1.0
  C  C46  1  0.458200  0.555200  0.919000  1.0
  C  C47  1  0.954000  0.433800  0.422800  1.0
  C  C48  1  0.422800  0.954000  0.433800  1.0
  C  C49  1  0.433800  0.422800  0.954000  1.0
  C  C50  1  0.942800  0.353500  0.453700  1.0
  C  C51  1  0.453700  0.942800  0.353500  1.0
  C  C52  1  0.353500  0.453700  0.942800  1.0
  C  C53  1  0.918900  0.324900  0.537700  1.0
  C  C54  1  0.537700  0.918900  0.324900  1.0
  C  C55  1  0.324900  0.537700  0.918900  1.0
  C  C56  1  0.905100  0.375400  0.588600  1.0
  C  C57  1  0.588600  0.905100  0.375400  1.0
  C  C58  1  0.375400  0.588600  0.905100  1.0
  C  C59  1  0.902700  0.519800  0.605000  1.0
  C  C60  1  0.605000  0.902700  0.519800  1.0
  C  C61  1  0.519800  0.605000  0.902700  1.0
  C  C62  1  0.903800  0.655300  0.600100  1.0
  C  C63  1  0.600100  0.903800  0.655300  1.0
  C  C64  1  0.655300  0.600100  0.903800  1.0
  C  C65  1  0.878100  0.642000  0.690100  1.0
  C  C66  1  0.690100  0.878100  0.642000  1.0
  C  C67  1  0.642000  0.690100  0.878100  1.0
  C  C68  1  0.867600  0.566400  0.732400  1.0
  C  C69  1  0.732400  0.867600  0.566400  1.0
  C  C70  1  0.566400  0.732400  0.867600  1.0
  C  C71  1  0.875900  0.504100  0.693700  1.0
  C  C72  1  0.693700  0.875900  0.504100  1.0
  C  C73  1  0.504100  0.693700  0.875900  1.0
  C  C74  1  0.056100  0.726500  0.408100  1.0
  C  C75  1  0.408100  0.056100  0.726500  1.0
  C  C76  1  0.726500  0.408100  0.056100  1.0
  C  C77  1  0.921800  0.801100  0.379900  1.0
  C  C78  1  0.379900  0.921800  0.801100  1.0
  C  C79  1  0.801100  0.379900  0.921800  1.0
  C  C80  1  0.937700  0.878300  0.366000  1.0
  C  C81  1  0.366000  0.937700  0.878300  1.0
  C  C82  1  0.878300  0.366000  0.937700  1.0
  C  C83  1  0.015900  0.875500  0.377600  1.0
  C  C84  1  0.377600  0.015900  0.875500  1.0
  C  C85  1  0.875500  0.377600  0.015900  1.0
  C  C86  1  0.075400  0.801900  0.394100  1.0
  C  C87  1  0.394100  0.075400  0.801900  1.0
  C  C88  1  0.801900  0.394100  0.075400  1.0
  C  C89  1  0.111400  0.643000  0.429700  1.0
  C  C90  1  0.429700  0.111400  0.643000  1.0
  C  C91  1  0.643000  0.429700  0.111400  1.0
  C  C92  1  0.129400  0.497600  0.461400  1.0
  C  C93  1  0.461400  0.129400  0.497600  1.0
  C  C94  1  0.497600  0.461400  0.129400  1.0
  C  C95  1  0.210300  0.480200  0.471400  1.0
  C  C96  1  0.471400  0.210300  0.480200  1.0
  C  C97  1  0.480200  0.471400  0.210300  1.0
  C  C98  1  0.243300  0.549900  0.457200  1.0
  C  C99  1  0.457200  0.243300  0.549900  1.0
  C  C100  1  0.549900  0.457200  0.243300  1.0
  C  C101  1  0.191600  0.632700  0.436600  1.0
  C  C102  1  0.436600  0.191600  0.632700  1.0
  C  C103  1  0.632700  0.436600  0.191600  1.0
  C  C104  1  0.260100  0.394400  0.496600  1.0
  C  C105  1  0.496600  0.260100  0.394400  1.0
  C  C106  1  0.394400  0.496600  0.260100  1.0
  C  C107  1  0.188800  0.279700  0.540100  1.0
  C  C108  1  0.540100  0.188800  0.279700  1.0
  C  C109  1  0.279700  0.540100  0.188800  1.0
  C  C110  1  0.114800  0.167500  0.571200  1.0
  C  C111  1  0.571200  0.114800  0.167500  1.0
  C  C112  1  0.167500  0.571200  0.114800  1.0
  C  C113  1  0.917500  0.634900  0.266600  1.0
  C  C114  1  0.266600  0.917500  0.634900  1.0
  C  C115  1  0.634900  0.266600  0.917500  1.0
  C  C116  1  0.062700  0.585500  0.253300  1.0
  C  C117  1  0.253300  0.062700  0.585500  1.0
  C  C118  1  0.585500  0.253300  0.062700  1.0
  C  C119  1  0.166900  0.080400  0.592100  1.0
  C  C120  1  0.592100  0.166900  0.080400  1.0
  C  C121  1  0.080400  0.592100  0.166900  1.0
  C  C122  1  0.133900  0.009500  0.620100  1.0
  C  C123  1  0.620100  0.133900  0.009500  1.0
  C  C124  1  0.009500  0.620100  0.133900  1.0
  C  C125  1  0.930300  0.641100  0.181000  1.0
  C  C126  1  0.181000  0.930300  0.641100  1.0
  C  C127  1  0.641100  0.181000  0.930300  1.0
  C  C128  1  0.836000  0.655600  0.323500  1.0
  C  C129  1  0.323500  0.836000  0.655600  1.0
  C  C130  1  0.655600  0.323500  0.836000  1.0
  C  C131  1  0.766700  0.665800  0.463600  1.0
  C  C132  1  0.463600  0.766700  0.665800  1.0
  C  C133  1  0.665800  0.463600  0.766700  1.0
  C  C134  1  0.687500  0.692000  0.439200  1.0
  C  C135  1  0.439200  0.687500  0.692000  1.0
  C  C136  1  0.692000  0.439200  0.687500  1.0
  C  C137  1  0.686800  0.697900  0.355100  1.0
  C  C138  1  0.355100  0.686800  0.697900  1.0
  C  C139  1  0.697900  0.355100  0.686800  1.0
  C  C140  1  0.758700  0.681200  0.299300  1.0
  C  C141  1  0.299300  0.758700  0.681200  1.0
  C  C142  1  0.681200  0.299300  0.758700  1.0
  H  H143  1  0.119300  0.364900  0.189600  1.0
  H  H144  1  0.189600  0.119300  0.364900  1.0
  H  H145  1  0.364900  0.189600  0.119300  1.0
  H  H146  1  0.071800  0.296400  0.322100  1.0
  H  H147  1  0.322100  0.071800  0.296400  1.0
  H  H148  1  0.296400  0.322100  0.071800  1.0
  H  H149  1  0.251300  0.319600  0.429600  1.0
  H  H150  1  0.429600  0.251300  0.319600  1.0
  H  H151  1  0.319600  0.429600  0.251300  1.0
  H  H152  1  0.174800  0.233400  0.458200  1.0
  H  H153  1  0.458200  0.174800  0.233400  1.0
  H  H154  1  0.233400  0.458200  0.174800  1.0
  H  H155  1  0.131300  0.974200  0.953600  1.0
  H  H156  1  0.953600  0.131300  0.974200  1.0
  H  H157  1  0.974200  0.953600  0.131300  1.0
  H  H158  1  0.184300  0.986800  0.810000  1.0
  H  H159  1  0.810000  0.184300  0.986800  1.0
  H  H160  1  0.986800  0.810000  0.184300  1.0
  H  H161  1  0.210000  0.116000  0.724100  1.0
  H  H162  1  0.724100  0.210000  0.116000  1.0
  H  H163  1  0.116000  0.724100  0.210000  1.0
  H  H164  1  0.184500  0.228500  0.785900  1.0
  H  H165  1  0.785900  0.184500  0.228500  1.0
  H  H166  1  0.228500  0.785900  0.184500  1.0
  H  H167  1  0.063500  0.250100  0.137900  1.0
  H  H168  1  0.137900  0.063500  0.250100  1.0
  H  H169  1  0.250100  0.137900  0.063500  1.0
  H  H170  1  0.109300  0.429200  0.924400  1.0
  H  H171  1  0.924400  0.109300  0.429200  1.0
  H  H172  1  0.429200  0.924400  0.109300  1.0
  H  H173  1  0.142700  0.331500  0.847700  1.0
  H  H174  1  0.847700  0.142700  0.331500  1.0
  H  H175  1  0.331500  0.847700  0.142700  1.0
  H  H176  1  0.097700  0.452500  0.063900  1.0
  H  H177  1  0.063900  0.097700  0.452500  1.0
  H  H178  1  0.452500  0.063900  0.097700  1.0
  H  H179  1  0.002100  0.444200  0.093100  1.0
  H  H180  1  0.093100  0.002100  0.444200  1.0
  H  H181  1  0.444200  0.093100  0.002100  1.0
  H  H182  1  0.967400  0.237900  0.422900  1.0
  H  H183  1  0.422900  0.967400  0.237900  1.0
  H  H184  1  0.237900  0.422900  0.967400  1.0
  H  H185  1  0.899200  0.310500  0.377700  1.0
  H  H186  1  0.377700  0.899200  0.310500  1.0
  H  H187  1  0.310500  0.377700  0.899200  1.0
  H  H188  1  0.970800  0.454000  0.363300  1.0
  H  H189  1  0.363300  0.970800  0.454000  1.0
  H  H190  1  0.454000  0.363300  0.970800  1.0
  H  H191  1  0.911700  0.268800  0.561100  1.0
  H  H192  1  0.561100  0.911700  0.268800  1.0
  H  H193  1  0.268800  0.561100  0.911700  1.0
  H  H194  1  0.885700  0.355700  0.647800  1.0
  H  H195  1  0.647800  0.885700  0.355700  1.0
  H  H196  1  0.355700  0.647800  0.885700  1.0
  H  H197  1  0.914200  0.708600  0.567300  1.0
  H  H198  1  0.567300  0.914200  0.708600  1.0
  H  H199  1  0.708600  0.567300  0.914200  1.0
  H  H200  1  0.869500  0.685200  0.717600  1.0
  H  H201  1  0.717600  0.869500  0.685200  1.0
  H  H202  1  0.685200  0.717600  0.869500  1.0
  H  H203  1  0.853600  0.554000  0.792400  1.0
  H  H204  1  0.792400  0.853600  0.554000  1.0
  H  H205  1  0.554000  0.792400  0.853600  1.0
  H  H206  1  0.863600  0.451400  0.726300  1.0
  H  H207  1  0.726300  0.863600  0.451400  1.0
  H  H208  1  0.451400  0.726300  0.863600  1.0
  H  H209  1  0.869700  0.798600  0.373900  1.0
  H  H210  1  0.373900  0.869700  0.798600  1.0
  H  H211  1  0.798600  0.373900  0.869700  1.0
  H  H212  1  0.898600  0.929900  0.349600  1.0
  H  H213  1  0.349600  0.898600  0.929900  1.0
  H  H214  1  0.929900  0.349600  0.898600  1.0
  H  H215  1  0.028000  0.927000  0.374000  1.0
  H  H216  1  0.374000  0.028000  0.927000  1.0
  H  H217  1  0.927000  0.374000  0.028000  1.0
  H  H218  1  0.129800  0.803100  0.395800  1.0
  H  H219  1  0.395800  0.129800  0.803100  1.0
  H  H220  1  0.803100  0.395800  0.129800  1.0
  H  H221  1  0.106900  0.450700  0.470500  1.0
  H  H222  1  0.470500  0.106900  0.450700  1.0
  H  H223  1  0.450700  0.470500  0.106900  1.0
  H  H224  1  0.299300  0.541700  0.461300  1.0
  H  H225  1  0.461300  0.299300  0.541700  1.0
  H  H226  1  0.541700  0.461300  0.299300  1.0
  H  H227  1  0.212500  0.680500  0.427600  1.0
  H  H228  1  0.427600  0.212500  0.680500  1.0
  H  H229  1  0.680500  0.427600  0.212500  1.0
  H  H230  1  0.256900  0.381500  0.557700  1.0
  H  H231  1  0.557700  0.256900  0.381500  1.0
  H  H232  1  0.381500  0.557700  0.256900  1.0
  H  H233  1  0.319900  0.392400  0.466100  1.0
  H  H234  1  0.466100  0.319900  0.392400  1.0
  H  H235  1  0.392400  0.466100  0.319900  1.0
  H  H236  1  0.070800  0.167000  0.545500  1.0
  H  H237  1  0.545500  0.070800  0.167000  1.0
  H  H238  1  0.167000  0.545500  0.070800  1.0
  H  H239  1  0.085600  0.186300  0.624200  1.0
  H  H240  1  0.624200  0.085600  0.186300  1.0
  H  H241  1  0.186300  0.624200  0.085600  1.0
  H  H242  1  0.108700  0.563500  0.279700  1.0
  H  H243  1  0.279700  0.108700  0.563500  1.0
  H  H244  1  0.563500  0.279700  0.108700  1.0
  H  H245  1  0.075500  0.017300  0.624800  1.0
  H  H246  1  0.624800  0.075500  0.017300  1.0
  H  H247  1  0.017300  0.624800  0.075500  1.0
  H  H248  1  0.883700  0.660000  0.155900  1.0
  H  H249  1  0.155900  0.883700  0.660000  1.0
  H  H250  1  0.660000  0.155900  0.883700  1.0
  H  H251  1  0.768000  0.659900  0.520100  1.0
  H  H252  1  0.520100  0.768000  0.659900  1.0
  H  H253  1  0.659900  0.520100  0.768000  1.0
  H  H254  1  0.635800  0.705500  0.479500  1.0
  H  H255  1  0.479500  0.635800  0.705500  1.0
  H  H256  1  0.705500  0.479500  0.635800  1.0
  H  H257  1  0.634700  0.713900  0.339300  1.0
  H  H258  1  0.339300  0.634700  0.713900  1.0
  H  H259  1  0.713900  0.339300  0.634700  1.0
  H  H260  1  0.758700  0.686300  0.242600  1.0
  H  H261  1  0.242600  0.758700  0.686300  1.0
  H  H262  1  0.686300  0.242600  0.758700  1.0
  N  N263  1  0.123480  0.089880  0.956080  1.0
  N  N264  1  0.956080  0.123480  0.089880  1.0
  N  N265  1  0.089880  0.956080  0.123480  1.0
  N  N266  1  0.096560  0.209560  0.034860  1.0
  N  N267  1  0.034860  0.096560  0.209560  1.0
  N  N268  1  0.209560  0.034860  0.096560  1.0
  N  N269  1  0.069790  0.375190  0.178690  1.0
  N  N270  1  0.178690  0.069790  0.375190  1.0
  N  N271  1  0.375190  0.178690  0.069790  1.0
  N  N272  1  0.019000  0.315000  0.317900  1.0
  N  N273  1  0.317900  0.019000  0.315000  1.0
  N  N274  1  0.315000  0.317900  0.019000  1.0
  N  N275  1  0.943100  0.485300  0.470400  1.0
  N  N276  1  0.470400  0.943100  0.485300  1.0
  N  N277  1  0.485300  0.470400  0.943100  1.0
  N  N278  1  0.914000  0.596300  0.559500  1.0
  N  N279  1  0.559500  0.914000  0.596300  1.0
  N  N280  1  0.596300  0.559500  0.914000  1.0
  N  N281  1  0.979700  0.727100  0.402600  1.0
  N  N282  1  0.402600  0.979700  0.727100  1.0
  N  N283  1  0.727100  0.402600  0.979700  1.0
  N  N284  1  0.080300  0.574900  0.440100  1.0
  N  N285  1  0.440100  0.080300  0.574900  1.0
  N  N286  1  0.574900  0.440100  0.080300  1.0
  N  N287  1  0.234800  0.327600  0.481000  1.0
  N  N288  1  0.481000  0.234800  0.327600  1.0
  N  N289  1  0.327600  0.481000  0.234800  1.0
  N  N290  1  0.162730  0.229330  0.512830  1.0
  N  N291  1  0.512830  0.162730  0.229330  1.0
  N  N292  1  0.229330  0.512830  0.162730  1.0
  N  N293  1  0.985000  0.608200  0.301700  1.0
  N  N294  1  0.301700  0.985000  0.608200  1.0
  N  N295  1  0.608200  0.301700  0.985000  1.0
  N  N296  1  0.836800  0.650100  0.405600  1.0
  N  N297  1  0.405600  0.836800  0.650100  1.0
  N  N298  1  0.650100  0.405600  0.836800  1.0
  Ni  Ni299  1  0.084270  0.084270  0.084270  1
  Ni  Ni300  1  0.956500  0.607620  0.429390  1.0
  Ni  Ni301  1  0.429390  0.956500  0.607620  1.0
  Ni  Ni302  1  0.607620  0.429390  0.956500  1.0
  O  O303  1  0.307000  0.307000  0.307000  1
  O  O304  1  0.121200  0.809700  0.978600  1
  O  O305  1  0.978600  0.121200  0.809700  1
  O  O306  1  0.809700  0.978600  0.121200  1
  O  O307  1  0.174300  0.704000  0.911500  1
  O  O308  1  0.911500  0.174300  0.704000  1
  O  O309  1  0.704000  0.911500  0.174300  1
  O  O310  1  0.262100  0.790600  0.899100  1
  O  O311  1  0.899100  0.262100  0.790600  1
  O  O312  1  0.790600  0.899100  0.262100  1
  O  O313  1  0.147000  0.847500  0.835500  1
  O  O314  1  0.835500  0.147000  0.847500  1
  O  O315  1  0.847500  0.835500  0.147000  1
  O  O316  1  0.112500  0.591400  0.911900  1
  O  O317  1  0.911900  0.112500  0.591400  1
  O  O318  1  0.591400  0.911900  0.112500  1
  O  O319  1  0.965200  0.810000  0.998400  1
  O  O320  1  0.998400  0.965200  0.810000  1
  O  O321  1  0.810000  0.998400  0.965200  1
  O  O322  1  0.894900  0.618600  0.935500  1
  O  O323  1  0.935500  0.894900  0.618600  1
  O  O324  1  0.618600  0.935500  0.894900  1
  O  O325  1  0.791300  0.500600  0.246600  1
  O  O326  1  0.246600  0.791300  0.500600  1
  O  O327  1  0.500600  0.246600  0.791300  1
  O  O328  1  0.484900  0.690800  0.276700  1
  O  O329  1  0.276700  0.484900  0.690800  1
  O  O330  1  0.690800  0.276700  0.484900  1
  O  O331  1  0.476800  0.709500  0.472200  1
  O  O332  1  0.472200  0.476800  0.709500  1
  O  O333  1  0.709500  0.472200  0.476800  1
  O  O334  1  0.837100  0.837200  0.837100  1
  O  O335  1  0.051700  0.489400  0.751900  1
  O  O336  1  0.751900  0.051700  0.489400  1
  O  O337  1  0.489400  0.751900  0.051700  1
  O  O338  1  0.034800  0.341500  0.732800  1
  O  O339  1  0.732800  0.034800  0.341500  1
  O  O340  1  0.341500  0.732800  0.034800  1
  O  O341  1  0.461100  0.461100  0.461100  1
  O  O342  1  0.929800  0.379000  0.230000  1.0
  O  O343  1  0.230000  0.929800  0.379000  1.0
  O  O344  1  0.379000  0.230000  0.929800  1.0
  O  O345  1  0.170640  0.278640  0.616140  1.0
  O  O346  1  0.616140  0.170640  0.278640  1.0
  O  O347  1  0.278640  0.616140  0.170640  1.0
  O  O348  1  0.331050  0.194850  0.242550  1.0
  O  O349  1  0.242550  0.331050  0.194850  1.0
  O  O350  1  0.194850  0.242550  0.331050  1.0
  S  S351  1  0.269080  0.269080  0.269080  1
  S  S352  1  0.178010  0.786580  0.900840  1
  S  S353  1  0.900840  0.178010  0.786580  1
  S  S354  1  0.786580  0.900840  0.178010  1
