# generated using pymatgen
data_Fe2H177Pd2C192S4(N4O5)3
_symmetry_space_group_name_H-M   'P 1'
_cell_length_a   18.00000000
_cell_length_b   24.66500000
_cell_length_c   25.22100000
_cell_angle_alpha   109.16000000
_cell_angle_beta   97.62000000
_cell_angle_gamma   100.30000000
_symmetry_Int_Tables_number   1
_chemical_formula_structural   Fe2H177Pd2C192S4(N4O5)3
_chemical_formula_sum   'Fe4 H354 Pd4 C384 S8 N24 O30'
_cell_volume   10183.83812264
_cell_formula_units_Z   2
loop_
 _symmetry_equiv_pos_site_id
 _symmetry_equiv_pos_as_xyz
  1  'x, y, z'
loop_
 _atom_site_type_symbol
 _atom_site_label
 _atom_site_symmetry_multiplicity
 _atom_site_fract_x
 _atom_site_fract_y
 _atom_site_fract_z
 _atom_site_occupancy
  Fe  Fe1  1  0.897230  0.280040  0.791520  1
  Fe  Fe2  1  0.102770  0.719960  0.208480  1
  Fe  Fe3  1  0.324680  0.220860  0.231740  1
  Fe  Fe4  1  0.675320  0.779140  0.768260  1
  H  H5  1  0.755600  0.243500  0.811200  1
  H  H6  1  0.244400  0.756500  0.188800  1
  H  H7  1  0.771600  0.218200  0.707500  1
  H  H8  1  0.228400  0.781800  0.292500  1
  H  H9  1  0.895100  0.183300  0.698800  1
  H  H10  1  0.104900  0.816700  0.301200  1
  H  H11  1  0.958700  0.188700  0.796900  1
  H  H12  1  0.041300  0.811300  0.203100  1
  H  H13  1  0.841800  0.377100  0.834700  1
  H  H14  1  0.158200  0.622900  0.165300  1
  H  H15  1  0.950200  0.360800  0.898900  1
  H  H16  1  0.049800  0.639200  0.101100  1
  H  H17  1  0.999900  0.321300  0.737100  1
  H  H18  1  0.000100  0.678700  0.262900  1
  H  H19  1  0.045400  0.323300  0.838400  1
  H  H20  1  0.954600  0.676700  0.161600  1
  H  H21  1  0.316500  0.320700  0.211100  1
  H  H22  1  0.683500  0.679300  0.788900  1
  H  H23  1  0.407700  0.261400  0.165900  1
  H  H24  1  0.592300  0.738600  0.834100  1
  H  H25  1  0.336900  0.151800  0.127100  1
  H  H26  1  0.663100  0.848200  0.872900  1
  H  H27  1  0.203400  0.144700  0.151900  1
  H  H28  1  0.796600  0.855300  0.848100  1
  H  H29  1  0.396200  0.311700  0.327800  1
  H  H30  1  0.603800  0.688300  0.672200  1
  H  H31  1  0.267700  0.251200  0.329400  1
  H  H32  1  0.732300  0.748800  0.670600  1
  H  H33  1  0.262600  0.141600  0.275400  1
  H  H34  1  0.737400  0.858400  0.724600  1
  H  H35  1  0.392100  0.136200  0.247200  1
  H  H36  1  0.607900  0.863800  0.752800  1
  H  H37  1  0.839200  0.169300  0.531500  1
  H  H38  1  0.160800  0.830700  0.468500  1
  H  H39  1  0.832600  0.178700  0.595100  1
  H  H40  1  0.167400  0.821300  0.404900  1
  H  H41  1  0.889800  0.225900  0.581500  1
  H  H42  1  0.110200  0.774100  0.418500  1
  H  H43  1  0.944300  0.440300  0.613000  1
  H  H44  1  0.055700  0.559700  0.387000  1
  H  H45  1  0.875300  0.400400  0.567050  1
  H  H46  1  0.124700  0.599600  0.432950  1
  H  H47  1  0.707400  0.969200  0.871200  1
  H  H48  1  0.292600  0.030800  0.128800  1
  H  H49  1  0.739500  0.982500  0.936200  1
  H  H50  1  0.260500  0.017500  0.063800  1
  H  H51  1  0.796300  0.980600  0.894000  1
  H  H52  1  0.203700  0.019400  0.106000  1
  H  H53  1  0.172900  0.222300  0.079200  1
  H  H54  1  0.827100  0.777700  0.920800  1
  H  H55  1  0.134700  0.596200  0.786400  1
  H  H56  1  0.865300  0.403800  0.213600  1
  H  H57  1  0.171900  0.596300  0.846400  1
  H  H58  1  0.828100  0.403700  0.153600  1
  H  H59  1  0.049700  0.530400  0.813500  1
  H  H60  1  0.950300  0.469600  0.186500  1
  H  H61  1  0.264600  0.591600  0.788700  1
  H  H62  1  0.735400  0.408400  0.211300  1
  H  H63  1  0.145600  0.505000  0.868900  1
  H  H64  1  0.854400  0.495000  0.131100  1
  H  H65  1  0.089200  0.447200  0.824000  1
  H  H66  1  0.910800  0.552800  0.176000  1
  H  H67  1  0.300300  0.507000  0.798000  1
  H  H68  1  0.699700  0.493000  0.202000  1
  H  H69  1  0.272700  0.540800  0.853500  1
  H  H70  1  0.727300  0.459200  0.146500  1
  H  H71  1  0.028200  0.448200  0.727800  1
  H  H72  1  0.971800  0.551800  0.272200  1
  H  H73  1  0.047100  0.506600  0.714700  1
  H  H74  1  0.952900  0.493400  0.285300  1
  H  H75  1  0.176200  0.543300  0.699600  1
  H  H76  1  0.823800  0.456700  0.300400  1
  H  H77  1  0.240300  0.508200  0.702800  1
  H  H78  1  0.759700  0.491800  0.297200  1
  H  H79  1  0.216600  0.439200  0.822800  1
  H  H80  1  0.783400  0.560800  0.177200  1
  H  H81  1  0.118300  0.441900  0.668600  1
  H  H82  1  0.881700  0.558100  0.331400  1
  H  H83  1  0.303300  0.239700  0.967500  1
  H  H84  1  0.696700  0.760300  0.032500  1
  H  H85  1  0.095100  0.272800  0.953900  1
  H  H86  1  0.904900  0.727200  0.046100  1
  H  H87  1  0.434100  0.396200  0.713800  1
  H  H88  1  0.565900  0.603800  0.286200  1
  H  H89  1  0.469400  0.439800  0.685700  1
  H  H90  1  0.530600  0.560200  0.314300  1
  H  H91  1  0.343400  0.378100  0.605200  1
  H  H92  1  0.656600  0.621900  0.394800  1
  H  H93  1  0.423200  0.360400  0.602000  1
  H  H94  1  0.576800  0.639600  0.398000  1
  H  H95  1  0.341200  0.276700  0.603700  1
  H  H96  1  0.658800  0.723300  0.396300  1
  H  H97  1  0.390900  0.307100  0.666600  1
  H  H98  1  0.609100  0.692900  0.333400  1
  H  H99  1  0.047500  0.345100  0.629400  1
  H  H100  1  0.952500  0.654900  0.370600  1
  H  H101  1  0.137200  0.283200  0.490800  1
  H  H102  1  0.862800  0.716800  0.509200  1
  H  H103  1  0.245600  0.279800  0.548000  1
  H  H104  1  0.754400  0.720200  0.452000  1
  H  H105  1  0.354700  0.268700  0.721800  1
  H  H106  1  0.645300  0.731300  0.278200  1
  H  H107  1  0.328000  0.252700  0.802400  1
  H  H108  1  0.672000  0.747300  0.197600  1
  H  H109  1  0.162400  0.342800  0.805900  1
  H  H110  1  0.837600  0.657200  0.194100  1
  H  H111  1  0.809200  0.276100  0.491500  1
  H  H112  1  0.190800  0.723900  0.508500  1
  H  H113  1  0.935500  0.311500  0.382100  1
  H  H114  1  0.064500  0.688500  0.617900  1
  H  H115  1  0.822200  0.292700  0.317100  1
  H  H116  1  0.177800  0.707300  0.682900  1
  H  H117  1  0.704700  0.266000  0.340600  1
  H  H118  1  0.295300  0.734000  0.659400  1
  H  H119  1  0.284900  0.216600  0.047600  1
  H  H120  1  0.715100  0.783400  0.952400  1
  H  H121  1  0.516100  0.242100  0.867600  1
  H  H122  1  0.483900  0.757900  0.132400  1
  H  H123  1  0.481800  0.236900  0.805000  1
  H  H124  1  0.518200  0.763100  0.195000  1
  H  H125  1  0.609100  0.226100  0.811200  1
  H  H126  1  0.390900  0.773900  0.188800  1
  H  H127  1  0.454300  0.320200  0.871900  1
  H  H128  1  0.545700  0.679800  0.128100  1
  H  H129  1  0.657900  0.284200  0.908500  1
  H  H130  1  0.342100  0.715800  0.091500  1
  H  H131  1  0.711700  0.305100  0.871100  1
  H  H132  1  0.288300  0.694900  0.128900  1
  H  H133  1  0.558200  0.399500  0.932700  1
  H  H134  1  0.441800  0.600500  0.067300  1
  H  H135  1  0.563200  0.342300  0.946300  1
  H  H136  1  0.436800  0.657700  0.053700  1
  H  H137  1  0.568800  0.269900  0.745900  1
  H  H138  1  0.431200  0.730100  0.254100  1
  H  H139  1  0.657400  0.296800  0.772300  1
  H  H140  1  0.342600  0.703200  0.227700  1
  H  H141  1  0.472600  0.333700  0.786300  1
  H  H142  1  0.527400  0.666300  0.213700  1
  H  H143  1  0.507400  0.394300  0.837400  1
  H  H144  1  0.492600  0.605700  0.162600  1
  H  H145  1  0.684800  0.387400  0.937500  1
  H  H146  1  0.315200  0.612600  0.062500  1
  H  H147  1  0.594400  0.373700  0.775700  1
  H  H148  1  0.405600  0.626300  0.224300  1
  H  H149  1  0.343100  0.417700  0.910100  1
  H  H150  1  0.656900  0.582300  0.089900  1
  H  H151  1  0.429800  0.438400  0.907900  1
  H  H152  1  0.570200  0.561600  0.092100  1
  H  H153  1  0.364100  0.440100  0.861300  1
  H  H154  1  0.635900  0.559900  0.138700  1
  H  H155  1  0.388900  0.507300  0.975400  1
  H  H156  1  0.611100  0.492700  0.024600  1
  H  H157  1  0.331200  0.512200  0.925200  1
  H  H158  1  0.668800  0.487800  0.074800  1
  H  H159  1  0.428700  0.563500  0.902100  1
  H  H160  1  0.571300  0.436500  0.097900  1
  H  H161  1  0.560100  0.530000  0.952400  1
  H  H162  1  0.439900  0.470000  0.047600  1
  H  H163  1  0.564200  0.623800  0.907000  1
  H  H164  1  0.435800  0.376200  0.093000  1
  H  H165  1  0.704300  0.649300  0.959900  1
  H  H166  1  0.295700  0.350700  0.040100  1
  H  H167  1  0.702800  0.414700  0.751800  1
  H  H168  1  0.297200  0.585300  0.248200  1
  H  H169  1  0.679200  0.567400  0.734500  1
  H  H170  1  0.320800  0.432600  0.265500  1
  H  H171  1  0.682200  0.607800  0.831500  1
  H  H172  1  0.317800  0.392200  0.168500  1
  H  H173  1  0.795600  0.615300  0.012700  1
  H  H174  1  0.204400  0.384700  0.987300  1
  H  H175  1  0.888000  0.580600  0.056700  1
  H  H176  1  0.112000  0.419400  0.943300  1
  H  H177  1  0.816800  0.422400  0.929200  1
  H  H178  1  0.183200  0.577600  0.070800  1
  H  H179  1  0.668400  0.335700  0.556300  1
  H  H180  1  0.331600  0.664300  0.443700  1
  H  H181  1  0.661100  0.493000  0.544000  1
  H  H182  1  0.338900  0.507000  0.456000  1
  H  H183  1  0.630900  0.447200  0.445200  1
  H  H184  1  0.369100  0.552800  0.554800  1
  H  H185  1  0.619300  0.347000  0.403000  1
  H  H186  1  0.380700  0.653000  0.597000  1
  H  H187  1  0.968600  0.346700  0.020600  1
  H  H188  1  0.031400  0.653300  0.979400  1
  H  H189  1  0.075400  0.503600  0.137800  1
  H  H190  1  0.924600  0.496400  0.862200  1
  H  H191  1  0.150800  0.457900  0.182500  1
  H  H192  1  0.849200  0.542100  0.817500  1
  H  H193  1  0.134100  0.358100  0.145500  1
  H  H194  1  0.865900  0.641900  0.854500  1
  H  H195  1  0.968200  0.287100  0.160700  1
  H  H196  1  0.031800  0.712900  0.839300  1
  H  H197  1  0.716700  0.959500  0.628000  1
  H  H198  1  0.283300  0.040500  0.372000  1
  H  H199  1  0.754000  0.959200  0.687900  1
  H  H200  1  0.246000  0.040800  0.312100  1
  H  H201  1  0.786000  0.056800  0.687800  1
  H  H202  1  0.214000  0.943200  0.312200  1
  H  H203  1  0.624000  0.905800  0.661800  1
  H  H204  1  0.376000  0.094200  0.338200  1
  H  H205  1  0.771300  0.050500  0.777200  1
  H  H206  1  0.228700  0.949500  0.222800  1
  H  H207  1  0.743500  0.105700  0.771700  1
  H  H208  1  0.256500  0.894300  0.228300  1
  H  H209  1  0.672200  0.956800  0.760600  1
  H  H210  1  0.327800  0.043200  0.239400  1
  H  H211  1  0.583900  0.955200  0.746000  1
  H  H212  1  0.416100  0.044800  0.254000  1
  H  H213  1  0.685500  0.105300  0.677800  1
  H  H214  1  0.314500  0.894700  0.322200  1
  H  H215  1  0.676300  0.050300  0.621600  1
  H  H216  1  0.323700  0.949700  0.378400  1
  H  H217  1  0.578000  0.956300  0.604900  1
  H  H218  1  0.422000  0.043700  0.395100  1
  H  H219  1  0.525700  0.954300  0.649800  1
  H  H220  1  0.474300  0.045700  0.350200  1
  H  H221  1  0.652500  0.051200  0.804700  1
  H  H222  1  0.347500  0.948800  0.195300  1
  H  H223  1  0.556600  0.049800  0.648600  1
  H  H224  1  0.443400  0.950200  0.351400  1
  H  H225  1  0.575500  0.203600  0.523500  1
  H  H226  1  0.424500  0.796400  0.476500  1
  H  H227  1  0.125100  0.047900  0.977600  1
  H  H228  1  0.874900  0.952100  0.022400  1
  H  H229  1  0.195600  0.102700  0.005200  1
  H  H230  1  0.804400  0.897300  0.994800  1
  H  H231  1  0.207600  0.041700  0.967000  1
  H  H232  1  0.792400  0.958300  0.033000  1
  H  H233  1  0.144800  0.121500  0.930900  1
  H  H234  1  0.855200  0.878500  0.069100  1
  H  H235  1  0.115400  0.054300  0.892400  1
  H  H236  1  0.884600  0.945700  0.107600  1
  H  H237  1  0.272200  0.114500  0.923600  1
  H  H238  1  0.727800  0.885500  0.076400  1
  H  H239  1  0.240600  0.048400  0.882700  1
  H  H240  1  0.759400  0.951600  0.117300  1
  H  H241  1  0.188500  0.073600  0.810400  1
  H  H242  1  0.811500  0.926400  0.189600  1
  H  H243  1  0.195700  0.138800  0.851400  1
  H  H244  1  0.804300  0.861200  0.148600  1
  H  H245  1  0.333900  0.149500  0.866300  1
  H  H246  1  0.666100  0.850500  0.133700  1
  H  H247  1  0.293600  0.148100  0.806700  1
  H  H248  1  0.706400  0.851900  0.193300  1
  H  H249  1  0.332100  0.049100  0.824300  1
  H  H250  1  0.667900  0.950900  0.175700  1
  H  H251  1  0.295500  0.049800  0.764800  1
  H  H252  1  0.704500  0.950200  0.235200  1
  H  H253  1  0.548100  0.143400  0.676000  1
  H  H254  1  0.451900  0.856600  0.324000  1
  H  H255  1  0.325600  0.145900  0.646900  1
  H  H256  1  0.674400  0.854100  0.353100  1
  H  H257  1  0.306400  0.111600  0.719700  1
  H  H258  1  0.693600  0.888400  0.280300  1
  H  H259  1  0.417000  0.102300  0.896900  1
  H  H260  1  0.583000  0.897700  0.103100  1
  H  H261  1  0.522700  0.139400  0.971000  1
  H  H262  1  0.477300  0.860600  0.029000  1
  H  H263  1  0.660500  0.148700  0.860000  1
  H  H264  1  0.339500  0.851300  0.140000  1
  H  H265  1  0.347600  0.192700  0.491200  1
  H  H266  1  0.652400  0.807300  0.508800  1
  H  H267  1  0.363400  0.222100  0.413800  1
  H  H268  1  0.636600  0.777900  0.586200  1
  H  H269  1  0.484800  0.242100  0.393900  1
  H  H270  1  0.515200  0.757900  0.606100  1
  H  H271  1  0.862500  0.214000  0.001700  1
  H  H272  1  0.137500  0.786000  0.998300  1
  H  H273  1  0.737400  0.244100  0.123200  1
  H  H274  1  0.262600  0.755900  0.876800  1
  H  H275  1  0.852900  0.286700  0.190800  1
  H  H276  1  0.147100  0.713300  0.809200  1
  H  H277  1  0.995500  0.159600  0.099500  1
  H  H278  1  0.004500  0.840400  0.900500  1
  H  H279  1  0.123300  0.175800  0.740800  1
  H  H280  1  0.876700  0.824200  0.259200  1
  H  H281  1  0.035200  0.173900  0.725100  1
  H  H282  1  0.964800  0.826100  0.274900  1
  H  H283  1  0.115100  0.028400  0.655600  1
  H  H284  1  0.884900  0.971600  0.344400  1
  H  H285  1  0.171600  0.086900  0.699300  1
  H  H286  1  0.828400  0.913100  0.300700  1
  H  H287  1  0.031400  0.166300  0.581100  1
  H  H288  1  0.968600  0.833700  0.418900  1
  H  H289  1  0.978200  0.167800  0.626000  1
  H  H290  1  0.021800  0.832200  0.374000  1
  H  H291  1  0.059900  0.021100  0.559500  1
  H  H292  1  0.940100  0.978900  0.440500  1
  H  H293  1  0.081400  0.074100  0.538500  1
  H  H294  1  0.918600  0.925900  0.461500  1
  H  H295  1  0.049400  0.080100  0.721800  1
  H  H296  1  0.950600  0.919900  0.278200  1
  H  H297  1  0.958200  0.070800  0.561100  1
  H  H298  1  0.041800  0.929200  0.438900  1
  H  H299  1  0.636400  0.998800  0.336700  1
  H  H300  1  0.363600  0.001200  0.663300  1
  H  H301  1  0.685200  0.149200  0.474500  1
  H  H302  1  0.314800  0.850800  0.525500  1
  H  H303  1  0.206100  0.931000  0.717200  1
  H  H304  1  0.793900  0.069000  0.282800  1
  H  H305  1  0.118800  0.931400  0.702400  1
  H  H306  1  0.881200  0.068600  0.297600  1
  H  H307  1  0.179000  0.961100  0.674600  1
  H  H308  1  0.821000  0.038900  0.325400  1
  H  H309  1  0.199600  0.858800  0.635000  1
  H  H310  1  0.800400  0.141200  0.365000  1
  H  H311  1  0.115900  0.840300  0.644700  1
  H  H312  1  0.884100  0.159700  0.355300  1
  H  H313  1  0.121000  0.839300  0.554100  1
  H  H314  1  0.879000  0.160700  0.445900  1
  H  H315  1  0.154300  0.907600  0.580200  1
  H  H316  1  0.845700  0.092400  0.419800  1
  H  H317  1  0.038000  0.923900  0.601500  1
  H  H318  1  0.962000  0.076100  0.398500  1
  H  H319  1  0.022700  0.882800  0.537000  1
  H  H320  1  0.977300  0.117200  0.463000  1
  H  H321  1  0.982700  0.800600  0.565200  1
  H  H322  1  0.017300  0.199400  0.434800  1
  H  H323  1  0.988900  0.845500  0.627100  1
  H  H324  1  0.011100  0.154500  0.372900  1
  H  H325  1  0.882800  0.832000  0.529200  1
  H  H326  1  0.117200  0.168000  0.470800  1
  H  H327  1  0.862800  0.815800  0.581600  1
  H  H328  1  0.137200  0.184200  0.418400  1
  H  H329  1  0.205400  0.174800  0.669700  1
  H  H330  1  0.794600  0.825200  0.330300  1
  H  H331  1  0.169700  0.170300  0.607700  1
  H  H332  1  0.830300  0.829700  0.392300  1
  H  H333  1  0.103600  0.222100  0.673800  1
  H  H334  1  0.896400  0.777900  0.326200  1
  H  H335  1  0.187600  0.076700  0.605500  1
  H  H336  1  0.812400  0.923300  0.394500  1
  H  H337  1  0.831100  0.061900  0.572600  1
  H  H338  1  0.168900  0.938100  0.427400  1
  H  H339  1  0.708000  0.905400  0.458700  1
  H  H340  1  0.292000  0.094600  0.541300  1
  H  H341  1  0.779500  0.857800  0.502500  1
  H  H342  1  0.220500  0.142200  0.497500  1
  H  H343  1  0.891300  0.858100  0.678000  1
  H  H344  1  0.108700  0.141900  0.322000  1
  H  H345  1  0.908900  0.905400  0.775600  1
  H  H346  1  0.091100  0.094600  0.224400  1
  H  H347  1  0.936000  0.062300  0.755300  1
  H  H348  1  0.064000  0.937700  0.244700  1
  H  H349  1  0.600200  0.051200  0.280100  1
  H  H350  1  0.399800  0.948800  0.719900  1
  H  H351  1  0.604900  0.149900  0.320600  1
  H  H352  1  0.395100  0.850100  0.679400  1
  H  H353  1  0.989800  0.152900  0.943400  1
  H  H354  1  0.010200  0.847100  0.056600  1
  H  H355  1  0.928700  0.003200  0.971300  1
  H  H356  1  0.071300  0.996800  0.028700  1
  H  H357  1  0.953500  0.058400  0.069300  1
  H  H358  1  0.046500  0.941600  0.930700  1
  Pd  Pd359  1  0.024280  0.253250  0.050730  1
  Pd  Pd360  1  0.975720  0.746750  0.949270  1
  Pd  Pd361  1  0.644330  0.245610  0.438180  1
  Pd  Pd362  1  0.355670  0.754390  0.561820  1
  C  C363  1  0.798600  0.229400  0.795700  1
  C  C364  1  0.201400  0.770600  0.204300  1
  C  C365  1  0.807400  0.215300  0.738800  1
  C  C366  1  0.192600  0.784700  0.261200  1
  C  C367  1  0.874800  0.195900  0.733900  1
  C  C368  1  0.125200  0.804100  0.266100  1
  C  C369  1  0.909600  0.199000  0.787800  1
  C  C370  1  0.090400  0.801000  0.212200  1
  C  C371  1  0.863500  0.219700  0.826900  1
  C  C372  1  0.136500  0.780300  0.173100  1
  C  C373  1  0.904000  0.351300  0.767900  1
  C  C374  1  0.096000  0.648700  0.232100  1
  C  C375  1  0.887600  0.364400  0.823100  1
  C  C376  1  0.112400  0.635600  0.176900  1
  C  C377  1  0.946900  0.355300  0.858300  1
  C  C378  1  0.053100  0.644700  0.141700  1
  C  C379  1  0.973900  0.333333  0.769300  1
  C  C380  1  0.026100  0.666667  0.230700  1
  C  C381  1  0.998300  0.333800  0.824900  1
  C  C382  1  0.001700  0.666200  0.175100  1
  C  C383  1  0.304700  0.277600  0.192500  1
  C  C384  1  0.695300  0.722400  0.807500  1
  C  C385  1  0.355100  0.245400  0.168600  1
  C  C386  1  0.644900  0.754600  0.831400  1
  C  C387  1  0.315900  0.185100  0.147000  1
  C  C388  1  0.684100  0.814900  0.853000  1
  C  C389  1  0.242700  0.181200  0.160700  1
  C  C390  1  0.757300  0.818800  0.839300  1
  C  C391  1  0.235500  0.238700  0.188900  1
  C  C392  1  0.764500  0.761300  0.811100  1
  C  C393  1  0.423000  0.229300  0.285300  1
  C  C394  1  0.577000  0.770700  0.714700  1
  C  C395  1  0.379000  0.268500  0.311500  1
  C  C396  1  0.621000  0.731500  0.688500  1
  C  C397  1  0.309300  0.235500  0.313100  1
  C  C398  1  0.690700  0.764500  0.686900  1
  C  C399  1  0.305900  0.175200  0.282700  1
  C  C400  1  0.694100  0.824800  0.717300  1
  C  C401  1  0.377300  0.172400  0.268000  1
  C  C402  1  0.622700  0.827600  0.732000  1
  C  C403  1  0.840500  0.198100  0.568200  1
  C  C404  1  0.159500  0.801900  0.431800  1
  C  C405  1  0.749500  0.991300  0.903100  1
  C  C406  1  0.250500  0.008700  0.096900  1
  C  C407  1  0.179600  0.232400  0.047400  1
  C  C408  1  0.820400  0.767600  0.952600  1
  C  C409  1  0.155800  0.572500  0.805800  1
  C  C410  1  0.844200  0.427500  0.194200  1
  C  C411  1  0.093600  0.518400  0.797700  1
  C  C412  1  0.906400  0.481600  0.202300  1
  C  C413  1  0.224900  0.556100  0.782700  1
  C  C414  1  0.775100  0.443900  0.217300  1
  C  C415  1  0.128200  0.481800  0.828300  1
  C  C416  1  0.871800  0.518200  0.171700  1
  C  C417  1  0.255900  0.518200  0.812700  1
  C  C418  1  0.744100  0.481800  0.187300  1
  C  C419  1  0.068300  0.483000  0.734100  1
  C  C420  1  0.931700  0.517000  0.265900  1
  C  C421  1  0.197100  0.519600  0.719100  1
  C  C422  1  0.802900  0.480400  0.280900  1
  C  C423  1  0.195100  0.463200  0.803400  1
  C  C424  1  0.804900  0.536800  0.196600  1
  C  C425  1  0.135400  0.464600  0.709800  1
  C  C426  1  0.864600  0.535400  0.290200  1
  C  C427  1  0.257600  0.241600  0.980600  1
  C  C428  1  0.742400  0.758400  0.019400  1
  C  C429  1  0.198700  0.258100  0.952100  1
  C  C430  1  0.801300  0.741900  0.047900  1
  C  C431  1  0.133600  0.261900  0.973600  1
  C  C432  1  0.866400  0.738100  0.026400  1
  C  C433  1  0.208200  0.271500  0.901400  1
  C  C434  1  0.791800  0.728500  0.098600  1
  C  C435  1  0.222700  0.283400  0.861800  1
  C  C436  1  0.777300  0.716600  0.138200  1
  C  C437  1  0.376000  0.454500  0.711400  1
  C  C438  1  0.624000  0.545500  0.288600  1
  C  C439  1  0.421400  0.416200  0.687800  1
  C  C440  1  0.578600  0.583800  0.312200  1
  C  C441  1  0.384400  0.366800  0.625100  1
  C  C442  1  0.615600  0.633200  0.374900  1
  C  C443  1  0.352900  0.311700  0.638300  1
  C  C444  1  0.647100  0.688300  0.361700  1
  C  C445  1  0.169400  0.427600  0.739000  1
  C  C446  1  0.830600  0.572400  0.261000  1
  C  C447  1  0.088500  0.334300  0.613100  1
  C  C448  1  0.911500  0.665700  0.386900  1
  C  C449  1  0.079300  0.312100  0.553900  1
  C  C450  1  0.920700  0.687900  0.446100  1
  C  C451  1  0.141000  0.295000  0.530200  1
  C  C452  1  0.859000  0.705000  0.469800  1
  C  C453  1  0.207200  0.295400  0.564400  1
  C  C454  1  0.792800  0.704600  0.435600  1
  C  C455  1  0.216700  0.319300  0.624000  1
  C  C456  1  0.783300  0.680700  0.376000  1
  C  C457  1  0.157300  0.340600  0.648000  1
  C  C458  1  0.842700  0.659400  0.352000  1
  C  C459  1  0.177100  0.371300  0.712200  1
  C  C460  1  0.822900  0.628700  0.287800  1
  C  C461  1  0.216200  0.337500  0.739600  1
  C  C462  1  0.783800  0.662500  0.260400  1
  C  C463  1  0.273500  0.314600  0.713400  1
  C  C464  1  0.726500  0.685400  0.286600  1
  C  C465  1  0.315700  0.283300  0.738300  1
  C  C466  1  0.684300  0.716700  0.261700  1
  C  C467  1  0.299900  0.273900  0.786700  1
  C  C468  1  0.700100  0.726100  0.213300  1
  C  C469  1  0.242100  0.296000  0.812600  1
  C  C470  1  0.757900  0.704000  0.187400  1
  C  C471  1  0.200800  0.327800  0.788800  1
  C  C472  1  0.799200  0.672200  0.211200  1
  C  C473  1  0.006900  0.306800  0.517400  1
  C  C474  1  0.993100  0.693200  0.482600  1
  C  C475  1  0.955400  0.303500  0.483300  1
  C  C476  1  0.044600  0.696500  0.516700  1
  C  C477  1  0.812400  0.277900  0.455600  1
  C  C478  1  0.187600  0.722100  0.544400  1
  C  C479  1  0.883500  0.292900  0.442900  1
  C  C480  1  0.116500  0.707100  0.557100  1
  C  C481  1  0.888000  0.299800  0.390700  1
  C  C482  1  0.112000  0.700200  0.609300  1
  C  C483  1  0.820700  0.289000  0.352500  1
  C  C484  1  0.179300  0.711000  0.647500  1
  C  C485  1  0.750300  0.272500  0.366300  1
  C  C486  1  0.249700  0.727500  0.633700  1
  C  C487  1  0.246700  0.228300  0.028400  1
  C  C488  1  0.753300  0.771700  0.971600  1
  C  C489  1  0.015300  0.429300  0.073900  1
  C  C490  1  0.984700  0.570700  0.926100  1
  C  C491  1  0.520200  0.260900  0.839500  1
  C  C492  1  0.479800  0.739100  0.160500  1
  C  C493  1  0.599900  0.265800  0.826100  1
  C  C494  1  0.400100  0.734200  0.173900  1
  C  C495  1  0.505800  0.322800  0.862900  1
  C  C496  1  0.494200  0.677200  0.137100  1
  C  C497  1  0.660600  0.302500  0.879900  1
  C  C498  1  0.339400  0.697500  0.120100  1
  C  C499  1  0.566700  0.360100  0.917400  1
  C  C500  1  0.433300  0.639900  0.082600  1
  C  C501  1  0.606300  0.293900  0.780900  1
  C  C502  1  0.393700  0.706100  0.219100  1
  C  C503  1  0.513000  0.354200  0.820400  1
  C  C504  1  0.487000  0.645800  0.179600  1
  C  C505  1  0.645800  0.363400  0.902600  1
  C  C506  1  0.354200  0.636600  0.097400  1
  C  C507  1  0.590900  0.355100  0.804500  1
  C  C508  1  0.409100  0.644900  0.195500  1
  C  C509  1  0.700300  0.443500  0.864600  1
  C  C510  1  0.299700  0.556500  0.135400  1
  C  C511  1  0.379200  0.445200  0.901000  1
  C  C512  1  0.620800  0.554800  0.099000  1
  C  C513  1  0.379800  0.502500  0.935200  1
  C  C514  1  0.620200  0.497500  0.064800  1
  C  C515  1  0.446100  0.541500  0.922600  1
  C  C516  1  0.553900  0.458500  0.077400  1
  C  C517  1  0.537100  0.553400  0.936100  1
  C  C518  1  0.462900  0.446600  0.063900  1
  C  C519  1  0.587300  0.600800  0.923700  1
  C  C520  1  0.412700  0.399200  0.076300  1
  C  C521  1  0.672800  0.612600  0.936900  1
  C  C522  1  0.327200  0.387400  0.063100  1
  C  C523  1  0.652800  0.392000  0.858300  1
  C  C524  1  0.347200  0.608000  0.141700  1
  C  C525  1  0.698000  0.453400  0.767700  1
  C  C526  1  0.302000  0.546600  0.232300  1
  C  C527  1  0.690500  0.486800  0.733100  1
  C  C528  1  0.309500  0.513200  0.266900  1
  C  C529  1  0.684400  0.544800  0.757300  1
  C  C530  1  0.315600  0.455200  0.242700  1
  C  C531  1  0.686100  0.568900  0.815500  1
  C  C532  1  0.313900  0.431100  0.184500  1
  C  C533  1  0.693600  0.536200  0.849900  1
  C  C534  1  0.306400  0.463800  0.150100  1
  C  C535  1  0.698400  0.477300  0.825300  1
  C  C536  1  0.301600  0.522700  0.174700  1
  C  C537  1  0.756600  0.480900  0.919600  1
  C  C538  1  0.243400  0.519100  0.080400  1
  C  C539  1  0.752900  0.540200  0.943100  1
  C  C540  1  0.247100  0.459800  0.056900  1
  C  C541  1  0.800400  0.576800  0.995500  1
  C  C542  1  0.199600  0.423200  0.004500  1
  C  C543  1  0.855200  0.555700  0.022200  1
  C  C544  1  0.144800  0.444300  0.977800  1
  C  C545  1  0.861600  0.498000  0.998200  1
  C  C546  1  0.138400  0.502000  0.001800  1
  C  C547  1  0.812100  0.461000  0.946100  1
  C  C548  1  0.187900  0.539000  0.053900  1
  C  C549  1  0.685300  0.461800  0.672500  1
  C  C550  1  0.314700  0.538200  0.327500  1
  C  C551  1  0.674200  0.442500  0.621400  1
  C  C552  1  0.325800  0.557500  0.378600  1
  C  C553  1  0.661100  0.358200  0.533600  1
  C  C554  1  0.338900  0.641800  0.466400  1
  C  C555  1  0.664000  0.417400  0.560000  1
  C  C556  1  0.336000  0.582600  0.440000  1
  C  C557  1  0.655500  0.452500  0.526900  1
  C  C558  1  0.344500  0.547500  0.473100  1
  C  C559  1  0.638700  0.425100  0.468200  1
  C  C560  1  0.361300  0.574900  0.531800  1
  C  C561  1  0.633200  0.364900  0.442700  1
  C  C562  1  0.366800  0.635100  0.557300  1
  C  C563  1  0.917500  0.475100  0.025500  1
  C  C564  1  0.082500  0.524900  0.974500  1
  C  C565  1  0.962700  0.455800  0.047100  1
  C  C566  1  0.037300  0.544200  0.952900  1
  C  C567  1  0.006100  0.369100  0.053400  1
  C  C568  1  0.993900  0.630900  0.946600  1
  C  C569  1  0.069100  0.462900  0.122800  1
  C  C570  1  0.930900  0.537100  0.877200  1
  C  C571  1  0.113700  0.435500  0.149400  1
  C  C572  1  0.886300  0.564500  0.850600  1
  C  C573  1  0.103300  0.376000  0.127200  1
  C  C574  1  0.896700  0.624000  0.872800  1
  C  C575  1  0.922100  0.272200  0.133700  1
  C  C576  1  0.077900  0.727800  0.866300  1
  C  C577  1  0.715700  0.973300  0.668600  1
  C  C578  1  0.284300  0.026700  0.331400  1
  C  C579  1  0.734600  0.041100  0.693000  1
  C  C580  1  0.265400  0.958900  0.307000  1
  C  C581  1  0.635900  0.949100  0.677100  1
  C  C582  1  0.364100  0.050900  0.322900  1
  C  C583  1  0.732500  0.062900  0.756400  1
  C  C584  1  0.267500  0.937100  0.243600  1
  C  C585  1  0.634500  0.970600  0.740400  1
  C  C586  1  0.365500  0.029400  0.259600  1
  C  C587  1  0.674600  0.062500  0.662000  1
  C  C588  1  0.325400  0.937500  0.338000  1
  C  C589  1  0.577000  0.970100  0.645400  1
  C  C590  1  0.423000  0.029900  0.354600  1
  C  C591  1  0.653300  0.037500  0.763700  1
  C  C592  1  0.346700  0.962500  0.236300  1
  C  C593  1  0.595200  0.036500  0.669300  1
  C  C594  1  0.404800  0.963500  0.330700  1
  C  C595  1  0.788100  0.222900  0.055600  1
  C  C596  1  0.211900  0.777100  0.944400  1
  C  C597  1  0.461400  0.197600  0.516900  1
  C  C598  1  0.538600  0.802400  0.483100  1
  C  C599  1  0.532400  0.207800  0.501800  1
  C  C600  1  0.467600  0.792200  0.498200  1
  C  C601  1  0.173000  0.067600  0.972100  1
  C  C602  1  0.827000  0.932400  0.027900  1
  C  C603  1  0.158400  0.083600  0.920400  1
  C  C604  1  0.841600  0.916400  0.079600  1
  C  C605  1  0.228900  0.087000  0.894400  1
  C  C606  1  0.771100  0.913000  0.105600  1
  C  C607  1  0.220700  0.106000  0.843600  1
  C  C608  1  0.779300  0.894000  0.156400  1
  C  C609  1  0.298200  0.124600  0.830700  1
  C  C610  1  0.701800  0.875400  0.169300  1
  C  C611  1  0.330700  0.073500  0.801000  1
  C  C612  1  0.669300  0.926500  0.199000  1
  C  C613  1  0.593700  0.060300  0.733400  1
  C  C614  1  0.406300  0.939700  0.266600  1
  C  C615  1  0.499200  0.136000  0.684200  1
  C  C616  1  0.500800  0.864000  0.315800  1
  C  C617  1  0.438100  0.146300  0.653000  1
  C  C618  1  0.561900  0.853700  0.347000  1
  C  C619  1  0.366600  0.137900  0.667200  1
  C  C620  1  0.633400  0.862100  0.332800  1
  C  C621  1  0.355100  0.117900  0.711000  1
  C  C622  1  0.644900  0.882100  0.289000  1
  C  C623  1  0.416900  0.106900  0.742500  1
  C  C624  1  0.583100  0.893100  0.257500  1
  C  C625  1  0.488700  0.114400  0.728000  1
  C  C626  1  0.511300  0.885600  0.272000  1
  C  C627  1  0.552000  0.095300  0.759400  1
  C  C628  1  0.448000  0.904700  0.240600  1
  C  C629  1  0.547300  0.113200  0.821200  1
  C  C630  1  0.452700  0.886800  0.178800  1
  C  C631  1  0.473800  0.103900  0.833400  1
  C  C632  1  0.526200  0.896100  0.166600  1
  C  C633  1  0.465900  0.111800  0.889400  1
  C  C634  1  0.534100  0.888200  0.110600  1
  C  C635  1  0.529000  0.133500  0.933700  1
  C  C636  1  0.471000  0.866500  0.066300  1
  C  C637  1  0.603400  0.146800  0.922800  1
  C  C638  1  0.396600  0.853200  0.077200  1
  C  C639  1  0.611800  0.138000  0.867200  1
  C  C640  1  0.388200  0.862000  0.132800  1
  C  C641  1  0.447700  0.166300  0.605700  1
  C  C642  1  0.552300  0.833700  0.394300  1
  C  C643  1  0.453300  0.180600  0.565700  1
  C  C644  1  0.546700  0.819400  0.434300  1
  C  C645  1  0.396200  0.201400  0.483000  1
  C  C646  1  0.603800  0.798600  0.517000  1
  C  C647  1  0.405700  0.218400  0.436700  1
  C  C648  1  0.594300  0.781600  0.563300  1
  C  C649  1  0.478200  0.229900  0.424500  1
  C  C650  1  0.521800  0.770100  0.575500  1
  C  C651  1  0.667500  0.175600  0.970900  1
  C  C652  1  0.332500  0.824400  0.029100  1
  C  C653  1  0.718800  0.197200  0.011000  1
  C  C654  1  0.281200  0.802800  0.989000  1
  C  C655  1  0.859900  0.228200  0.040300  1
  C  C656  1  0.140100  0.771800  0.959700  1
  C  C657  1  0.784600  0.245500  0.111900  1
  C  C658  1  0.215400  0.754500  0.888100  1
  C  C659  1  0.853200  0.270800  0.152000  1
  C  C660  1  0.146800  0.729200  0.848000  1
  C  C661  1  0.985600  0.137300  0.060500  1
  C  C662  1  0.014400  0.862700  0.939500  1
  C  C663  1  0.077700  0.159500  0.710200  1
  C  C664  1  0.922300  0.840500  0.289800  1
  C  C665  1  0.126500  0.071200  0.668300  1
  C  C666  1  0.873500  0.928800  0.331700  1
  C  C667  1  0.021800  0.153600  0.612600  1
  C  C668  1  0.978200  0.846400  0.387400  1
  C  C669  1  0.071900  0.063800  0.571400  1
  C  C670  1  0.928100  0.936200  0.428600  1
  C  C671  1  0.059000  0.092600  0.689800  1
  C  C672  1  0.941000  0.907400  0.310200  1
  C  C673  1  0.003700  0.087200  0.592500  1
  C  C674  1  0.996300  0.912800  0.407500  1
  C  C675  1  0.639500  0.039100  0.352800  1
  C  C676  1  0.360500  0.960900  0.647200  1
  C  C677  1  0.667400  0.129400  0.435200  1
  C  C678  1  0.332600  0.870600  0.564800  1
  C  C679  1  0.902900  0.931600  0.657600  1
  C  C680  1  0.097100  0.068400  0.342400  1
  C  C681  1  0.921500  0.993100  0.681000  1
  C  C682  1  0.078500  0.006900  0.319000  1
  C  C683  1  0.165100  0.928900  0.687600  1
  C  C684  1  0.834900  0.071100  0.312400  1
  C  C685  1  0.151200  0.870600  0.637600  1
  C  C686  1  0.848800  0.129400  0.362400  1
  C  C687  1  0.119900  0.875100  0.584800  1
  C  C688  1  0.880100  0.124900  0.415200  1
  C  C689  1  0.037700  0.884600  0.576000  1
  C  C690  1  0.962300  0.115400  0.424000  1
  C  C691  1  0.977900  0.839900  0.586700  1
  C  C692  1  0.022100  0.160100  0.413300  1
  C  C693  1  0.896700  0.843600  0.570500  1
  C  C694  1  0.103300  0.156400  0.429500  1
  C  C695  1  0.159800  0.157600  0.639200  1
  C  C696  1  0.840200  0.842400  0.360800  1
  C  C697  1  0.091900  0.178900  0.660600  1
  C  C698  1  0.908100  0.821100  0.339400  1
  C  C699  1  0.143400  0.090500  0.619000  1
  C  C700  1  0.856600  0.909500  0.381000  1
  C  C701  1  0.987900  0.065900  0.641300  1
  C  C702  1  0.012100  0.934100  0.358700  1
  C  C703  1  0.821000  0.020900  0.558500  1
  C  C704  1  0.179000  0.979100  0.441500  1
  C  C705  1  0.765000  0.988700  0.509500  1
  C  C706  1  0.235000  0.011300  0.490500  1
  C  C707  1  0.747900  0.927300  0.490200  1
  C  C708  1  0.252100  0.072700  0.509800  1
  C  C709  1  0.789200  0.898800  0.517100  1
  C  C710  1  0.210800  0.101200  0.482900  1
  C  C711  1  0.846100  0.931500  0.566700  1
  C  C712  1  0.153900  0.068500  0.433300  1
  C  C713  1  0.862000  0.992700  0.586600  1
  C  C714  1  0.138000  0.007300  0.413400  1
  C  C715  1  0.927600  0.024600  0.638300  1
  C  C716  1  0.072400  0.975400  0.361700  1
  C  C717  1  0.900300  0.899100  0.693500  1
  C  C718  1  0.099700  0.100900  0.306500  1
  C  C719  1  0.911100  0.927400  0.751900  1
  C  C720  1  0.088900  0.072600  0.248100  1
  C  C721  1  0.925200  0.988600  0.775700  1
  C  C722  1  0.074800  0.011400  0.224300  1
  C  C723  1  0.928800  0.021500  0.739800  1
  C  C724  1  0.071200  0.978500  0.260200  1
  C  C725  1  0.726800  0.018300  0.477100  1
  C  C726  1  0.273200  0.981700  0.522900  1
  C  C727  1  0.698600  0.041700  0.447400  1
  C  C728  1  0.301400  0.958300  0.552600  1
  C  C729  1  0.667100  0.070100  0.411300  1
  C  C730  1  0.332900  0.929900  0.588700  1
  C  C731  1  0.617100  0.070400  0.319600  1
  C  C732  1  0.382900  0.929600  0.680400  1
  C  C733  1  0.619200  0.129600  0.344000  1
  C  C734  1  0.380800  0.870400  0.656000  1
  C  C735  1  0.934400  0.017000  0.836600  1
  C  C736  1  0.065600  0.983000  0.163400  1
  C  C737  1  0.942000  0.040600  0.886400  1
  C  C738  1  0.058000  0.959400  0.113600  1
  C  C739  1  0.982600  0.133500  0.968900  1
  C  C740  1  0.017400  0.866500  0.031100  1
  C  C741  1  0.958000  0.072700  0.946900  1
  C  C742  1  0.042000  0.927300  0.053100  1
  C  C743  1  0.946200  0.044100  0.984700  1
  C  C744  1  0.053800  0.955900  0.015300  1
  C  C745  1  0.960600  0.076800  0.042900  1
  C  C746  1  0.039400  0.923200  0.957100  1
  S  S747  1  0.880400  0.229670  0.899010  1
  S  S748  1  0.119600  0.770330  0.100990  1
  S  S749  1  0.849200  0.360000  0.709500  1
  S  S750  1  0.150800  0.640000  0.290500  1
  S  S751  1  0.154500  0.258980  0.213630  1
  S  S752  1  0.845500  0.741020  0.786370  1
  S  S753  1  0.517900  0.249000  0.276760  1
  S  S754  1  0.482100  0.751000  0.723240  1
  N  N755  1  0.119900  0.251100  0.021300  1
  N  N756  1  0.880100  0.748900  0.978700  1
  N  N757  1  0.282100  0.319500  0.660600  1
  N  N758  1  0.717900  0.680500  0.339400  1
  N  N759  1  0.748000  0.265700  0.416600  1
  N  N760  1  0.252000  0.734300  0.583400  1
  N  N761  1  0.048200  0.341000  0.078300  1
  N  N762  1  0.951800  0.659000  0.921700  1
  N  N763  1  0.703100  0.560500  0.910000  1
  N  N764  1  0.296900  0.439500  0.090000  1
  N  N765  1  0.647600  0.331400  0.474900  1
  N  N766  1  0.352400  0.668600  0.525100  1
  N  N767  1  0.923800  0.253000  0.079300  1
  N  N768  1  0.076200  0.747000  0.920700  1
  N  N769  1  0.539600  0.223400  0.457100  1
  N  N770  1  0.460400  0.776600  0.542900  1
  N  N771  1  0.408900  0.088700  0.789300  1
  N  N772  1  0.591100  0.911300  0.210700  1
  N  N773  1  0.996400  0.165500  0.023800  1
  N  N774  1  0.003600  0.834500  0.976200  1
  N  N775  1  0.642000  0.159300  0.402100  1
  N  N776  1  0.358000  0.840700  0.597900  1
  N  N777  1  0.884200  0.903700  0.597800  1
  N  N778  1  0.115800  0.096300  0.402200  1
  O  O779  1  0.848700  0.279800  0.929200  1
  O  O780  1  0.151300  0.720200  0.070800  1
  O  O781  1  0.844900  0.174100  0.902300  1
  O  O782  1  0.155100  0.825900  0.097700  1
  O  O783  1  0.960200  0.240600  0.919800  1
  O  O784  1  0.039800  0.759400  0.080200  1
  O  O785  1  0.878400  0.327600  0.659300  1
  O  O786  1  0.121600  0.672400  0.340700  1
  O  O787  1  0.868800  0.422900  0.720400  1
  O  O788  1  0.131200  0.577100  0.279600  1
  O  O789  1  0.767100  0.335900  0.709200  1
  O  O790  1  0.232900  0.664100  0.290800  1
  O  O791  1  0.183300  0.315900  0.257400  1
  O  O792  1  0.816700  0.684100  0.742600  1
  O  O793  1  0.124500  0.218300  0.237700  1
  O  O794  1  0.875500  0.781700  0.762300  1
  O  O795  1  0.108600  0.262500  0.167900  1
  O  O796  1  0.891400  0.737500  0.832100  1
  O  O797  1  0.531600  0.310100  0.282400  1
  O  O798  1  0.468400  0.689900  0.717600  1
  O  O799  1  0.525200  0.212400  0.223000  1
  O  O800  1  0.474800  0.787600  0.777000  1
  O  O801  1  0.567600  0.244100  0.324400  1
  O  O802  1  0.432400  0.755900  0.675600  1
  O  O803  1  0.781600  0.228200  0.563300  1
  O  O804  1  0.218400  0.771800  0.436700  1
  O  O805  1  0.890200  0.432500  0.602290  1
  O  O806  1  0.109800  0.567500  0.397710  1
  O  O807  1  0.757500  0.052100  0.914800  1
  O  O808  1  0.242500  0.947900  0.085200  1
