# generated using pymatgen
data_BH123PdC123S4N7(O3F2)4
_symmetry_space_group_name_H-M   'P 1'
_cell_length_a   15.19000000
_cell_length_b   18.16800000
_cell_length_c   18.77000000
_cell_angle_alpha   64.90000000
_cell_angle_beta   79.12000000
_cell_angle_gamma   76.17000000
_symmetry_Int_Tables_number   1
_chemical_formula_structural   BH123PdC123S4N7(O3F2)4
_chemical_formula_sum   'B2 H246 Pd2 C246 S8 N14 O24 F16'
_cell_volume   4532.31867790
_cell_formula_units_Z   2
loop_
 _symmetry_equiv_pos_site_id
 _symmetry_equiv_pos_as_xyz
  1  'x, y, z'
loop_
 _atom_site_type_symbol
 _atom_site_label
 _atom_site_symmetry_multiplicity
 _atom_site_fract_x
 _atom_site_fract_y
 _atom_site_fract_z
 _atom_site_occupancy
  B  B1  1  0.582500  0.696600  0.152400  1
  B  B2  1  0.417500  0.303400  0.847600  1
  H  H3  1  0.181000  0.785300  0.846100  1
  H  H4  1  0.819000  0.214700  0.153900  1
  H  H5  1  0.075800  0.827700  0.843000  1
  H  H6  1  0.924200  0.172300  0.157000  1
  H  H7  1  0.113700  0.755000  0.812300  1
  H  H8  1  0.886300  0.245000  0.187700  1
  H  H9  1  0.537400  0.546700  0.577300  1
  H  H10  1  0.462600  0.453300  0.422700  1
  H  H11  1  0.469000  0.484700  0.631300  1
  H  H12  1  0.531000  0.515300  0.368700  1
  H  H13  1  0.489200  0.565100  0.716800  1
  H  H14  1  0.510800  0.434900  0.283200  1
  H  H15  1  0.522400  0.469100  0.736300  1
  H  H16  1  0.477600  0.530900  0.263700  1
  H  H17  1  0.619700  0.594800  0.665800  1
  H  H18  1  0.380300  0.405200  0.334200  1
  H  H19  1  0.654000  0.513500  0.649200  1
  H  H20  1  0.346000  0.486500  0.350800  1
  H  H21  1  0.683900  0.441300  0.789400  1
  H  H22  1  0.316100  0.558700  0.210600  1
  H  H23  1  0.728500  0.525400  0.828400  1
  H  H24  1  0.271500  0.474600  0.171600  1
  H  H25  1  0.673500  0.603100  0.764500  1
  H  H26  1  0.326500  0.396900  0.235500  1
  H  H27  1  0.822200  0.620200  0.748000  1
  H  H28  1  0.177800  0.379800  0.252000  1
  H  H29  1  0.804400  0.610200  0.671500  1
  H  H30  1  0.195600  0.389800  0.328500  1
  H  H31  1  0.859500  0.534300  0.738700  1
  H  H32  1  0.140500  0.465700  0.261300  1
  H  H33  1  0.063200  0.739700  0.489000  1
  H  H34  1  0.936800  0.260300  0.511000  1
  H  H35  1  0.085800  0.643100  0.543400  1
  H  H36  1  0.914200  0.356900  0.456600  1
  H  H37  1  0.935800  0.670400  0.513600  1
  H  H38  1  0.064200  0.329600  0.486400  1
  H  H39  1  0.945500  0.581800  0.446700  1
  H  H40  1  0.054500  0.418200  0.553300  1
  H  H41  1  0.017400  0.542800  0.511300  1
  H  H42  1  0.982600  0.457200  0.488700  1
  H  H43  1  0.180000  0.545400  0.472100  1
  H  H44  1  0.820000  0.454600  0.527900  1
  H  H45  1  0.217900  0.588900  0.381200  1
  H  H46  1  0.782100  0.411100  0.618800  1
  H  H47  1  0.105000  0.663900  0.278100  1
  H  H48  1  0.895000  0.336100  0.721900  1
  H  H49  1  0.999700  0.657700  0.303200  1
  H  H50  1  0.000300  0.342300  0.696800  1
  H  H51  1  0.022700  0.792300  0.278300  1
  H  H52  1  0.977300  0.207700  0.721700  1
  H  H53  1  0.211200  0.678100  0.446500  1
  H  H54  1  0.788800  0.321900  0.553500  1
  H  H55  1  0.087800  0.533800  0.386700  1
  H  H56  1  0.912200  0.466200  0.613300  1
  H  H57  1  0.176900  0.743400  0.310300  1
  H  H58  1  0.823100  0.256600  0.689700  1
  H  H59  1  0.124700  0.798200  0.358700  1
  H  H60  1  0.875300  0.201800  0.641300  1
  H  H61  1  0.975800  0.891000  0.571100  1
  H  H62  1  0.024200  0.109000  0.428900  1
  H  H63  1  0.838900  0.044500  0.673100  1
  H  H64  1  0.161100  0.955500  0.326900  1
  H  H65  1  0.872100  0.153900  0.556300  1
  H  H66  1  0.127900  0.846100  0.443700  1
  H  H67  1  0.050200  0.945400  0.429400  1
  H  H68  1  0.949800  0.054600  0.570600  1
  H  H69  1  0.027800  0.192800  0.306400  1
  H  H70  1  0.972200  0.807200  0.693600  1
  H  H71  1  0.943400  0.212800  0.416100  1
  H  H72  1  0.056600  0.787200  0.583900  1
  H  H73  1  0.975100  0.790600  0.540400  1
  H  H74  1  0.024900  0.209400  0.459600  1
  H  H75  1  0.058500  0.848300  0.425000  1
  H  H76  1  0.941500  0.151700  0.575000  1
  H  H77  1  0.991000  0.793200  0.564500  1
  H  H78  1  0.009000  0.206800  0.435500  1
  H  H79  1  0.050600  0.852100  0.400000  1
  H  H80  1  0.949400  0.147900  0.600000  1
  H  H81  1  0.949800  0.053900  0.566800  1.0
  H  H82  1  0.050200  0.946100  0.433200  1.0
  H  H83  1  0.925600  0.813800  0.678700  1.0
  H  H84  1  0.074400  0.186200  0.321300  1.0
  H  H85  1  0.016000  0.108200  0.430000  1.0
  H  H86  1  0.984000  0.891800  0.570000  1.0
  H  H87  1  0.103100  0.958200  0.312200  1.0
  H  H88  1  0.896900  0.041800  0.687800  1.0
  H  H89  1  0.736600  0.627500  0.037500  1.0
  H  H90  1  0.263400  0.372500  0.962500  1.0
  H  H91  1  0.343200  0.051700  0.575100  1.0
  H  H92  1  0.656800  0.948300  0.424900  1.0
  H  H93  1  0.300900  0.012000  0.665300  1.0
  H  H94  1  0.699100  0.988000  0.334700  1.0
  H  H95  1  0.445600  0.934200  0.648100  1.0
  H  H96  1  0.554400  0.065800  0.351900  1.0
  H  H97  1  0.188900  0.041500  0.579200  1.0
  H  H98  1  0.811100  0.958500  0.420800  1.0
  H  H99  1  0.212600  0.969100  0.495100  1.0
  H  H100  1  0.787400  0.030900  0.504900  1.0
  H  H101  1  0.288500  0.025900  0.470600  1.0
  H  H102  1  0.711500  0.974100  0.529400  1.0
  H  H103  1  0.444000  0.963100  0.511700  1.0
  H  H104  1  0.556000  0.036900  0.488300  1.0
  H  H105  1  0.469400  0.865400  0.561200  1.0
  H  H106  1  0.530600  0.134600  0.438800  1.0
  H  H107  1  0.403100  0.802100  0.701400  1.0
  H  H108  1  0.596900  0.197900  0.298600  1.0
  H  H109  1  0.336200  0.859100  0.742200  1.0
  H  H110  1  0.663800  0.140900  0.257800  1.0
  H  H111  1  0.180800  0.923500  0.701100  1.0
  H  H112  1  0.819200  0.076500  0.298900  1.0
  H  H113  1  0.147100  0.908500  0.633100  1.0
  H  H114  1  0.852900  0.091500  0.366900  1.0
  H  H115  1  0.358800  0.893400  0.475000  1.0
  H  H116  1  0.641200  0.106600  0.525000  1.0
  H  H117  1  0.250300  0.789400  0.706300  1.0
  H  H118  1  0.749700  0.210600  0.293700  1.0
  H  H119  1  0.290100  0.841400  0.421500  1.0
  H  H120  1  0.709900  0.158600  0.578500  1.0
  H  H121  1  0.459300  0.676100  0.343200  1.0
  H  H122  1  0.540700  0.323900  0.656800  1.0
  H  H123  1  0.479500  0.585700  0.471000  1.0
  H  H124  1  0.520500  0.414300  0.529000  1.0
  H  H125  1  0.356200  0.483600  0.730400  1.0
  H  H126  1  0.643800  0.516400  0.269600  1.0
  H  H127  1  0.223400  0.488300  0.810400  1.0
  H  H128  1  0.776600  0.511700  0.189600  1.0
  H  H129  1  0.150200  0.731800  0.681400  1.0
  H  H130  1  0.849800  0.268200  0.318600  1.0
  H  H131  1  0.292500  0.029700  0.180700  1.0
  H  H132  1  0.707500  0.970300  0.819300  1.0
  H  H133  1  0.426300  0.871700  0.079000  1.0
  H  H134  1  0.573700  0.128300  0.921000  1.0
  H  H135  1  0.413700  0.982300  0.956100  1.0
  H  H136  1  0.586300  0.017700  0.043900  1.0
  H  H137  1  0.344900  0.112900  0.949400  1.0
  H  H138  1  0.655100  0.887100  0.050600  1.0
  H  H139  1  0.911900  0.733700  0.865100  1.0
  H  H140  1  0.088100  0.266300  0.134900  1.0
  H  H141  1  0.933100  0.484800  0.953600  1.0
  H  H142  1  0.066900  0.515200  0.046400  1.0
  H  H143  1  0.806700  0.498400  0.040600  1.0
  H  H144  1  0.193300  0.501600  0.959400  1.0
  H  H145  1  0.529800  0.539700  0.573400  1.0
  H  H146  1  0.470200  0.460300  0.426600  1.0
  H  H147  1  0.466500  0.483300  0.643900  1.0
  H  H148  1  0.533500  0.516700  0.356100  1.0
  H  H149  1  0.502300  0.543400  0.727700  1.0
  H  H150  1  0.497700  0.456600  0.272300  1.0
  H  H151  1  0.577300  0.583700  0.657800  1.0
  H  H152  1  0.422700  0.416300  0.342200  1.0
  H  H153  1  0.639900  0.449700  0.758900  1.0
  H  H154  1  0.360100  0.550300  0.241100  1.0
  H  H155  1  0.582400  0.407300  0.727700  1.0
  H  H156  1  0.417600  0.592700  0.272300  1.0
  H  H157  1  0.652100  0.465200  0.599800  1.0
  H  H158  1  0.347900  0.534800  0.400200  1.0
  H  H159  1  0.726700  0.408400  0.658600  1.0
  H  H160  1  0.273300  0.591600  0.341400  1.0
  H  H161  1  0.793300  0.516600  0.569900  1.0
  H  H162  1  0.206700  0.483400  0.430100  1.0
  H  H163  1  0.704700  0.583700  0.575700  1.0
  H  H164  1  0.295300  0.416300  0.424300  1.0
  H  H165  1  0.815700  0.579200  0.652800  1.0
  H  H166  1  0.184300  0.420800  0.347200  1.0
  H  H167  1  0.815800  0.482800  0.703600  1.0
  H  H168  1  0.184200  0.517200  0.296400  1.0
  H  H169  1  0.727200  0.549100  0.709800  1.0
  H  H170  1  0.272800  0.450900  0.290200  1.0
  H  H171  1  0.201500  0.657800  0.464600  1.0
  H  H172  1  0.798500  0.342200  0.535400  1.0
  H  H173  1  0.153500  0.619100  0.552900  1.0
  H  H174  1  0.846500  0.380900  0.447100  1.0
  H  H175  1  0.112900  0.562400  0.473600  1.0
  H  H176  1  0.887100  0.437600  0.526400  1.0
  H  H177  1  0.135500  0.765000  0.510000  1.0
  H  H178  1  0.864500  0.235000  0.490000  1.0
  H  H179  1  0.139300  0.798600  0.372100  1.0
  H  H180  1  0.860700  0.201400  0.627900  1.0
  H  H181  1  0.030100  0.650200  0.364400  1.0
  H  H182  1  0.969900  0.349800  0.635600  1.0
  H  H183  1  0.127000  0.677100  0.351500  1.0
  H  H184  1  0.873000  0.322900  0.648500  1.0
  H  H185  1  0.952400  0.590000  0.503600  1.0
  H  H186  1  0.047600  0.410000  0.496400  1.0
  H  H187  1  0.001900  0.579500  0.576500  1.0
  H  H188  1  0.998100  0.420500  0.423500  1.0
  H  H189  1  0.016400  0.698900  0.598100  1.0
  H  H190  1  0.983600  0.301100  0.401900  1.0
  H  H191  1  0.009700  0.795000  0.320900  1.0
  H  H192  1  0.990300  0.205000  0.679100  1.0
  H  H193  1  0.884300  0.697400  0.546600  1.0
  H  H194  1  0.115700  0.302600  0.453400  1.0
  H  H195  1  0.931900  0.918700  0.278200  1.0
  H  H196  1  0.068100  0.081300  0.721800  1.0
  H  H197  1  0.684000  0.738700  0.260000  1.0
  H  H198  1  0.316000  0.261300  0.740000  1.0
  H  H199  1  0.600000  0.749000  0.322800  1.0
  H  H200  1  0.400000  0.251000  0.677200  1.0
  H  H201  1  0.657400  0.624500  0.419100  1.0
  H  H202  1  0.342600  0.375500  0.580900  1.0
  H  H203  1  0.649100  0.610000  0.342700  1.0
  H  H204  1  0.350900  0.390000  0.657300  1.0
  H  H205  1  0.781400  0.533200  0.390400  1.0
  H  H206  1  0.218600  0.466800  0.609600  1.0
  H  H207  1  0.810400  0.609200  0.396200  1.0
  H  H208  1  0.189600  0.390800  0.603800  1.0
  H  H209  1  0.846300  0.668900  0.264400  1.0
  H  H210  1  0.153700  0.331100  0.735600  1.0
  H  H211  1  0.792900  0.613100  0.247300  1.0
  H  H212  1  0.207100  0.386900  0.752700  1.0
  H  H213  1  0.903600  0.496100  0.302900  1.0
  H  H214  1  0.096400  0.503900  0.697100  1.0
  H  H215  1  0.955600  0.549000  0.325200  1.0
  H  H216  1  0.044400  0.451000  0.674800  1.0
  H  H217  1  0.032200  0.529400  0.211300  1.0
  H  H218  1  0.967800  0.470600  0.788700  1.0
  H  H219  1  0.994200  0.625800  0.188800  1.0
  H  H220  1  0.005800  0.374200  0.811200  1.0
  H  H221  1  0.942000  0.572900  0.166500  1.0
  H  H222  1  0.058000  0.427100  0.833500  1.0
  H  H223  1  0.779500  0.963900  0.104700  1.0
  H  H224  1  0.220500  0.036100  0.895300  1.0
  H  H225  1  0.693200  0.865800  0.191800  1.0
  H  H226  1  0.306800  0.134200  0.808200  1.0
  H  H227  1  0.575900  0.734500  0.445200  1.0
  H  H228  1  0.424100  0.265500  0.554800  1.0
  H  H229  1  0.549900  0.735500  0.571300  1.0
  H  H230  1  0.450100  0.264500  0.428700  1.0
  H  H231  1  0.793200  0.799200  0.543000  1.0
  H  H232  1  0.206800  0.200800  0.457000  1.0
  H  H233  1  0.099700  0.100500  0.111100  1.0
  H  H234  1  0.900300  0.899500  0.888900  1.0
  H  H235  1  0.967300  0.143900  0.926900  1.0
  H  H236  1  0.032700  0.856100  0.073100  1.0
  H  H237  1  0.064400  0.234500  0.845100  1.0
  H  H238  1  0.935600  0.765500  0.154900  1.0
  H  H239  1  0.728700  0.807100  0.789300  1.0
  H  H240  1  0.271300  0.192900  0.210700  1.0
  H  H241  1  0.490300  0.731400  0.813300  1.0
  H  H242  1  0.509700  0.268600  0.186700  1.0
  H  H243  1  0.461900  0.731200  0.939200  1.0
  H  H244  1  0.538100  0.268800  0.060800  1.0
  H  H245  1  0.565400  0.769600  0.986100  1.0
  H  H246  1  0.434600  0.230400  0.013900  1.0
  H  H247  1  0.174500  0.257500  0.897900  1.0
  H  H248  1  0.825500  0.742500  0.102100  1.0
  Pd  Pd249  1  0.752800  0.804490  0.942880  1.0
  Pd  Pd250  1  0.247200  0.195510  0.057120  1.0
  C  C251  1  0.097900  0.714800  0.930900  1
  C  C252  1  0.902100  0.285200  0.069100  1
  C  C253  1  0.118800  0.775700  0.851500  1
  C  C254  1  0.881200  0.224300  0.148500  1
  C  C255  1  0.528300  0.525100  0.695900  1
  C  C256  1  0.471700  0.474900  0.304100  1
  C  C257  1  0.620100  0.534600  0.689200  1
  C  C258  1  0.379900  0.465400  0.310800  1
  C  C259  1  0.676500  0.498600  0.756700  1
  C  C260  1  0.323500  0.501400  0.243300  1
  C  C261  1  0.719600  0.552300  0.771500  1
  C  C262  1  0.280400  0.447700  0.228500  1
  C  C263  1  0.809600  0.582000  0.728500  1
  C  C264  1  0.190400  0.418000  0.271500  1
  C  C265  1  0.954500  0.741900  0.392400  1
  C  C266  1  0.045500  0.258100  0.607600  1
  C  C267  1  0.072600  0.683700  0.489500  1
  C  C268  1  0.927400  0.316300  0.510500  1
  C  C269  1  0.985000  0.671200  0.469700  1
  C  C270  1  0.015000  0.328800  0.530300  1
  C  C271  1  0.001900  0.588800  0.460400  1
  C  C272  1  0.998100  0.411200  0.539600  1
  C  C273  1  0.166100  0.592200  0.421200  1
  C  C274  1  0.833900  0.407800  0.578800  1
  C  C275  1  0.054800  0.662700  0.320500  1
  C  C276  1  0.945200  0.337300  0.679500  1
  C  C277  1  0.036700  0.745100  0.329700  1
  C  C278  1  0.963300  0.254900  0.670300  1
  C  C279  1  0.154200  0.673300  0.430700  1
  C  C280  1  0.845800  0.326700  0.569300  1
  C  C281  1  0.079700  0.585600  0.395700  1
  C  C282  1  0.920300  0.414400  0.604300  1
  C  C283  1  0.128400  0.745700  0.353100  1
  C  C284  1  0.871600  0.254300  0.646900  1
  C  C285  1  0.954100  0.945680  0.568290  1
  C  C286  1  0.045900  0.054320  0.431710  1
  C  C287  1  0.904800  0.950510  0.636640  1
  C  C288  1  0.095200  0.049490  0.363360  1
  C  C289  1  0.873510  0.033700  0.629710  1
  C  C290  1  0.126490  0.966300  0.370290  1
  C  C291  1  0.894020  0.099400  0.558790  1
  C  C292  1  0.105980  0.900600  0.441210  1
  C  C293  1  0.944650  0.090540  0.491060  1
  C  C294  1  0.055350  0.909460  0.508940  1
  C  C295  1  0.977570  0.008410  0.494950  1
  C  C296  1  0.022430  0.991590  0.505050  1
  C  C297  1  0.028570  0.000160  0.426290  1
  C  C298  1  0.971430  0.999840  0.573710  1
  C  C299  1  0.050930  0.065110  0.353170  1
  C  C300  1  0.949070  0.934890  0.646830  1
  C  C301  1  0.016090  0.145920  0.352880  1
  C  C302  1  0.983910  0.854080  0.647120  1
  C  C303  1  0.964980  0.158070  0.419240  1
  C  C304  1  0.035020  0.841930  0.580760  1
  C  C305  1  0.958120  0.000490  0.566540  1.0
  C  C306  1  0.041880  0.999510  0.433460  1.0
  C  C307  1  0.930430  0.937610  0.635100  1.0
  C  C308  1  0.069570  0.062390  0.364900  1.0
  C  C309  1  0.943600  0.858820  0.633060  1.0
  C  C310  1  0.056400  0.141180  0.366940  1.0
  C  C311  1  0.982690  0.846620  0.564690  1.0
  C  C312  1  0.017310  0.153380  0.435310  1.0
  C  C313  1  0.010190  0.911800  0.495830  1.0
  C  C314  1  0.989810  0.088200  0.504170  1.0
  C  C315  1  0.997500  0.990440  0.497020  1.0
  C  C316  1  0.002500  0.009560  0.502980  1.0
  C  C317  1  0.024780  0.055140  0.428690  1.0
  C  C318  1  0.975220  0.944860  0.571310  1.0
  C  C319  1  0.064140  0.046290  0.358880  1.0
  C  C320  1  0.935860  0.953710  0.641120  1.0
  C  C321  1  0.076450  0.967000  0.358580  1.0
  C  C322  1  0.923550  0.033000  0.641420  1.0
  C  C323  1  0.049700  0.901320  0.426200  1.0
  C  C324  1  0.950300  0.098680  0.573800  1.0
  C  C325  1  0.788600  0.622860  0.001570  1.0
  C  C326  1  0.211400  0.377140  0.998430  1.0
  C  C327  1  0.319300  0.002780  0.615800  1.0
  C  C328  1  0.680700  0.997220  0.384200  1.0
  C  C329  1  0.391700  0.927130  0.629690  1.0
  C  C330  1  0.608300  0.072870  0.370310  1.0
  C  C331  1  0.237500  0.991240  0.588570  1.0
  C  C332  1  0.762500  0.008760  0.411430  1.0
  C  C333  1  0.266000  0.976880  0.512620  1.0
  C  C334  1  0.734000  0.023120  0.487380  1.0
  C  C335  1  0.420200  0.914280  0.552850  1.0
  C  C336  1  0.579800  0.085720  0.447150  1.0
  C  C337  1  0.354700  0.851600  0.691840  1.0
  C  C338  1  0.645300  0.148400  0.308160  1.0
  C  C339  1  0.200600  0.915570  0.651090  1.0
  C  C340  1  0.799400  0.084430  0.348910  1.0
  C  C341  1  0.339800  0.901610  0.525510  1.0
  C  C342  1  0.660200  0.098390  0.474490  1.0
  C  C343  1  0.274100  0.838990  0.665040  1.0
  C  C344  1  0.725900  0.161010  0.334960  1.0
  C  C345  1  0.304500  0.826940  0.588040  1.0
  C  C346  1  0.695500  0.173060  0.411960  1.0
  C  C347  1  0.330700  0.790080  0.431910  1.0
  C  C348  1  0.669300  0.209920  0.568090  1.0
  C  C349  1  0.374500  0.769040  0.368080  1.0
  C  C350  1  0.625500  0.230960  0.631920  1.0
  C  C351  1  0.429800  0.691830  0.385260  1.0
  C  C352  1  0.570200  0.308170  0.614740  1.0
  C  C353  1  0.442300  0.638450  0.461080  1.0
  C  C354  1  0.557700  0.361550  0.538920  1.0
  C  C355  1  0.401480  0.659600  0.524970  1.0
  C  C356  1  0.598520  0.340400  0.475030  1.0
  C  C357  1  0.345300  0.737580  0.509470  1.0
  C  C358  1  0.654700  0.262420  0.490530  1.0
  C  C359  1  0.304000  0.755890  0.580050  1.0
  C  C360  1  0.696000  0.244110  0.419950  1.0
  C  C361  1  0.274500  0.681200  0.645160  1.0
  C  C362  1  0.725500  0.318800  0.354840  1.0
  C  C363  1  0.333700  0.605400  0.658110  1.0
  C  C364  1  0.666300  0.394600  0.341890  1.0
  C  C365  1  0.314500  0.534280  0.720410  1.0
  C  C366  1  0.685500  0.465720  0.279590  1.0
  C  C367  1  0.235800  0.537480  0.767010  1.0
  C  C368  1  0.764200  0.462520  0.232990  1.0
  C  C369  1  0.172600  0.608800  0.754430  1.0
  C  C370  1  0.827400  0.391200  0.245570  1.0
  C  C371  1  0.193000  0.681770  0.691690  1.0
  C  C372  1  0.807000  0.318230  0.308310  1.0
  C  C373  1  0.362900  0.875190  0.221860  1.0
  C  C374  1  0.637100  0.124810  0.778140  1.0
  C  C375  1  0.318300  0.019450  0.134880  1.0
  C  C376  1  0.681700  0.980550  0.865120  1.0
  C  C377  1  0.359500  0.939070  0.143470  1.0
  C  C378  1  0.640500  0.060930  0.856530  1.0
  C  C379  1  0.396700  0.925370  0.075470  1.0
  C  C380  1  0.603300  0.074630  0.924530  1.0
  C  C381  1  0.390000  0.990680  0.003270  1.0
  C  C382  1  0.610000  0.009320  0.996730  1.0
  C  C383  1  0.348900  0.067890  0.999470  1.0
  C  C384  1  0.651100  0.932110  0.000530  1.0
  C  C385  1  0.088100  0.609170  0.804220  1.0
  C  C386  1  0.911900  0.390830  0.195780  1.0
  C  C387  1  0.021100  0.606350  0.846650  1.0
  C  C388  1  0.978900  0.393650  0.153350  1.0
  C  C389  1  0.891200  0.684370  0.901300  1.0
  C  C390  1  0.108800  0.315630  0.098700  1.0
  C  C391  1  0.939100  0.608870  0.899040  1.0
  C  C392  1  0.060900  0.391130  0.100960  1.0
  C  C393  1  0.904700  0.537690  0.952840  1.0
  C  C394  1  0.095300  0.462310  0.047160  1.0
  C  C395  1  0.830200  0.545980  0.003560  1.0
  C  C396  1  0.169800  0.454020  0.996440  1.0
  C  C397  1  0.363200  0.828590  0.289640  1.0
  C  C398  1  0.636800  0.171410  0.710360  1.0
  C  C399  1  0.489500  0.536010  0.622350  1.0
  C  C400  1  0.510500  0.463990  0.377650  1.0
  C  C401  1  0.544200  0.536700  0.682700  1.0
  C  C402  1  0.455800  0.463300  0.317300  1.0
  C  C403  1  0.612400  0.455300  0.712700  1.0
  C  C404  1  0.387600  0.544700  0.287300  1.0
  C  C405  1  0.683700  0.461700  0.642900  1.0
  C  C406  1  0.316300  0.538300  0.357100  1.0
  C  C407  1  0.742100  0.530300  0.606100  1.0
  C  C408  1  0.257900  0.469700  0.393900  1.0
  C  C409  1  0.778500  0.535800  0.674200  1.0
  C  C410  1  0.221500  0.464200  0.325800  1.0
  C  C411  1  0.630600  0.772400  0.709800  1.0
  C  C412  1  0.369400  0.227600  0.290200  1.0
  C  C413  1  0.142100  0.655100  0.497300  1.0
  C  C414  1  0.857900  0.344900  0.502700  1.0
  C  C415  1  0.082300  0.619200  0.469200  1.0
  C  C416  1  0.917700  0.380800  0.530800  1.0
  C  C417  1  0.096000  0.741300  0.491300  1.0
  C  C418  1  0.904000  0.258700  0.508700  1.0
  C  C419  1  0.080200  0.795500  0.405200  1.0
  C  C420  1  0.919800  0.204500  0.594800  1.0
  C  C421  1  0.067600  0.673900  0.384220  1.0
  C  C422  1  0.932400  0.326100  0.615780  1.0
  C  C423  1  0.991400  0.614900  0.520600  1.0
  C  C424  1  0.008600  0.385100  0.479400  1.0
  C  C425  1  0.005600  0.735200  0.542500  1.0
  C  C426  1  0.994400  0.264800  0.457500  1.0
  C  C427  1  0.020000  0.759300  0.377400  1.0
  C  C428  1  0.980000  0.240700  0.622600  1.0
  C  C429  1  0.944300  0.700200  0.513600  1.0
  C  C430  1  0.055700  0.299800  0.486400  1.0
  C  C431  1  0.930000  0.756000  0.427600  1.0
  C  C432  1  0.070000  0.244000  0.572400  1.0
  C  C433  1  0.884500  0.906640  0.260530  1.0
  C  C434  1  0.115500  0.093360  0.739470  1.0
  C  C435  1  0.666000  0.727340  0.316630  1.0
  C  C436  1  0.334000  0.272660  0.683370  1.0
  C  C437  1  0.683000  0.635370  0.363700  1.0
  C  C438  1  0.317000  0.364630  0.636300  1.0
  C  C439  1  0.779400  0.593600  0.364100  1.0
  C  C440  1  0.220600  0.406400  0.635900  1.0
  C  C441  1  0.831600  0.612900  0.284300  1.0
  C  C442  1  0.168400  0.387100  0.715700  1.0
  C  C443  1  0.918900  0.551500  0.285500  1.0
  C  C444  1  0.081100  0.448500  0.714500  1.0
  C  C445  1  0.977000  0.571700  0.205900  1.0
  C  C446  1  0.023000  0.428300  0.794100  1.0
  C  C447  1  0.865000  0.951480  0.182480  1.0
  C  C448  1  0.135000  0.048520  0.817520  1.0
  C  C449  1  0.793400  0.934230  0.157920  1.0
  C  C450  1  0.206600  0.065770  0.842080  1.0
  C  C451  1  0.742700  0.875390  0.209040  1.0
  C  C452  1  0.257300  0.124610  0.790960  1.0
  C  C453  1  0.765200  0.830330  0.286140  1.0
  C  C454  1  0.234800  0.169670  0.713860  1.0
  C  C455  1  0.837500  0.844910  0.313610  1.0
  C  C456  1  0.162500  0.155090  0.686390  1.0
  C  C457  1  0.856300  0.791600  0.397000  1.0
  C  C458  1  0.143700  0.208400  0.603000  1.0
  C  C459  1  0.768300  0.780570  0.447660  1.0
  C  C460  1  0.231700  0.219430  0.552340  1.0
  C  C461  1  0.701200  0.764790  0.419310  1.0
  C  C462  1  0.298800  0.235210  0.580690  1.0
  C  C463  1  0.621000  0.747280  0.464910  1.0
  C  C464  1  0.379000  0.252720  0.535090  1.0
  C  C465  1  0.605400  0.748170  0.539780  1.0
  C  C466  1  0.394600  0.251830  0.460220  1.0
  C  C467  1  0.670200  0.767360  0.568920  1.0
  C  C468  1  0.329800  0.232640  0.431080  1.0
  C  C469  1  0.749400  0.784400  0.523800  1.0
  C  C470  1  0.250600  0.215600  0.476200  1.0
  C  C471  1  0.916900  0.012000  0.128690  1.0
  C  C472  1  0.083100  0.988000  0.871310  1.0
  C  C473  1  0.963600  0.057000  0.081340  1.0
  C  C474  1  0.036400  0.943000  0.918660  1.0
  C  C475  1  0.091500  0.129110  0.056470  1.0
  C  C476  1  0.908500  0.870890  0.943530  1.0
  C  C477  1  0.021700  0.115080  0.027080  1.0
  C  C478  1  0.978300  0.884920  0.972920  1.0
  C  C479  1  0.012900  0.153800  0.948370  1.0
  C  C480  1  0.987100  0.846200  0.051630  1.0
  C  C481  1  0.070200  0.207000  0.900200  1.0
  C  C482  1  0.929800  0.793000  0.099800  1.0
  C  C483  1  0.673300  0.791660  0.819300  1.0
  C  C484  1  0.326700  0.208340  0.180700  1.0
  C  C485  1  0.611200  0.771200  0.785320  1.0
  C  C486  1  0.388800  0.228800  0.214680  1.0
  C  C487  1  0.532900  0.747500  0.832700  1.0
  C  C488  1  0.467100  0.252500  0.167300  1.0
  C  C489  1  0.516200  0.746900  0.907100  1.0
  C  C490  1  0.483800  0.253100  0.092900  1.0
  C  C491  1  0.578200  0.768980  0.934740  1.0
  C  C492  1  0.421800  0.231020  0.065260  1.0
  C  C493  1  0.135300  0.220040  0.931680  1.0
  C  C494  1  0.864700  0.779960  0.068320  1.0
  C  C495  1  0.650000  0.772400  0.646000  1.0
  C  C496  1  0.350000  0.227600  0.354000  1.0
  S  S497  1  0.886560  0.868060  0.715020  1
  S  S498  1  0.113440  0.131940  0.284980  1
  S  S499  1  0.109890  0.053920  0.274300  1
  S  S500  1  0.890110  0.946080  0.725700  1
  S  S501  1  0.879230  0.951880  0.713630  1.0
  S  S502  1  0.120770  0.048120  0.286370  1.0
  S  S503  1  0.108210  0.110660  0.283220  1.0
  S  S504  1  0.891790  0.889340  0.716780  1.0
  N  N505  1  0.072100  0.670700  0.992040  1
  N  N506  1  0.927900  0.329300  0.007960  1
  N  N507  1  0.819330  0.689980  0.950940  1.0
  N  N508  1  0.180670  0.310020  0.049060  1.0
  N  N509  1  0.411850  0.605710  0.603410  1.0
  N  N510  1  0.588150  0.394290  0.396590  1.0
  N  N511  1  0.314220  0.081240  0.065190  1.0
  N  N512  1  0.685780  0.918760  0.934810  1.0
  N  N513  1  0.655100  0.789540  0.893060  1.0
  N  N514  1  0.344900  0.210460  0.106940  1.0
  N  N515  1  0.146360  0.181360  0.009970  1.0
  N  N516  1  0.853640  0.818640  0.990030  1.0
  N  N517  1  0.715600  0.770470  0.340730  1.0
  N  N518  1  0.284400  0.229530  0.659270  1.0
  O  O519  1  0.978500  0.822800  0.741000  1
  O  O520  1  0.021500  0.177200  0.259000  1
  O  O521  1  0.834000  0.892800  0.775700  1
  O  O522  1  0.166000  0.107200  0.224300  1
  O  O523  1  0.844900  0.820600  0.690600  1
  O  O524  1  0.155100  0.179400  0.309400  1
  O  O525  1  0.045500  0.034600  0.238400  1
  O  O526  1  0.954500  0.965400  0.761600  1
  O  O527  1  0.182200  0.982500  0.302600  1
  O  O528  1  0.817800  0.017500  0.697400  1
  O  O529  1  0.142500  0.128200  0.224200  1
  O  O530  1  0.857500  0.871800  0.775800  1
  O  O531  1  0.789500  0.993800  0.686700  1.0
  O  O532  1  0.210500  0.006200  0.313300  1.0
  O  O533  1  0.869100  0.875100  0.782600  1.0
  O  O534  1  0.130900  0.124900  0.217400  1.0
  O  O535  1  0.921000  0.002700  0.734400  1.0
  O  O536  1  0.079000  0.997300  0.265600  1.0
  O  O537  1  0.079600  0.124500  0.210700  1.0
  O  O538  1  0.920400  0.875500  0.789300  1.0
  O  O539  1  0.205000  0.069100  0.289300  1.0
  O  O540  1  0.795000  0.930900  0.710700  1.0
  O  O541  1  0.100200  0.188000  0.293700  1.0
  O  O542  1  0.899800  0.812000  0.706300  1.0
  F  F543  1  0.674600  0.699800  0.135550  1
  F  F544  1  0.325400  0.300200  0.864450  1
  F  F545  1  0.559200  0.661550  0.226320  1
  F  F546  1  0.440800  0.338450  0.773680  1
  F  F547  1  0.588500  0.632540  0.117500  1
  F  F548  1  0.411500  0.367460  0.882500  1
  F  F549  1  0.535300  0.760800  0.104300  1
  F  F550  1  0.464700  0.239200  0.895700  1
  F  F551  1  0.495100  0.725400  0.113200  1
  F  F552  1  0.504900  0.274600  0.886800  1
  F  F553  1  0.632900  0.644000  0.125100  1
  F  F554  1  0.367100  0.356000  0.874900  1
  F  F555  1  0.604300  0.768300  0.135200  1
  F  F556  1  0.395700  0.231700  0.864800  1
  F  F557  1  0.551700  0.659600  0.231600  1
  F  F558  1  0.448300  0.340400  0.768400  1
